MODEL 1
REMARK VINA RESULT:      -7.0      0.000      0.000
REMARK  Name = 
REMARK  7 active torsions:
REMARK  status: ('A' for Active; 'I' for Inactive)
REMARK    1  A    between atoms: C_1  and  O_2
REMARK    2  A    between atoms: O_2  and  C_3
REMARK    3  A    between atoms: C_5  and  S_6
REMARK    4  A    between atoms: S_6  and  C_7
REMARK    5  A    between atoms: C_10  and  C_11
REMARK    6  A    between atoms: N_13  and  C_14
REMARK    7  A    between atoms: C_14  and  C_15
REMARK                            x       y       z     vdW  Elec       q    Type
REMARK                         _______ _______ _______ _____ _____    ______ ____
ROOT
ATOM      1  C   UNL     1       6.978   4.595  17.325  0.00  0.00    +0.000 A 
ATOM      2  C   UNL     1       7.436   4.727  16.001  0.00  0.00    +0.000 A 
ATOM      3  C   UNL     1       6.569   4.615  14.906  0.00  0.00    +0.000 A 
ATOM      4  C   UNL     1       5.230   4.317  15.140  0.00  0.00    +0.000 A 
ATOM      5  C   UNL     1       4.772   4.138  16.452  0.00  0.00    +0.000 A 
ATOM      6  C   UNL     1       5.634   4.264  17.560  0.00  0.00    +0.000 A 
ENDROOT
BRANCH   6   7
ATOM      7  C   UNL     1       5.008   4.052  18.908  0.00  0.00    +0.000 C 
ATOM      8  O   UNL     1       4.634   5.023  19.566  0.00  0.00    +0.000 OA
ATOM      9  N   UNL     1       4.864   2.762  19.369  0.00  0.00    +0.000 N 
ATOM     10  H   UNL     1       5.040   1.995  18.725  0.00  0.00    +0.000 HD
BRANCH   9  11
ATOM     11  C   UNL     1       4.134   2.466  20.592  0.00  0.00    +0.000 C 
BRANCH  11  12
ATOM     12  C   UNL     1       2.618   2.393  20.396  0.00  0.00    +0.000 C 
ATOM     13  C   UNL     1       2.166   2.114  18.975  0.00  0.00    +0.000 C 
ATOM     14  C   UNL     1       0.740   2.610  18.995  0.00  0.00    +0.000 C 
ATOM     15  C   UNL     1       0.764   3.737  20.012  0.00  0.00    +0.000 C 
ATOM     16  O   UNL     1       1.986   3.633  20.757  0.00  0.00    +0.000 OA
ENDBRANCH  11  12
ENDBRANCH   9  11
ENDBRANCH   6   7
BRANCH   1  18
ATOM     17  C   UNL     1       7.928   6.069  18.903  0.00  0.00    +0.000 C 
ATOM     18  O   UNL     1       7.834   4.736  18.391  0.00  0.00    +0.000 OA
ENDBRANCH   1  18
BRANCH   3  19
ATOM     19  S   UNL     1       7.273   4.815  13.276  0.00  0.00    +0.000 S 
ATOM     20  C   UNL     1       6.409   3.528  12.336  0.00  0.00    +0.000 C 
ENDBRANCH   3  19
TORSDOF 5
ENDMDL
MODEL 2
REMARK VINA RESULT:      -6.4      1.413      1.696
REMARK  Name = 
REMARK  7 active torsions:
REMARK  status: ('A' for Active; 'I' for Inactive)
REMARK    1  A    between atoms: C_1  and  O_2
REMARK    2  A    between atoms: O_2  and  C_3
REMARK    3  A    between atoms: C_5  and  S_6
REMARK    4  A    between atoms: S_6  and  C_7
REMARK    5  A    between atoms: C_10  and  C_11
REMARK    6  A    between atoms: N_13  and  C_14
REMARK    7  A    between atoms: C_14  and  C_15
REMARK                            x       y       z     vdW  Elec       q    Type
REMARK                         _______ _______ _______ _____ _____    ______ ____
ROOT
ATOM      1  C   UNL     1       6.909   5.195  16.667  0.00  0.00    +0.000 A 
ATOM      2  C   UNL     1       7.347   5.025  15.341  0.00  0.00    +0.000 A 
ATOM      3  C   UNL     1       6.529   4.445  14.362  0.00  0.00    +0.000 A 
ATOM      4  C   UNL     1       5.269   3.983  14.731  0.00  0.00    +0.000 A 
ATOM      5  C   UNL     1       4.840   4.106  16.058  0.00  0.00    +0.000 A 
ATOM      6  C   UNL     1       5.650   4.702  17.045  0.00  0.00    +0.000 A 
ENDROOT
BRANCH   6   7
ATOM      7  C   UNL     1       5.062   4.773  18.426  0.00  0.00    +0.000 C 
ATOM      8  O   UNL     1       5.640   4.224  19.362  0.00  0.00    +0.000 OA
ATOM      9  N   UNL     1       3.884   5.464  18.602  0.00  0.00    +0.000 N 
ATOM     10  H   UNL     1       3.534   6.030  17.833  0.00  0.00    +0.000 HD
BRANCH   9  11
ATOM     11  C   UNL     1       3.333   5.706  19.926  0.00  0.00    +0.000 C 
BRANCH  11  12
ATOM     12  C   UNL     1       2.098   4.858  20.238  0.00  0.00    +0.000 C 
ATOM     13  C   UNL     1       2.284   3.836  21.345  0.00  0.00    +0.000 C 
ATOM     14  C   UNL     1       1.164   2.863  21.066  0.00  0.00    +0.000 C 
ATOM     15  C   UNL     1       0.992   2.933  19.559  0.00  0.00    +0.000 C 
ATOM     16  O   UNL     1       1.683   4.099  19.089  0.00  0.00    +0.000 OA
ENDBRANCH  11  12
ENDBRANCH   9  11
ENDBRANCH   6   7
BRANCH   1  18
ATOM     17  C   UNL     1       7.585   7.216  17.679  0.00  0.00    +0.000 C 
ATOM     18  O   UNL     1       7.711   5.792  17.609  0.00  0.00    +0.000 OA
ENDBRANCH   1  18
BRANCH   3  19
ATOM     19  S   UNL     1       7.198   4.297  12.712  0.00  0.00    +0.000 S 
ATOM     20  C   UNL     1       6.127   3.028  11.987  0.00  0.00    +0.000 C 
ENDBRANCH   3  19
TORSDOF 5
ENDMDL
MODEL 3
REMARK VINA RESULT:      -6.3      3.101      6.342
REMARK  Name = 
REMARK  7 active torsions:
REMARK  status: ('A' for Active; 'I' for Inactive)
REMARK    1  A    between atoms: C_1  and  O_2
REMARK    2  A    between atoms: O_2  and  C_3
REMARK    3  A    between atoms: C_5  and  S_6
REMARK    4  A    between atoms: S_6  and  C_7
REMARK    5  A    between atoms: C_10  and  C_11
REMARK    6  A    between atoms: N_13  and  C_14
REMARK    7  A    between atoms: C_14  and  C_15
REMARK                            x       y       z     vdW  Elec       q    Type
REMARK                         _______ _______ _______ _____ _____    ______ ____
ROOT
ATOM      1  C   UNL     1       5.740   5.438  18.189  0.00  0.00    +0.000 A 
ATOM      2  C   UNL     1       4.707   5.431  19.144  0.00  0.00    +0.000 A 
ATOM      3  C   UNL     1       3.608   4.569  19.036  0.00  0.00    +0.000 A 
ATOM      4  C   UNL     1       3.518   3.735  17.926  0.00  0.00    +0.000 A 
ATOM      5  C   UNL     1       4.518   3.765  16.946  0.00  0.00    +0.000 A 
ATOM      6  C   UNL     1       5.635   4.617  17.054  0.00  0.00    +0.000 A 
ENDROOT
BRANCH   6   7
ATOM      7  C   UNL     1       6.632   4.542  15.933  0.00  0.00    +0.000 C 
ATOM      8  O   UNL     1       7.815   4.317  16.185  0.00  0.00    +0.000 OA
ATOM      9  N   UNL     1       6.184   4.724  14.644  0.00  0.00    +0.000 N 
ATOM     10  H   UNL     1       5.181   4.748  14.477  0.00  0.00    +0.000 HD
BRANCH   9  11
ATOM     11  C   UNL     1       7.055   4.518  13.497  0.00  0.00    +0.000 C 
BRANCH  11  12
ATOM     12  C   UNL     1       6.341   3.913  12.287  0.00  0.00    +0.000 C 
ATOM     13  C   UNL     1       4.836   3.780  12.430  0.00  0.00    +0.000 C 
ATOM     14  C   UNL     1       4.513   2.733  11.391  0.00  0.00    +0.000 C 
ATOM     15  C   UNL     1       5.761   1.871  11.346  0.00  0.00    +0.000 C 
ATOM     16  O   UNL     1       6.813   2.583  12.013  0.00  0.00    +0.000 OA
ENDBRANCH  11  12
ENDBRANCH   9  11
ENDBRANCH   6   7
BRANCH   1  18
ATOM     17  C   UNL     1       7.772   5.852  19.314  0.00  0.00    +0.000 C 
ATOM     18  O   UNL     1       6.827   6.268  18.323  0.00  0.00    +0.000 OA
ENDBRANCH   1  18
BRANCH   3  19
ATOM     19  S   UNL     1       2.369   4.650  20.321  0.00  0.00    +0.000 S 
ATOM     20  C   UNL     1       2.576   3.047  21.141  0.00  0.00    +0.000 C 
ENDBRANCH   3  19
TORSDOF 5
ENDMDL
MODEL 4
REMARK VINA RESULT:      -6.2      3.215      6.382
REMARK  Name = 
REMARK  7 active torsions:
REMARK  status: ('A' for Active; 'I' for Inactive)
REMARK    1  A    between atoms: C_1  and  O_2
REMARK    2  A    between atoms: O_2  and  C_3
REMARK    3  A    between atoms: C_5  and  S_6
REMARK    4  A    between atoms: S_6  and  C_7
REMARK    5  A    between atoms: C_10  and  C_11
REMARK    6  A    between atoms: N_13  and  C_14
REMARK    7  A    between atoms: C_14  and  C_15
REMARK                            x       y       z     vdW  Elec       q    Type
REMARK                         _______ _______ _______ _____ _____    ______ ____
ROOT
ATOM      1  C   UNL     1       5.300   5.229  18.133  0.00  0.00    +0.000 A 
ATOM      2  C   UNL     1       4.578   4.836  19.275  0.00  0.00    +0.000 A 
ATOM      3  C   UNL     1       3.536   3.902  19.204  0.00  0.00    +0.000 A 
ATOM      4  C   UNL     1       3.179   3.391  17.960  0.00  0.00    +0.000 A 
ATOM      5  C   UNL     1       3.860   3.809  16.810  0.00  0.00    +0.000 A 
ATOM      6  C   UNL     1       4.919   4.736  16.874  0.00  0.00    +0.000 A 
ENDROOT
BRANCH   6   7
ATOM      7  C   UNL     1       5.564   5.091  15.565  0.00  0.00    +0.000 C 
ATOM      8  O   UNL     1       5.541   6.256  15.171  0.00  0.00    +0.000 OA
ATOM      9  N   UNL     1       6.174   4.090  14.841  0.00  0.00    +0.000 N 
ATOM     10  H   UNL     1       6.304   3.183  15.282  0.00  0.00    +0.000 HD
BRANCH   9  11
ATOM     11  C   UNL     1       6.947   4.378  13.644  0.00  0.00    +0.000 C 
BRANCH  11  12
ATOM     12  C   UNL     1       6.306   3.848  12.360  0.00  0.00    +0.000 C 
ATOM     13  C   UNL     1       4.792   3.747  12.391  0.00  0.00    +0.000 C 
ATOM     14  C   UNL     1       4.520   2.757  11.284  0.00  0.00    +0.000 C 
ATOM     15  C   UNL     1       5.749   1.866  11.286  0.00  0.00    +0.000 C 
ATOM     16  O   UNL     1       6.767   2.520  12.057  0.00  0.00    +0.000 OA
ENDBRANCH  11  12
ENDBRANCH   9  11
ENDBRANCH   6   7
BRANCH   1  18
ATOM     17  C   UNL     1       7.551   5.574  18.745  0.00  0.00    +0.000 C 
ATOM     18  O   UNL     1       6.338   6.124  18.222  0.00  0.00    +0.000 OA
ENDBRANCH   1  18
BRANCH   3  19
ATOM     19  S   UNL     1       2.706   3.477  20.728  0.00  0.00    +0.000 S 
ATOM     20  C   UNL     1       1.087   4.259  20.503  0.00  0.00    +0.000 C 
ENDBRANCH   3  19
TORSDOF 5
ENDMDL
MODEL 5
REMARK VINA RESULT:      -6.1      3.861      6.907
REMARK  Name = 
REMARK  7 active torsions:
REMARK  status: ('A' for Active; 'I' for Inactive)
REMARK    1  A    between atoms: C_1  and  O_2
REMARK    2  A    between atoms: O_2  and  C_3
REMARK    3  A    between atoms: C_5  and  S_6
REMARK    4  A    between atoms: S_6  and  C_7
REMARK    5  A    between atoms: C_10  and  C_11
REMARK    6  A    between atoms: N_13  and  C_14
REMARK    7  A    between atoms: C_14  and  C_15
REMARK                            x       y       z     vdW  Elec       q    Type
REMARK                         _______ _______ _______ _____ _____    ______ ____
ROOT
ATOM      1  C   UNL     1       2.907   6.035  19.468  0.00  0.00    +0.000 A 
ATOM      2  C   UNL     1       2.141   7.082  20.013  0.00  0.00    +0.000 A 
ATOM      3  C   UNL     1       1.851   8.242  19.283  0.00  0.00    +0.000 A 
ATOM      4  C   UNL     1       2.380   8.376  18.003  0.00  0.00    +0.000 A 
ATOM      5  C   UNL     1       3.182   7.361  17.467  0.00  0.00    +0.000 A 
ATOM      6  C   UNL     1       3.465   6.184  18.188  0.00  0.00    +0.000 A 
ENDROOT
BRANCH   6   7
ATOM      7  C   UNL     1       4.334   5.177  17.491  0.00  0.00    +0.000 C 
ATOM      8  O   UNL     1       3.862   4.090  17.161  0.00  0.00    +0.000 OA
ATOM      9  N   UNL     1       5.646   5.509  17.233  0.00  0.00    +0.000 N 
ATOM     10  H   UNL     1       5.941   6.470  17.380  0.00  0.00    +0.000 HD
BRANCH   9  11
ATOM     11  C   UNL     1       6.506   4.652  16.431  0.00  0.00    +0.000 C 
BRANCH  11  12
ATOM     12  C   UNL     1       6.457   4.966  14.935  0.00  0.00    +0.000 C 
ATOM     13  C   UNL     1       6.067   3.800  14.045  0.00  0.00    +0.000 C 
ATOM     14  C   UNL     1       6.602   4.236  12.702  0.00  0.00    +0.000 C 
ATOM     15  C   UNL     1       7.813   5.083  13.053  0.00  0.00    +0.000 C 
ATOM     16  O   UNL     1       7.741   5.398  14.451  0.00  0.00    +0.000 OA
ENDBRANCH  11  12
ENDBRANCH   9  11
ENDBRANCH   6   7
BRANCH   1  18
ATOM     17  C   UNL     1       1.987   4.204  20.636  0.00  0.00    +0.000 C 
ATOM     18  O   UNL     1       3.159   4.890  20.185  0.00  0.00    +0.000 OA
ENDBRANCH   1  18
BRANCH   3  19
ATOM     19  S   UNL     1       0.858   9.492  20.084  0.00  0.00    +0.000 S 
ATOM     20  C   UNL     1       0.993   9.016  21.827  0.00  0.00    +0.000 C 
ENDBRANCH   3  19
TORSDOF 5
ENDMDL
MODEL 6
REMARK VINA RESULT:      -6.1      4.278      6.883
REMARK  Name = 
REMARK  7 active torsions:
REMARK  status: ('A' for Active; 'I' for Inactive)
REMARK    1  A    between atoms: C_1  and  O_2
REMARK    2  A    between atoms: O_2  and  C_3
REMARK    3  A    between atoms: C_5  and  S_6
REMARK    4  A    between atoms: S_6  and  C_7
REMARK    5  A    between atoms: C_10  and  C_11
REMARK    6  A    between atoms: N_13  and  C_14
REMARK    7  A    between atoms: C_14  and  C_15
REMARK                            x       y       z     vdW  Elec       q    Type
REMARK                         _______ _______ _______ _____ _____    ______ ____
ROOT
ATOM      1  C   UNL     1       2.411   6.638  19.765  0.00  0.00    +0.000 A 
ATOM      2  C   UNL     1       1.633   7.728  20.195  0.00  0.00    +0.000 A 
ATOM      3  C   UNL     1       1.445   8.863  19.394  0.00  0.00    +0.000 A 
ATOM      4  C   UNL     1       2.089   8.925  18.162  0.00  0.00    +0.000 A 
ATOM      5  C   UNL     1       2.903   7.866  17.743  0.00  0.00    +0.000 A 
ATOM      6  C   UNL     1       3.085   6.715  18.535  0.00  0.00    +0.000 A 
ENDROOT
BRANCH   6   7
ATOM      7  C   UNL     1       3.979   5.654  17.961  0.00  0.00    +0.000 C 
ATOM      8  O   UNL     1       3.493   4.596  17.565  0.00  0.00    +0.000 OA
ATOM      9  N   UNL     1       5.332   5.906  17.888  0.00  0.00    +0.000 N 
ATOM     10  H   UNL     1       5.660   6.849  18.078  0.00  0.00    +0.000 HD
BRANCH   9  11
ATOM     11  C   UNL     1       6.241   4.996  17.210  0.00  0.00    +0.000 C 
BRANCH  11  12
ATOM     12  C   UNL     1       6.125   5.040  15.685  0.00  0.00    +0.000 C 
ATOM     13  C   UNL     1       5.870   3.699  15.021  0.00  0.00    +0.000 C 
ATOM     14  C   UNL     1       6.320   3.959  13.603  0.00  0.00    +0.000 C 
ATOM     15  C   UNL     1       7.420   4.995  13.757  0.00  0.00    +0.000 C 
ATOM     16  O   UNL     1       7.335   5.535  15.084  0.00  0.00    +0.000 OA
ENDBRANCH  11  12
ENDBRANCH   9  11
ENDBRANCH   6   7
BRANCH   1  18
ATOM     17  C   UNL     1       1.406   4.681  20.616  0.00  0.00    +0.000 C 
ATOM     18  O   UNL     1       2.563   5.520  20.549  0.00  0.00    +0.000 OA
ENDBRANCH   1  18
BRANCH   3  19
ATOM     19  S   UNL     1       0.424  10.173  20.050  0.00  0.00    +0.000 S 
ATOM     20  C   UNL     1       1.004  11.607  19.106  0.00  0.00    +0.000 C 
ENDBRANCH   3  19
TORSDOF 5
ENDMDL
MODEL 7
REMARK VINA RESULT:      -6.1      1.725      2.716
REMARK  Name = 
REMARK  7 active torsions:
REMARK  status: ('A' for Active; 'I' for Inactive)
REMARK    1  A    between atoms: C_1  and  O_2
REMARK    2  A    between atoms: O_2  and  C_3
REMARK    3  A    between atoms: C_5  and  S_6
REMARK    4  A    between atoms: S_6  and  C_7
REMARK    5  A    between atoms: C_10  and  C_11
REMARK    6  A    between atoms: N_13  and  C_14
REMARK    7  A    between atoms: C_14  and  C_15
REMARK                            x       y       z     vdW  Elec       q    Type
REMARK                         _______ _______ _______ _____ _____    ______ ____
ROOT
ATOM      1  C   UNL     1       4.659   4.287  16.485  0.00  0.00    +0.000 A 
ATOM      2  C   UNL     1       5.373   4.207  15.275  0.00  0.00    +0.000 A 
ATOM      3  C   UNL     1       6.548   4.940  15.062  0.00  0.00    +0.000 A 
ATOM      4  C   UNL     1       6.987   5.805  16.060  0.00  0.00    +0.000 A 
ATOM      5  C   UNL     1       6.260   5.928  17.250  0.00  0.00    +0.000 A 
ATOM      6  C   UNL     1       5.086   5.183  17.479  0.00  0.00    +0.000 A 
ENDROOT
BRANCH   6   7
ATOM      7  C   UNL     1       4.409   5.409  18.801  0.00  0.00    +0.000 C 
ATOM      8  O   UNL     1       5.069   5.367  19.837  0.00  0.00    +0.000 OA
ATOM      9  N   UNL     1       3.056   5.666  18.809  0.00  0.00    +0.000 N 
ATOM     10  H   UNL     1       2.591   5.847  17.924  0.00  0.00    +0.000 HD
BRANCH   9  11
ATOM     11  C   UNL     1       2.359   6.043  20.029  0.00  0.00    +0.000 C 
BRANCH  11  12
ATOM     12  C   UNL     1       1.544   4.904  20.645  0.00  0.00    +0.000 C 
ATOM     13  C   UNL     1       2.321   3.986  21.571  0.00  0.00    +0.000 C 
ATOM     14  C   UNL     1       1.459   2.747  21.582  0.00  0.00    +0.000 C 
ATOM     15  C   UNL     1       0.813   2.744  20.208  0.00  0.00    +0.000 C 
ATOM     16  O   UNL     1       1.000   4.043  19.629  0.00  0.00    +0.000 OA
ENDBRANCH  11  12
ENDBRANCH   9  11
ENDBRANCH   6   7
BRANCH   1  18
ATOM     17  C   UNL     1       3.707   2.408  17.546  0.00  0.00    +0.000 C 
ATOM     18  O   UNL     1       3.524   3.541  16.691  0.00  0.00    +0.000 OA
ENDBRANCH   1  18
BRANCH   3  19
ATOM     19  S   UNL     1       7.368   4.740  13.487  0.00  0.00    +0.000 S 
ATOM     20  C   UNL     1       6.275   3.567  12.643  0.00  0.00    +0.000 C 
ENDBRANCH   3  19
TORSDOF 5
ENDMDL
MODEL 8
REMARK VINA RESULT:      -6.1      1.087      1.185
REMARK  Name = 
REMARK  7 active torsions:
REMARK  status: ('A' for Active; 'I' for Inactive)
REMARK    1  A    between atoms: C_1  and  O_2
REMARK    2  A    between atoms: O_2  and  C_3
REMARK    3  A    between atoms: C_5  and  S_6
REMARK    4  A    between atoms: S_6  and  C_7
REMARK    5  A    between atoms: C_10  and  C_11
REMARK    6  A    between atoms: N_13  and  C_14
REMARK    7  A    between atoms: C_14  and  C_15
REMARK                            x       y       z     vdW  Elec       q    Type
REMARK                         _______ _______ _______ _____ _____    ______ ____
ROOT
ATOM      1  C   UNL     1       6.959   5.163  16.462  0.00  0.00    +0.000 A 
ATOM      2  C   UNL     1       7.302   5.066  15.101  0.00  0.00    +0.000 A 
ATOM      3  C   UNL     1       6.455   4.455  14.168  0.00  0.00    +0.000 A 
ATOM      4  C   UNL     1       5.266   3.887  14.615  0.00  0.00    +0.000 A 
ATOM      5  C   UNL     1       4.935   3.936  15.975  0.00  0.00    +0.000 A 
ATOM      6  C   UNL     1       5.774   4.563  16.918  0.00  0.00    +0.000 A 
ENDROOT
BRANCH   6   7
ATOM      7  C   UNL     1       5.292   4.547  18.340  0.00  0.00    +0.000 C 
ATOM      8  O   UNL     1       4.975   5.602  18.887  0.00  0.00    +0.000 OA
ATOM      9  N   UNL     1       5.215   3.336  18.993  0.00  0.00    +0.000 N 
ATOM     10  H   UNL     1       5.335   2.485  18.451  0.00  0.00    +0.000 HD
BRANCH   9  11
ATOM     11  C   UNL     1       4.619   3.219  20.314  0.00  0.00    +0.000 C 
BRANCH  11  12
ATOM     12  C   UNL     1       3.151   2.787  20.287  0.00  0.00    +0.000 C 
ATOM     13  C   UNL     1       2.190   3.814  19.717  0.00  0.00    +0.000 C 
ATOM     14  C   UNL     1       0.868   3.358  20.287  0.00  0.00    +0.000 C 
ATOM     15  C   UNL     1       1.247   2.723  21.613  0.00  0.00    +0.000 C 
ATOM     16  O   UNL     1       2.665   2.509  21.612  0.00  0.00    +0.000 OA
ENDBRANCH  11  12
ENDBRANCH   9  11
ENDBRANCH   6   7
BRANCH   1  18
ATOM     17  C   UNL     1       7.630   7.212  17.418  0.00  0.00    +0.000 C 
ATOM     18  O   UNL     1       7.786   5.791  17.362  0.00  0.00    +0.000 OA
ENDBRANCH   1  18
BRANCH   3  19
ATOM     19  S   UNL     1       7.002   4.408  12.467  0.00  0.00    +0.000 S 
ATOM     20  C   UNL     1       6.138   2.945  11.837  0.00  0.00    +0.000 C 
ENDBRANCH   3  19
TORSDOF 5
ENDMDL
MODEL 9
REMARK VINA RESULT:      -6.0      2.100      2.862
REMARK  Name = 
REMARK  7 active torsions:
REMARK  status: ('A' for Active; 'I' for Inactive)
REMARK    1  A    between atoms: C_1  and  O_2
REMARK    2  A    between atoms: O_2  and  C_3
REMARK    3  A    between atoms: C_5  and  S_6
REMARK    4  A    between atoms: S_6  and  C_7
REMARK    5  A    between atoms: C_10  and  C_11
REMARK    6  A    between atoms: N_13  and  C_14
REMARK    7  A    between atoms: C_14  and  C_15
REMARK                            x       y       z     vdW  Elec       q    Type
REMARK                         _______ _______ _______ _____ _____    ______ ____
ROOT
ATOM      1  C   UNL     1       4.581   4.373  16.900  0.00  0.00    +0.000 A 
ATOM      2  C   UNL     1       5.435   4.039  15.832  0.00  0.00    +0.000 A 
ATOM      3  C   UNL     1       6.014   5.019  15.015  0.00  0.00    +0.000 A 
ATOM      4  C   UNL     1       5.693   6.354  15.241  0.00  0.00    +0.000 A 
ATOM      5  C   UNL     1       4.808   6.696  16.272  0.00  0.00    +0.000 A 
ATOM      6  C   UNL     1       4.234   5.718  17.108  0.00  0.00    +0.000 A 
ENDROOT
BRANCH   6   7
ATOM      7  C   UNL     1       3.308   6.226  18.176  0.00  0.00    +0.000 C 
ATOM      8  O   UNL     1       2.545   7.158  17.927  0.00  0.00    +0.000 OA
ATOM      9  N   UNL     1       3.337   5.620  19.412  0.00  0.00    +0.000 N 
ATOM     10  H   UNL     1       3.866   4.758  19.518  0.00  0.00    +0.000 HD
BRANCH   9  11
ATOM     11  C   UNL     1       2.371   5.952  20.448  0.00  0.00    +0.000 C 
BRANCH  11  12
ATOM     12  C   UNL     1       1.535   4.756  20.910  0.00  0.00    +0.000 C 
ATOM     13  C   UNL     1       2.298   3.704  21.695  0.00  0.00    +0.000 C 
ATOM     14  C   UNL     1       1.408   2.493  21.544  0.00  0.00    +0.000 C 
ATOM     15  C   UNL     1       0.755   2.692  20.188  0.00  0.00    +0.000 C 
ATOM     16  O   UNL     1       0.967   4.054  19.791  0.00  0.00    +0.000 OA
ENDBRANCH  11  12
ENDBRANCH   9  11
ENDBRANCH   6   7
BRANCH   1  18
ATOM     17  C   UNL     1       2.885   2.757  17.174  0.00  0.00    +0.000 C 
ATOM     18  O   UNL     1       4.044   3.403  17.711  0.00  0.00    +0.000 OA
ENDBRANCH   1  18
BRANCH   3  19
ATOM     19  S   UNL     1       7.090   4.464  13.701  0.00  0.00    +0.000 S 
ATOM     20  C   UNL     1       5.958   3.485  12.680  0.00  0.00    +0.000 C 
ENDBRANCH   3  19
TORSDOF 5
ENDMDL
