MODEL 1
REMARK VINA RESULT:      -8.4      0.000      0.000
REMARK  Name = 
REMARK  2 active torsions:
REMARK  status: ('A' for Active; 'I' for Inactive)
REMARK    1  A    between atoms: N_5  and  C_6
REMARK    2  A    between atoms: C_6  and  C_7
REMARK                            x       y       z     vdW  Elec       q    Type
REMARK                         _______ _______ _______ _____ _____    ______ ____
ROOT
ATOM      1  O   UNL     1       1.774   2.546  20.582  0.00  0.00    +0.000 OA
ATOM      2  C   UNL     1       2.323   3.306  19.819  0.00  0.00    +0.000 C 
ATOM      3  C   UNL     1       3.275   2.949  18.656  0.00  0.00    +0.000 C 
ATOM      4  O   UNL     1       3.657   1.830  18.382  0.00  0.00    +0.000 OA
ATOM      5  N   UNL     1       3.597   4.153  18.054  0.00  0.00    +0.000 N 
ATOM      6  C   UNL     1       2.972   5.223  18.720  0.00  0.00    +0.000 A 
ATOM      7  C   UNL     1       3.021   6.578  18.456  0.00  0.00    +0.000 A 
ATOM      8  C   UNL     1       2.353   7.451  19.331  0.00  0.00    +0.000 A 
ATOM      9  C   UNL     1       1.633   6.957  20.436  0.00  0.00    +0.000 A 
ATOM     10 CL   UNL     1       0.869   8.063  21.509  0.00  0.00    +0.000 Cl
ATOM     11  C   UNL     1       1.540   5.590  20.676  0.00  0.00    +0.000 A 
ATOM     12  C   UNL     1       2.217   4.761  19.802  0.00  0.00    +0.000 A 
ENDROOT
BRANCH   5  13
ATOM     13  C   UNL     1       4.592   4.259  17.004  0.00  0.00    +0.000 C 
BRANCH  13  14
ATOM     14  C   UNL     1       5.757   5.135  17.405  0.00  0.00    +0.000 A 
ATOM     15  C   UNL     1       6.586   4.791  18.488  0.00  0.00    +0.000 A 
ATOM     16  C   UNL     1       7.596   5.662  18.906  0.00  0.00    +0.000 A 
ATOM     17  C   UNL     1       7.776   6.875  18.250  0.00  0.00    +0.000 A 
ATOM     18  F   UNL     1       8.718   7.726  18.677  0.00  0.00    +0.000 F 
ATOM     19  C   UNL     1       6.993   7.219  17.159  0.00  0.00    +0.000 A 
ATOM     20  C   UNL     1       6.002   6.342  16.742  0.00  0.00    +0.000 A 
ATOM     21  F   UNL     1       5.266   6.676  15.673  0.00  0.00    +0.000 F 
ENDBRANCH  13  14
ENDBRANCH   5  13
TORSDOF 2
ENDMDL
MODEL 2
REMARK VINA RESULT:      -8.2      3.805      6.133
REMARK  Name = 
REMARK  2 active torsions:
REMARK  status: ('A' for Active; 'I' for Inactive)
REMARK    1  A    between atoms: N_5  and  C_6
REMARK    2  A    between atoms: C_6  and  C_7
REMARK                            x       y       z     vdW  Elec       q    Type
REMARK                         _______ _______ _______ _____ _____    ______ ____
ROOT
ATOM      1  O   UNL     1       8.818   4.141  17.943  0.00  0.00    +0.000 OA
ATOM      2  C   UNL     1       7.676   4.524  17.839  0.00  0.00    +0.000 C 
ATOM      3  C   UNL     1       6.753   5.050  18.960  0.00  0.00    +0.000 C 
ATOM      4  O   UNL     1       7.038   5.095  20.138  0.00  0.00    +0.000 OA
ATOM      5  N   UNL     1       5.572   5.409  18.333  0.00  0.00    +0.000 N 
ATOM      6  C   UNL     1       5.644   5.147  16.953  0.00  0.00    +0.000 A 
ATOM      7  C   UNL     1       4.701   5.352  15.964  0.00  0.00    +0.000 A 
ATOM      8  C   UNL     1       5.005   4.932  14.658  0.00  0.00    +0.000 A 
ATOM      9  C   UNL     1       6.246   4.339  14.359  0.00  0.00    +0.000 A 
ATOM     10 CL   UNL     1       6.560   3.796  12.758  0.00  0.00    +0.000 Cl
ATOM     11  C   UNL     1       7.218   4.177  15.342  0.00  0.00    +0.000 A 
ATOM     12  C   UNL     1       6.882   4.593  16.616  0.00  0.00    +0.000 A 
ENDROOT
BRANCH   5  13
ATOM     13  C   UNL     1       4.390   5.816  19.069  0.00  0.00    +0.000 C 
BRANCH  13  14
ATOM     14  C   UNL     1       3.308   4.760  19.043  0.00  0.00    +0.000 A 
ATOM     15  C   UNL     1       3.474   3.533  19.710  0.00  0.00    +0.000 A 
ATOM     16  C   UNL     1       2.504   2.532  19.592  0.00  0.00    +0.000 A 
ATOM     17  C   UNL     1       1.377   2.752  18.808  0.00  0.00    +0.000 A 
ATOM     18  F   UNL     1       0.470   1.777  18.665  0.00  0.00    +0.000 F 
ATOM     19  C   UNL     1       1.177   3.966  18.171  0.00  0.00    +0.000 A 
ATOM     20  C   UNL     1       2.137   4.959  18.304  0.00  0.00    +0.000 A 
ATOM     21  F   UNL     1       1.922   6.136  17.700  0.00  0.00    +0.000 F 
ENDBRANCH  13  14
ENDBRANCH   5  13
TORSDOF 2
ENDMDL
MODEL 3
REMARK VINA RESULT:      -7.9      3.931      6.323
REMARK  Name = 
REMARK  2 active torsions:
REMARK  status: ('A' for Active; 'I' for Inactive)
REMARK    1  A    between atoms: N_5  and  C_6
REMARK    2  A    between atoms: C_6  and  C_7
REMARK                            x       y       z     vdW  Elec       q    Type
REMARK                         _______ _______ _______ _____ _____    ______ ____
ROOT
ATOM      1  O   UNL     1       8.584   4.149  18.046  0.00  0.00    +0.000 OA
ATOM      2  C   UNL     1       7.501   4.621  17.790  0.00  0.00    +0.000 C 
ATOM      3  C   UNL     1       6.430   5.118  18.785  0.00  0.00    +0.000 C 
ATOM      4  O   UNL     1       6.510   5.045  19.994  0.00  0.00    +0.000 OA
ATOM      5  N   UNL     1       5.397   5.612  18.007  0.00  0.00    +0.000 N 
ATOM      6  C   UNL     1       5.691   5.461  16.639  0.00  0.00    +0.000 A 
ATOM      7  C   UNL     1       4.946   5.813  15.531  0.00  0.00    +0.000 A 
ATOM      8  C   UNL     1       5.446   5.481  14.261  0.00  0.00    +0.000 A 
ATOM      9  C   UNL     1       6.684   4.826  14.118  0.00  0.00    +0.000 A 
ATOM     10 CL   UNL     1       7.237   4.396  12.548  0.00  0.00    +0.000 Cl
ATOM     11  C   UNL     1       7.461   4.515  15.230  0.00  0.00    +0.000 A 
ATOM     12  C   UNL     1       6.935   4.847  16.464  0.00  0.00    +0.000 A 
ENDROOT
BRANCH   5  13
ATOM     13  C   UNL     1       4.131   6.041  18.570  0.00  0.00    +0.000 C 
BRANCH  13  14
ATOM     14  C   UNL     1       3.137   4.908  18.674  0.00  0.00    +0.000 A 
ATOM     15  C   UNL     1       3.126   3.862  17.733  0.00  0.00    +0.000 A 
ATOM     16  C   UNL     1       2.137   2.875  17.789  0.00  0.00    +0.000 A 
ATOM     17  C   UNL     1       1.159   2.934  18.776  0.00  0.00    +0.000 A 
ATOM     18  F   UNL     1       0.189   2.011  18.803  0.00  0.00    +0.000 F 
ATOM     19  C   UNL     1       1.171   3.936  19.733  0.00  0.00    +0.000 A 
ATOM     20  C   UNL     1       2.165   4.903  19.679  0.00  0.00    +0.000 A 
ATOM     21  F   UNL     1       2.178   5.854  20.624  0.00  0.00    +0.000 F 
ENDBRANCH  13  14
ENDBRANCH   5  13
TORSDOF 2
ENDMDL
MODEL 4
REMARK VINA RESULT:      -7.9      3.953      6.347
REMARK  Name = 
REMARK  2 active torsions:
REMARK  status: ('A' for Active; 'I' for Inactive)
REMARK    1  A    between atoms: N_5  and  C_6
REMARK    2  A    between atoms: C_6  and  C_7
REMARK                            x       y       z     vdW  Elec       q    Type
REMARK                         _______ _______ _______ _____ _____    ______ ____
ROOT
ATOM      1  O   UNL     1       8.831   4.168  17.933  0.00  0.00    +0.000 OA
ATOM      2  C   UNL     1       7.686   4.532  17.799  0.00  0.00    +0.000 C 
ATOM      3  C   UNL     1       6.714   5.009  18.900  0.00  0.00    +0.000 C 
ATOM      4  O   UNL     1       6.957   5.027  20.089  0.00  0.00    +0.000 OA
ATOM      5  N   UNL     1       5.549   5.363  18.242  0.00  0.00    +0.000 N 
ATOM      6  C   UNL     1       5.674   5.141  16.859  0.00  0.00    +0.000 A 
ATOM      7  C   UNL     1       4.762   5.354  15.844  0.00  0.00    +0.000 A 
ATOM      8  C   UNL     1       5.119   4.977  14.539  0.00  0.00    +0.000 A 
ATOM      9  C   UNL     1       6.382   4.416  14.267  0.00  0.00    +0.000 A 
ATOM     10 CL   UNL     1       6.761   3.924  12.664  0.00  0.00    +0.000 Cl
ATOM     11  C   UNL     1       7.321   4.246  15.279  0.00  0.00    +0.000 A 
ATOM     12  C   UNL     1       6.934   4.619  16.551  0.00  0.00    +0.000 A 
ENDROOT
BRANCH   5  13
ATOM     13  C   UNL     1       4.334   5.727  18.947  0.00  0.00    +0.000 C 
BRANCH  13  14
ATOM     14  C   UNL     1       3.245   4.691  18.784  0.00  0.00    +0.000 A 
ATOM     15  C   UNL     1       2.112   4.945  17.989  0.00  0.00    +0.000 A 
ATOM     16  C   UNL     1       1.072   4.014  17.930  0.00  0.00    +0.000 A 
ATOM     17  C   UNL     1       1.157   2.836  18.663  0.00  0.00    +0.000 A 
ATOM     18  F   UNL     1       0.140   1.964  18.637  0.00  0.00    +0.000 F 
ATOM     19  C   UNL     1       2.278   2.549  19.425  0.00  0.00    +0.000 A 
ATOM     20  C   UNL     1       3.314   3.473  19.468  0.00  0.00    +0.000 A 
ATOM     21  F   UNL     1       4.402   3.174  20.191  0.00  0.00    +0.000 F 
ENDBRANCH  13  14
ENDBRANCH   5  13
TORSDOF 2
ENDMDL
MODEL 5
REMARK VINA RESULT:      -7.8      3.926      6.129
REMARK  Name = 
REMARK  2 active torsions:
REMARK  status: ('A' for Active; 'I' for Inactive)
REMARK    1  A    between atoms: N_5  and  C_6
REMARK    2  A    between atoms: C_6  and  C_7
REMARK                            x       y       z     vdW  Elec       q    Type
REMARK                         _______ _______ _______ _____ _____    ______ ____
ROOT
ATOM      1  O   UNL     1       8.744   4.049  17.948  0.00  0.00    +0.000 OA
ATOM      2  C   UNL     1       7.659   4.568  17.822  0.00  0.00    +0.000 C 
ATOM      3  C   UNL     1       6.825   5.282  18.909  0.00  0.00    +0.000 C 
ATOM      4  O   UNL     1       7.129   5.369  20.080  0.00  0.00    +0.000 OA
ATOM      5  N   UNL     1       5.692   5.747  18.264  0.00  0.00    +0.000 N 
ATOM      6  C   UNL     1       5.712   5.386  16.904  0.00  0.00    +0.000 A 
ATOM      7  C   UNL     1       4.790   5.643  15.908  0.00  0.00    +0.000 A 
ATOM      8  C   UNL     1       5.021   5.101  14.633  0.00  0.00    +0.000 A 
ATOM      9  C   UNL     1       6.172   4.334  14.369  0.00  0.00    +0.000 A 
ATOM     10 CL   UNL     1       6.392   3.649  12.808  0.00  0.00    +0.000 Cl
ATOM     11  C   UNL     1       7.127   4.116  15.357  0.00  0.00    +0.000 A 
ATOM     12  C   UNL     1       6.864   4.656  16.601  0.00  0.00    +0.000 A 
ENDROOT
BRANCH   5  13
ATOM     13  C   UNL     1       4.581   6.351  18.976  0.00  0.00    +0.000 C 
BRANCH  13  14
ATOM     14  C   UNL     1       3.628   5.318  19.531  0.00  0.00    +0.000 A 
ATOM     15  C   UNL     1       3.912   3.943  19.441  0.00  0.00    +0.000 A 
ATOM     16  C   UNL     1       2.974   3.001  19.872  0.00  0.00    +0.000 A 
ATOM     17  C   UNL     1       1.753   3.427  20.385  0.00  0.00    +0.000 A 
ATOM     18  F   UNL     1       0.840   2.522  20.759  0.00  0.00    +0.000 F 
ATOM     19  C   UNL     1       1.466   4.777  20.514  0.00  0.00    +0.000 A 
ATOM     20  C   UNL     1       2.409   5.706  20.097  0.00  0.00    +0.000 A 
ATOM     21  F   UNL     1       2.128   7.008  20.248  0.00  0.00    +0.000 F 
ENDBRANCH  13  14
ENDBRANCH   5  13
TORSDOF 2
ENDMDL
MODEL 6
REMARK VINA RESULT:      -7.7      3.185      5.188
REMARK  Name = 
REMARK  2 active torsions:
REMARK  status: ('A' for Active; 'I' for Inactive)
REMARK    1  A    between atoms: N_5  and  C_6
REMARK    2  A    between atoms: C_6  and  C_7
REMARK                            x       y       z     vdW  Elec       q    Type
REMARK                         _______ _______ _______ _____ _____    ______ ____
ROOT
ATOM      1  O   UNL     1       6.605   6.973  16.429  0.00  0.00    +0.000 OA
ATOM      2  C   UNL     1       5.655   6.308  16.771  0.00  0.00    +0.000 C 
ATOM      3  C   UNL     1       5.544   4.767  16.795  0.00  0.00    +0.000 C 
ATOM      4  O   UNL     1       6.398   3.998  16.407  0.00  0.00    +0.000 OA
ATOM      5  N   UNL     1       4.288   4.492  17.308  0.00  0.00    +0.000 N 
ATOM      6  C   UNL     1       3.594   5.683  17.587  0.00  0.00    +0.000 A 
ATOM      7  C   UNL     1       2.326   5.867  18.104  0.00  0.00    +0.000 A 
ATOM      8  C   UNL     1       1.839   7.180  18.219  0.00  0.00    +0.000 A 
ATOM      9  C   UNL     1       2.630   8.282  17.839  0.00  0.00    +0.000 A 
ATOM     10 CL   UNL     1       1.978   9.869  17.951  0.00  0.00    +0.000 Cl
ATOM     11  C   UNL     1       3.926   8.103  17.365  0.00  0.00    +0.000 A 
ATOM     12  C   UNL     1       4.369   6.798  17.256  0.00  0.00    +0.000 A 
ENDROOT
BRANCH   5  13
ATOM     13  C   UNL     1       3.741   3.149  17.354  0.00  0.00    +0.000 C 
BRANCH  13  14
ATOM     14  C   UNL     1       2.979   2.885  18.633  0.00  0.00    +0.000 A 
ATOM     15  C   UNL     1       1.583   2.711  18.625  0.00  0.00    +0.000 A 
ATOM     16  C   UNL     1       0.885   2.567  19.827  0.00  0.00    +0.000 A 
ATOM     17  C   UNL     1       1.575   2.602  21.034  0.00  0.00    +0.000 A 
ATOM     18  F   UNL     1       0.900   2.504  22.186  0.00  0.00    +0.000 F 
ATOM     19  C   UNL     1       2.954   2.738  21.064  0.00  0.00    +0.000 A 
ATOM     20  C   UNL     1       3.641   2.866  19.865  0.00  0.00    +0.000 A 
ATOM     21  F   UNL     1       4.976   2.975  19.906  0.00  0.00    +0.000 F 
ENDBRANCH  13  14
ENDBRANCH   5  13
TORSDOF 2
ENDMDL
MODEL 7
REMARK VINA RESULT:      -7.6      3.483      5.558
REMARK  Name = 
REMARK  2 active torsions:
REMARK  status: ('A' for Active; 'I' for Inactive)
REMARK    1  A    between atoms: N_5  and  C_6
REMARK    2  A    between atoms: C_6  and  C_7
REMARK                            x       y       z     vdW  Elec       q    Type
REMARK                         _______ _______ _______ _____ _____    ______ ____
ROOT
ATOM      1  O   UNL     1       2.274   2.689  16.847  0.00  0.00    +0.000 OA
ATOM      2  C   UNL     1       2.769   3.625  17.430  0.00  0.00    +0.000 C 
ATOM      3  C   UNL     1       2.233   4.341  18.690  0.00  0.00    +0.000 C 
ATOM      4  O   UNL     1       1.184   4.090  19.244  0.00  0.00    +0.000 OA
ATOM      5  N   UNL     1       3.175   5.307  18.998  0.00  0.00    +0.000 N 
ATOM      6  C   UNL     1       4.226   5.292  18.064  0.00  0.00    +0.000 A 
ATOM      7  C   UNL     1       5.360   6.079  17.996  0.00  0.00    +0.000 A 
ATOM      8  C   UNL     1       6.226   5.903  16.904  0.00  0.00    +0.000 A 
ATOM      9  C   UNL     1       5.960   4.935  15.917  0.00  0.00    +0.000 A 
ATOM     10 CL   UNL     1       7.022   4.784  14.573  0.00  0.00    +0.000 Cl
ATOM     11  C   UNL     1       4.847   4.106  16.009  0.00  0.00    +0.000 A 
ATOM     12  C   UNL     1       4.011   4.313  17.090  0.00  0.00    +0.000 A 
ENDROOT
BRANCH   5  13
ATOM     13  C   UNL     1       2.966   6.296  20.040  0.00  0.00    +0.000 C 
BRANCH  13  14
ATOM     14  C   UNL     1       2.203   7.501  19.540  0.00  0.00    +0.000 A 
ATOM     15  C   UNL     1       2.275   7.900  18.193  0.00  0.00    +0.000 A 
ATOM     16  C   UNL     1       1.642   9.073  17.771  0.00  0.00    +0.000 A 
ATOM     17  C   UNL     1       0.942   9.848  18.690  0.00  0.00    +0.000 A 
ATOM     18  F   UNL     1       0.371  10.992  18.293  0.00  0.00    +0.000 F 
ATOM     19  C   UNL     1       0.830   9.456  20.015  0.00  0.00    +0.000 A 
ATOM     20  C   UNL     1       1.450   8.283  20.422  0.00  0.00    +0.000 A 
ATOM     21  F   UNL     1       1.315   7.903  21.700  0.00  0.00    +0.000 F 
ENDBRANCH  13  14
ENDBRANCH   5  13
TORSDOF 2
ENDMDL
MODEL 8
REMARK VINA RESULT:      -7.5      3.875      5.811
REMARK  Name = 
REMARK  2 active torsions:
REMARK  status: ('A' for Active; 'I' for Inactive)
REMARK    1  A    between atoms: N_5  and  C_6
REMARK    2  A    between atoms: C_6  and  C_7
REMARK                            x       y       z     vdW  Elec       q    Type
REMARK                         _______ _______ _______ _____ _____    ______ ____
ROOT
ATOM      1  O   UNL     1       0.136  10.509  17.810  0.00  0.00    +0.000 OA
ATOM      2  C   UNL     1       0.676   9.773  18.603  0.00  0.00    +0.000 C 
ATOM      3  C   UNL     1       1.740   8.692  18.312  0.00  0.00    +0.000 C 
ATOM      4  O   UNL     1       2.144   8.386  17.210  0.00  0.00    +0.000 OA
ATOM      5  N   UNL     1       2.079   8.161  19.545  0.00  0.00    +0.000 N 
ATOM      6  C   UNL     1       1.333   8.771  20.570  0.00  0.00    +0.000 A 
ATOM      7  C   UNL     1       1.354   8.546  21.933  0.00  0.00    +0.000 A 
ATOM      8  C   UNL     1       0.445   9.253  22.737  0.00  0.00    +0.000 A 
ATOM      9  C   UNL     1      -0.450  10.182  22.174  0.00  0.00    +0.000 A 
ATOM     10 CL   UNL     1      -1.579  10.990  23.189  0.00  0.00    +0.000 Cl
ATOM     11  C   UNL     1      -0.440  10.448  20.809  0.00  0.00    +0.000 A 
ATOM     12  C   UNL     1       0.460   9.729  20.046  0.00  0.00    +0.000 A 
ENDROOT
BRANCH   5  13
ATOM     13  C   UNL     1       2.948   7.008  19.686  0.00  0.00    +0.000 C 
BRANCH  13  14
ATOM     14  C   UNL     1       2.219   5.708  19.435  0.00  0.00    +0.000 A 
ATOM     15  C   UNL     1       1.414   5.122  20.429  0.00  0.00    +0.000 A 
ATOM     16  C   UNL     1       0.828   3.871  20.212  0.00  0.00    +0.000 A 
ATOM     17  C   UNL     1       1.048   3.204  19.012  0.00  0.00    +0.000 A 
ATOM     18  F   UNL     1       0.519   1.989  18.823  0.00  0.00    +0.000 F 
ATOM     19  C   UNL     1       1.809   3.778  18.006  0.00  0.00    +0.000 A 
ATOM     20  C   UNL     1       2.376   5.026  18.224  0.00  0.00    +0.000 A 
ATOM     21  F   UNL     1       3.092   5.580  17.235  0.00  0.00    +0.000 F 
ENDBRANCH  13  14
ENDBRANCH   5  13
TORSDOF 2
ENDMDL
MODEL 9
REMARK VINA RESULT:      -7.5      1.086      1.515
REMARK  Name = 
REMARK  2 active torsions:
REMARK  status: ('A' for Active; 'I' for Inactive)
REMARK    1  A    between atoms: N_5  and  C_6
REMARK    2  A    between atoms: C_6  and  C_7
REMARK                            x       y       z     vdW  Elec       q    Type
REMARK                         _______ _______ _______ _____ _____    ______ ____
ROOT
ATOM      1  O   UNL     1       1.541   2.721  20.798  0.00  0.00    +0.000 OA
ATOM      2  C   UNL     1       2.094   3.487  20.043  0.00  0.00    +0.000 C 
ATOM      3  C   UNL     1       3.056   3.139  18.886  0.00  0.00    +0.000 C 
ATOM      4  O   UNL     1       3.444   2.023  18.609  0.00  0.00    +0.000 OA
ATOM      5  N   UNL     1       3.378   4.348  18.293  0.00  0.00    +0.000 N 
ATOM      6  C   UNL     1       2.745   5.412  18.960  0.00  0.00    +0.000 A 
ATOM      7  C   UNL     1       2.791   6.769  18.703  0.00  0.00    +0.000 A 
ATOM      8  C   UNL     1       2.113   7.634  19.578  0.00  0.00    +0.000 A 
ATOM      9  C   UNL     1       1.386   7.132  20.675  0.00  0.00    +0.000 A 
ATOM     10 CL   UNL     1       0.610   8.229  21.748  0.00  0.00    +0.000 Cl
ATOM     11  C   UNL     1       1.296   5.764  20.907  0.00  0.00    +0.000 A 
ATOM     12  C   UNL     1       1.982   4.942  20.033  0.00  0.00    +0.000 A 
ENDROOT
BRANCH   5  13
ATOM     13  C   UNL     1       4.381   4.463  17.251  0.00  0.00    +0.000 C 
BRANCH  13  14
ATOM     14  C   UNL     1       5.519   5.375  17.651  0.00  0.00    +0.000 A 
ATOM     15  C   UNL     1       5.854   6.502  16.878  0.00  0.00    +0.000 A 
ATOM     16  C   UNL     1       6.970   7.275  17.210  0.00  0.00    +0.000 A 
ATOM     17  C   UNL     1       7.753   6.924  18.304  0.00  0.00    +0.000 A 
ATOM     18  F   UNL     1       8.845   7.643  18.595  0.00  0.00    +0.000 F 
ATOM     19  C   UNL     1       7.422   5.838  19.099  0.00  0.00    +0.000 A 
ATOM     20  C   UNL     1       6.304   5.083  18.771  0.00  0.00    +0.000 A 
ATOM     21  F   UNL     1       5.983   4.048  19.560  0.00  0.00    +0.000 F 
ENDBRANCH  13  14
ENDBRANCH   5  13
TORSDOF 2
ENDMDL
