MODEL 1
REMARK VINA RESULT:      -7.4      0.000      0.000
REMARK  Name = 
REMARK  7 active torsions:
REMARK  status: ('A' for Active; 'I' for Inactive)
REMARK    1  A    between atoms: N_1  and  C_2
REMARK    2  A    between atoms: C_7  and  C_8
REMARK    3  A    between atoms: C_10  and  C_11
REMARK    4  A    between atoms: C_11  and  O_12
REMARK    5  A    between atoms: C_13  and  O_14
REMARK    6  A    between atoms: C_15  and  O_16
REMARK    7  A    between atoms: N_18  and  C_19
REMARK                            x       y       z     vdW  Elec       q    Type
REMARK                         _______ _______ _______ _____ _____    ______ ____
ROOT
ATOM      1  C   UNL     1       1.224   4.182  19.933  0.00  0.00    +0.000 A 
ATOM      2  N   UNL     1       1.290   2.839  19.925  0.00  0.00    +0.000 NA
ATOM      3  C   UNL     1       2.335   2.244  19.337  0.00  0.00    +0.000 A 
ATOM      4  N   UNL     1       3.364   2.835  18.727  0.00  0.00    +0.000 NA
ATOM      5  C   UNL     1       3.295   4.183  18.729  0.00  0.00    +0.000 A 
ATOM      6  C   UNL     1       4.207   5.086  18.134  0.00  0.00    +0.000 A 
ATOM      7  C   UNL     1       3.687   6.345  18.358  0.00  0.00    +0.000 A 
ATOM      8  N   UNL     1       2.559   6.251  19.160  0.00  0.00    +0.000 N 
ATOM      9  C   UNL     1       2.268   4.901  19.345  0.00  0.00    +0.000 A 
ENDROOT
BRANCH   8  10
ATOM     10  C   UNL     1       1.887   7.396  19.684  0.00  0.00    +0.000 A 
ATOM     11  C   UNL     1       1.573   8.471  18.833  0.00  0.00    +0.000 A 
ATOM     12  C   UNL     1       0.901   9.590  19.335  0.00  0.00    +0.000 A 
ATOM     13  C   UNL     1       0.548   9.644  20.681  0.00  0.00    +0.000 A 
ATOM     14 CL   UNL     1      -0.301  11.011  21.290  0.00  0.00    +0.000 Cl
ATOM     15  C   UNL     1       0.886   8.600  21.537  0.00  0.00    +0.000 A 
ATOM     16  C   UNL     1       1.568   7.484  21.043  0.00  0.00    +0.000 A 
ENDBRANCH   8  10
BRANCH   6  17
ATOM     17  C   UNL     1       5.491   4.764  17.435  0.00  0.00    +0.000 C 
ATOM     18  O   UNL     1       6.521   4.320  18.351  0.00  0.00    +0.000 OA
ATOM     19  C   UNL     1       7.772   4.961  17.992  0.00  0.00    +0.000 C 
ATOM     20  C   UNL     1       7.556   5.608  16.628  0.00  0.00    +0.000 C 
ATOM     21  C   UNL     1       6.072   5.940  16.640  0.00  0.00    +0.000 C 
BRANCH  20  22
ATOM     22  O   UNL     1       7.800   4.680  15.556  0.00  0.00    +0.000 OA
ATOM     23  H   UNL     1       8.217   5.162  14.817  0.00  0.00    +0.000 HD
ENDBRANCH  20  22
BRANCH  21  24
ATOM     24  O   UNL     1       5.550   6.024  15.313  0.00  0.00    +0.000 OA
ATOM     25  H   UNL     1       5.959   6.820  14.914  0.00  0.00    +0.000 HD
ENDBRANCH  21  24
BRANCH  19  26
ATOM     26  C   UNL     1       8.151   5.967  19.079  0.00  0.00    +0.000 C 
BRANCH  26  27
ATOM     27  O   UNL     1       7.880   5.409  20.365  0.00  0.00    +0.000 OA
ATOM     28  H   UNL     1       8.054   4.451  20.274  0.00  0.00    +0.000 HD
ENDBRANCH  26  27
ENDBRANCH  19  26
ENDBRANCH   6  17
BRANCH   1  29
ATOM     29  N   UNL     1       0.076   4.709  20.500  0.00  0.00    +0.000 N 
ATOM     30  H   UNL     1      -0.638   4.815  19.787  0.00  0.00    +0.000 HD
ATOM     31  H   UNL     1       0.224   5.524  21.081  0.00  0.00    +0.000 HD
ENDBRANCH   1  29
TORSDOF 7
ENDMDL
MODEL 2
REMARK VINA RESULT:      -7.0      1.208      1.481
REMARK  Name = 
REMARK  7 active torsions:
REMARK  status: ('A' for Active; 'I' for Inactive)
REMARK    1  A    between atoms: N_1  and  C_2
REMARK    2  A    between atoms: C_7  and  C_8
REMARK    3  A    between atoms: C_10  and  C_11
REMARK    4  A    between atoms: C_11  and  O_12
REMARK    5  A    between atoms: C_13  and  O_14
REMARK    6  A    between atoms: C_15  and  O_16
REMARK    7  A    between atoms: N_18  and  C_19
REMARK                            x       y       z     vdW  Elec       q    Type
REMARK                         _______ _______ _______ _____ _____    ______ ____
ROOT
ATOM      1  C   UNL     1       1.212   4.495  20.443  0.00  0.00    +0.000 A 
ATOM      2  N   UNL     1       1.286   3.180  20.711  0.00  0.00    +0.000 NA
ATOM      3  C   UNL     1       2.444   2.539  20.505  0.00  0.00    +0.000 A 
ATOM      4  N   UNL     1       3.583   3.058  20.045  0.00  0.00    +0.000 NA
ATOM      5  C   UNL     1       3.508   4.377  19.770  0.00  0.00    +0.000 A 
ATOM      6  C   UNL     1       4.529   5.198  19.238  0.00  0.00    +0.000 A 
ATOM      7  C   UNL     1       3.963   6.449  19.089  0.00  0.00    +0.000 A 
ATOM      8  N   UNL     1       2.679   6.448  19.612  0.00  0.00    +0.000 N 
ATOM      9  C   UNL     1       2.360   5.144  19.983  0.00  0.00    +0.000 A 
ENDROOT
BRANCH   8  10
ATOM     10  C   UNL     1       1.896   7.636  19.736  0.00  0.00    +0.000 A 
ATOM     11  C   UNL     1       1.684   8.453  18.612  0.00  0.00    +0.000 A 
ATOM     12  C   UNL     1       0.905   9.609  18.720  0.00  0.00    +0.000 A 
ATOM     13  C   UNL     1       0.344   9.957  19.947  0.00  0.00    +0.000 A 
ATOM     14 CL   UNL     1      -0.635  11.366  20.072  0.00  0.00    +0.000 Cl
ATOM     15  C   UNL     1       0.578   9.173  21.072  0.00  0.00    +0.000 A 
ATOM     16  C   UNL     1       1.365   8.022  20.971  0.00  0.00    +0.000 A 
ENDBRANCH   8  10
BRANCH   6  17
ATOM     17  C   UNL     1       5.944   4.818  18.929  0.00  0.00    +0.000 C 
ATOM     18  O   UNL     1       6.902   5.690  19.575  0.00  0.00    +0.000 OA
ATOM     19  C   UNL     1       7.950   6.016  18.626  0.00  0.00    +0.000 C 
ATOM     20  C   UNL     1       7.768   5.079  17.436  0.00  0.00    +0.000 C 
ATOM     21  C   UNL     1       6.270   4.823  17.430  0.00  0.00    +0.000 C 
BRANCH  20  22
ATOM     22  O   UNL     1       8.439   3.823  17.643  0.00  0.00    +0.000 OA
ATOM     23  H   UNL     1       8.281   3.256  16.865  0.00  0.00    +0.000 HD
ENDBRANCH  20  22
BRANCH  21  24
ATOM     24  O   UNL     1       5.959   3.584  16.792  0.00  0.00    +0.000 OA
ATOM     25  H   UNL     1       6.740   3.362  16.243  0.00  0.00    +0.000 HD
ENDBRANCH  21  24
BRANCH  19  26
ATOM     26  C   UNL     1       7.842   7.493  18.248  0.00  0.00    +0.000 C 
BRANCH  26  27
ATOM     27  O   UNL     1       7.779   7.622  16.828  0.00  0.00    +0.000 OA
ATOM     28  H   UNL     1       8.521   8.212  16.588  0.00  0.00    +0.000 HD
ENDBRANCH  26  27
ENDBRANCH  19  26
ENDBRANCH   6  17
BRANCH   1  29
ATOM     29  N   UNL     1      -0.040   5.059  20.619  0.00  0.00    +0.000 N 
ATOM     30  H   UNL     1      -0.300   5.014  21.599  0.00  0.00    +0.000 HD
ATOM     31  H   UNL     1      -0.748   4.734  19.974  0.00  0.00    +0.000 HD
ENDBRANCH   1  29
TORSDOF 7
ENDMDL
MODEL 3
REMARK VINA RESULT:      -6.9      3.967      6.670
REMARK  Name = 
REMARK  7 active torsions:
REMARK  status: ('A' for Active; 'I' for Inactive)
REMARK    1  A    between atoms: N_1  and  C_2
REMARK    2  A    between atoms: C_7  and  C_8
REMARK    3  A    between atoms: C_10  and  C_11
REMARK    4  A    between atoms: C_11  and  O_12
REMARK    5  A    between atoms: C_13  and  O_14
REMARK    6  A    between atoms: C_15  and  O_16
REMARK    7  A    between atoms: N_18  and  C_19
REMARK                            x       y       z     vdW  Elec       q    Type
REMARK                         _______ _______ _______ _____ _____    ______ ____
ROOT
ATOM      1  C   UNL     1       3.794   3.662  19.783  0.00  0.00    +0.000 A 
ATOM      2  N   UNL     1       3.122   3.105  20.805  0.00  0.00    +0.000 NA
ATOM      3  C   UNL     1       2.153   3.809  21.405  0.00  0.00    +0.000 A 
ATOM      4  N   UNL     1       1.751   5.045  21.110  0.00  0.00    +0.000 NA
ATOM      5  C   UNL     1       2.429   5.607  20.087  0.00  0.00    +0.000 A 
ATOM      6  C   UNL     1       2.263   6.912  19.567  0.00  0.00    +0.000 A 
ATOM      7  C   UNL     1       3.210   7.040  18.570  0.00  0.00    +0.000 A 
ATOM      8  N   UNL     1       3.866   5.832  18.388  0.00  0.00    +0.000 N 
ATOM      9  C   UNL     1       3.431   4.948  19.372  0.00  0.00    +0.000 A 
ENDROOT
BRANCH   8  10
ATOM     10  C   UNL     1       4.797   5.612  17.328  0.00  0.00    +0.000 A 
ATOM     11  C   UNL     1       4.463   4.739  16.277  0.00  0.00    +0.000 A 
ATOM     12  C   UNL     1       5.361   4.530  15.225  0.00  0.00    +0.000 A 
ATOM     13  C   UNL     1       6.592   5.181  15.223  0.00  0.00    +0.000 A 
ATOM     14 CL   UNL     1       7.685   4.942  13.916  0.00  0.00    +0.000 Cl
ATOM     15  C   UNL     1       6.945   6.019  16.277  0.00  0.00    +0.000 A 
ATOM     16  C   UNL     1       6.055   6.223  17.336  0.00  0.00    +0.000 A 
ENDBRANCH   8  10
BRANCH   6  17
ATOM     17  C   UNL     1       1.254   7.940  19.974  0.00  0.00    +0.000 C 
ATOM     18  O   UNL     1       0.763   8.705  18.848  0.00  0.00    +0.000 OA
ATOM     19  C   UNL     1       0.704  10.105  19.226  0.00  0.00    +0.000 C 
ATOM     20  C   UNL     1       0.905  10.159  20.737  0.00  0.00    +0.000 C 
ATOM     21  C   UNL     1       1.780   8.945  21.007  0.00  0.00    +0.000 C 
BRANCH  20  22
ATOM     22  O   UNL     1      -0.336   9.985  21.443  0.00  0.00    +0.000 OA
ATOM     23  H   UNL     1      -0.397   9.057  21.738  0.00  0.00    +0.000 HD
ENDBRANCH  20  22
BRANCH  21  24
ATOM     24  O   UNL     1       1.629   8.488  22.352  0.00  0.00    +0.000 OA
ATOM     25  H   UNL     1       1.713   9.284  22.916  0.00  0.00    +0.000 HD
ENDBRANCH  21  24
BRANCH  19  26
ATOM     26  C   UNL     1       1.771  10.879  18.451  0.00  0.00    +0.000 C 
BRANCH  26  27
ATOM     27  O   UNL     1       2.127  10.157  17.273  0.00  0.00    +0.000 OA
ATOM     28  H   UNL     1       2.981   9.727  17.479  0.00  0.00    +0.000 HD
ENDBRANCH  26  27
ENDBRANCH  19  26
ENDBRANCH   6  17
BRANCH   1  29
ATOM     29  N   UNL     1       4.823   2.892  19.269  0.00  0.00    +0.000 N 
ATOM     30  H   UNL     1       4.637   1.911  19.448  0.00  0.00    +0.000 HD
ATOM     31  H   UNL     1       5.753   3.203  19.519  0.00  0.00    +0.000 HD
ENDBRANCH   1  29
TORSDOF 7
ENDMDL
MODEL 4
REMARK VINA RESULT:      -6.8      1.578      2.693
REMARK  Name = 
REMARK  7 active torsions:
REMARK  status: ('A' for Active; 'I' for Inactive)
REMARK    1  A    between atoms: N_1  and  C_2
REMARK    2  A    between atoms: C_7  and  C_8
REMARK    3  A    between atoms: C_10  and  C_11
REMARK    4  A    between atoms: C_11  and  O_12
REMARK    5  A    between atoms: C_13  and  O_14
REMARK    6  A    between atoms: C_15  and  O_16
REMARK    7  A    between atoms: N_18  and  C_19
REMARK                            x       y       z     vdW  Elec       q    Type
REMARK                         _______ _______ _______ _____ _____    ______ ____
ROOT
ATOM      1  C   UNL     1       2.197   4.263  19.141  0.00  0.00    +0.000 A 
ATOM      2  N   UNL     1       2.517   2.975  18.926  0.00  0.00    +0.000 NA
ATOM      3  C   UNL     1       3.510   2.686  18.075  0.00  0.00    +0.000 A 
ATOM      4  N   UNL     1       4.253   3.547  17.378  0.00  0.00    +0.000 NA
ATOM      5  C   UNL     1       3.928   4.839  17.588  0.00  0.00    +0.000 A 
ATOM      6  C   UNL     1       4.503   5.976  16.973  0.00  0.00    +0.000 A 
ATOM      7  C   UNL     1       3.809   7.061  17.470  0.00  0.00    +0.000 A 
ATOM      8  N   UNL     1       2.915   6.641  18.443  0.00  0.00    +0.000 N 
ATOM      9  C   UNL     1       2.935   5.249  18.481  0.00  0.00    +0.000 A 
ENDROOT
BRANCH   8  10
ATOM     10  C   UNL     1       2.161   7.552  19.243  0.00  0.00    +0.000 A 
ATOM     11  C   UNL     1       1.634   8.720  18.662  0.00  0.00    +0.000 A 
ATOM     12  C   UNL     1       0.880   9.609  19.435  0.00  0.00    +0.000 A 
ATOM     13  C   UNL     1       0.658   9.344  20.784  0.00  0.00    +0.000 A 
ATOM     14 CL   UNL     1      -0.290  10.427  21.725  0.00  0.00    +0.000 Cl
ATOM     15  C   UNL     1       1.207   8.209  21.374  0.00  0.00    +0.000 A 
ATOM     16  C   UNL     1       1.970   7.322  20.609  0.00  0.00    +0.000 A 
ENDBRANCH   8  10
BRANCH   6  17
ATOM     17  C   UNL     1       5.648   6.016  16.009  0.00  0.00    +0.000 C 
ATOM     18  O   UNL     1       5.214   5.886  14.634  0.00  0.00    +0.000 OA
ATOM     19  C   UNL     1       6.111   4.975  13.947  0.00  0.00    +0.000 C 
ATOM     20  C   UNL     1       7.305   4.758  14.871  0.00  0.00    +0.000 C 
ATOM     21  C   UNL     1       6.700   4.928  16.256  0.00  0.00    +0.000 C 
BRANCH  20  22
ATOM     22  O   UNL     1       8.307   5.775  14.691  0.00  0.00    +0.000 OA
ATOM     23  H   UNL     1       9.180   5.390  14.897  0.00  0.00    +0.000 HD
ENDBRANCH  20  22
BRANCH  21  24
ATOM     24  O   UNL     1       7.689   5.318  17.209  0.00  0.00    +0.000 OA
ATOM     25  H   UNL     1       8.046   6.173  16.889  0.00  0.00    +0.000 HD
ENDBRANCH  21  24
BRANCH  19  26
ATOM     26  C   UNL     1       5.362   3.683  13.622  0.00  0.00    +0.000 C 
BRANCH  26  27
ATOM     27  O   UNL     1       6.150   2.878  12.747  0.00  0.00    +0.000 OA
ATOM     28  H   UNL     1       6.250   2.019  13.204  0.00  0.00    +0.000 HD
ENDBRANCH  26  27
ENDBRANCH  19  26
ENDBRANCH   6  17
BRANCH   1  29
ATOM     29  N   UNL     1       1.115   4.466  19.981  0.00  0.00    +0.000 N 
ATOM     30  H   UNL     1       0.795   3.574  20.345  0.00  0.00    +0.000 HD
ATOM     31  H   UNL     1       0.389   5.059  19.604  0.00  0.00    +0.000 HD
ENDBRANCH   1  29
TORSDOF 7
ENDMDL
MODEL 5
REMARK VINA RESULT:      -6.8      9.638     12.024
REMARK  Name = 
REMARK  7 active torsions:
REMARK  status: ('A' for Active; 'I' for Inactive)
REMARK    1  A    between atoms: N_1  and  C_2
REMARK    2  A    between atoms: C_7  and  C_8
REMARK    3  A    between atoms: C_10  and  C_11
REMARK    4  A    between atoms: C_11  and  O_12
REMARK    5  A    between atoms: C_13  and  O_14
REMARK    6  A    between atoms: C_15  and  O_16
REMARK    7  A    between atoms: N_18  and  C_19
REMARK                            x       y       z     vdW  Elec       q    Type
REMARK                         _______ _______ _______ _____ _____    ______ ____
ROOT
ATOM      1  C   UNL     1      -6.905  10.717  20.010  0.00  0.00    +0.000 A 
ATOM      2  N   UNL     1      -7.916  10.694  20.896  0.00  0.00    +0.000 NA
ATOM      3  C   UNL     1      -7.859  11.496  21.966  0.00  0.00    +0.000 A 
ATOM      4  N   UNL     1      -6.887  12.351  22.285  0.00  0.00    +0.000 NA
ATOM      5  C   UNL     1      -5.869  12.370  21.400  0.00  0.00    +0.000 A 
ATOM      6  C   UNL     1      -4.683  13.138  21.479  0.00  0.00    +0.000 A 
ATOM      7  C   UNL     1      -3.932  12.780  20.377  0.00  0.00    +0.000 A 
ATOM      8  N   UNL     1      -4.660  11.914  19.574  0.00  0.00    +0.000 N 
ATOM      9  C   UNL     1      -5.846  11.601  20.235  0.00  0.00    +0.000 A 
ENDROOT
BRANCH   8  10
ATOM     10  C   UNL     1      -4.206  11.487  18.290  0.00  0.00    +0.000 A 
ATOM     11  C   UNL     1      -3.058  10.681  18.188  0.00  0.00    +0.000 A 
ATOM     12  C   UNL     1      -2.615  10.245  16.935  0.00  0.00    +0.000 A 
ATOM     13  C   UNL     1      -3.308  10.615  15.785  0.00  0.00    +0.000 A 
ATOM     14 CL   UNL     1      -2.777  10.056  14.247  0.00  0.00    +0.000 Cl
ATOM     15  C   UNL     1      -4.425  11.441  15.874  0.00  0.00    +0.000 A 
ATOM     16  C   UNL     1      -4.865  11.889  17.124  0.00  0.00    +0.000 A 
ENDBRANCH   8  10
BRANCH   6  17
ATOM     17  C   UNL     1      -4.316  14.156  22.513  0.00  0.00    +0.000 C 
ATOM     18  O   UNL     1      -3.190  14.970  22.109  0.00  0.00    +0.000 OA
ATOM     19  C   UNL     1      -2.293  15.121  23.240  0.00  0.00    +0.000 C 
ATOM     20  C   UNL     1      -3.045  14.607  24.464  0.00  0.00    +0.000 C 
ATOM     21  C   UNL     1      -3.967  13.550  23.878  0.00  0.00    +0.000 C 
BRANCH  20  22
ATOM     22  O   UNL     1      -3.858  15.635  25.057  0.00  0.00    +0.000 OA
ATOM     23  H   UNL     1      -4.369  16.072  24.349  0.00  0.00    +0.000 HD
ENDBRANCH  20  22
BRANCH  21  24
ATOM     24  O   UNL     1      -5.114  13.348  24.705  0.00  0.00    +0.000 OA
ATOM     25  H   UNL     1      -5.530  14.230  24.806  0.00  0.00    +0.000 HD
ENDBRANCH  21  24
BRANCH  19  26
ATOM     26  C   UNL     1      -1.002  14.351  22.962  0.00  0.00    +0.000 C 
BRANCH  26  27
ATOM     27  O   UNL     1       0.120  15.133  23.369  0.00  0.00    +0.000 OA
ATOM     28  H   UNL     1       0.900  14.560  23.231  0.00  0.00    +0.000 HD
ENDBRANCH  26  27
ENDBRANCH  19  26
ENDBRANCH   6  17
BRANCH   1  29
ATOM     29  N   UNL     1      -7.013   9.807  18.973  0.00  0.00    +0.000 N 
ATOM     30  H   UNL     1      -6.958  10.295  18.084  0.00  0.00    +0.000 HD
ATOM     31  H   UNL     1      -7.782   9.156  19.056  0.00  0.00    +0.000 HD
ENDBRANCH   1  29
TORSDOF 7
ENDMDL
MODEL 6
REMARK VINA RESULT:      -6.7      4.173      6.408
REMARK  Name = 
REMARK  7 active torsions:
REMARK  status: ('A' for Active; 'I' for Inactive)
REMARK    1  A    between atoms: N_1  and  C_2
REMARK    2  A    between atoms: C_7  and  C_8
REMARK    3  A    between atoms: C_10  and  C_11
REMARK    4  A    between atoms: C_11  and  O_12
REMARK    5  A    between atoms: C_13  and  O_14
REMARK    6  A    between atoms: C_15  and  O_16
REMARK    7  A    between atoms: N_18  and  C_19
REMARK                            x       y       z     vdW  Elec       q    Type
REMARK                         _______ _______ _______ _____ _____    ______ ____
ROOT
ATOM      1  C   UNL     1       6.986   5.118  14.771  0.00  0.00    +0.000 A 
ATOM      2  N   UNL     1       6.668   4.359  13.708  0.00  0.00    +0.000 NA
ATOM      3  C   UNL     1       5.599   3.556  13.781  0.00  0.00    +0.000 A 
ATOM      4  N   UNL     1       4.774   3.400  14.816  0.00  0.00    +0.000 NA
ATOM      5  C   UNL     1       5.097   4.157  15.886  0.00  0.00    +0.000 A 
ATOM      6  C   UNL     1       4.442   4.187  17.140  0.00  0.00    +0.000 A 
ATOM      7  C   UNL     1       5.164   5.070  17.918  0.00  0.00    +0.000 A 
ATOM      8  N   UNL     1       6.160   5.661  17.155  0.00  0.00    +0.000 N 
ATOM      9  C   UNL     1       6.168   5.052  15.902  0.00  0.00    +0.000 A 
ENDROOT
BRANCH   8  10
ATOM     10  C   UNL     1       6.976   6.726  17.643  0.00  0.00    +0.000 A 
ATOM     11  C   UNL     1       6.881   8.002  17.059  0.00  0.00    +0.000 A 
ATOM     12  C   UNL     1       7.664   9.056  17.541  0.00  0.00    +0.000 A 
ATOM     13  C   UNL     1       8.546   8.839  18.597  0.00  0.00    +0.000 A 
ATOM     14 CL   UNL     1       9.490  10.143  19.205  0.00  0.00    +0.000 Cl
ATOM     15  C   UNL     1       8.672   7.572  19.157  0.00  0.00    +0.000 A 
ATOM     16  C   UNL     1       7.899   6.513  18.671  0.00  0.00    +0.000 A 
ENDBRANCH   8  10
BRANCH   6  17
ATOM     17  C   UNL     1       3.204   3.450  17.546  0.00  0.00    +0.000 C 
ATOM     18  O   UNL     1       2.136   4.343  17.942  0.00  0.00    +0.000 OA
ATOM     19  C   UNL     1       1.507   3.817  19.139  0.00  0.00    +0.000 C 
ATOM     20  C   UNL     1       2.035   2.397  19.321  0.00  0.00    +0.000 C 
ATOM     21  C   UNL     1       3.422   2.467  18.703  0.00  0.00    +0.000 C 
BRANCH  20  22
ATOM     22  O   UNL     1       1.258   1.444  18.574  0.00  0.00    +0.000 OA
ATOM     23  H   UNL     1       0.451   1.235  19.083  0.00  0.00    +0.000 HD
ENDBRANCH  20  22
BRANCH  21  24
ATOM     24  O   UNL     1       3.859   1.181  18.263  0.00  0.00    +0.000 OA
ATOM     25  H   UNL     1       4.356   1.336  17.433  0.00  0.00    +0.000 HD
ENDBRANCH  21  24
BRANCH  19  26
ATOM     26  C   UNL     1       1.832   4.732  20.320  0.00  0.00    +0.000 C 
BRANCH  26  27
ATOM     27  O   UNL     1       1.965   3.954  21.509  0.00  0.00    +0.000 OA
ATOM     28  H   UNL     1       2.829   4.208  21.889  0.00  0.00    +0.000 HD
ENDBRANCH  26  27
ENDBRANCH  19  26
ENDBRANCH   6  17
BRANCH   1  29
ATOM     29  N   UNL     1       8.145   5.863  14.634  0.00  0.00    +0.000 N 
ATOM     30  H   UNL     1       7.996   6.601  13.952  0.00  0.00    +0.000 HD
ATOM     31  H   UNL     1       8.987   5.321  14.499  0.00  0.00    +0.000 HD
ENDBRANCH   1  29
TORSDOF 7
ENDMDL
MODEL 7
REMARK VINA RESULT:      -6.6      4.662      7.297
REMARK  Name = 
REMARK  7 active torsions:
REMARK  status: ('A' for Active; 'I' for Inactive)
REMARK    1  A    between atoms: N_1  and  C_2
REMARK    2  A    between atoms: C_7  and  C_8
REMARK    3  A    between atoms: C_10  and  C_11
REMARK    4  A    between atoms: C_11  and  O_12
REMARK    5  A    between atoms: C_13  and  O_14
REMARK    6  A    between atoms: C_15  and  O_16
REMARK    7  A    between atoms: N_18  and  C_19
REMARK                            x       y       z     vdW  Elec       q    Type
REMARK                         _______ _______ _______ _____ _____    ______ ____
ROOT
ATOM      1  C   UNL     1       2.155   6.538  20.443  0.00  0.00    +0.000 A 
ATOM      2  N   UNL     1       1.378   6.787  21.512  0.00  0.00    +0.000 NA
ATOM      3  C   UNL     1       0.660   7.917  21.542  0.00  0.00    +0.000 A 
ATOM      4  N   UNL     1       0.614   8.871  20.612  0.00  0.00    +0.000 NA
ATOM      5  C   UNL     1       1.399   8.625  19.542  0.00  0.00    +0.000 A 
ATOM      6  C   UNL     1       1.593   9.458  18.416  0.00  0.00    +0.000 A 
ATOM      7  C   UNL     1       2.515   8.805  17.622  0.00  0.00    +0.000 A 
ATOM      8  N   UNL     1       2.802   7.560  18.164  0.00  0.00    +0.000 N 
ATOM      9  C   UNL     1       2.159   7.463  19.395  0.00  0.00    +0.000 A 
ENDROOT
BRANCH   8  10
ATOM     10  C   UNL     1       3.607   6.593  17.490  0.00  0.00    +0.000 A 
ATOM     11  C   UNL     1       4.734   7.011  16.759  0.00  0.00    +0.000 A 
ATOM     12  C   UNL     1       5.539   6.069  16.110  0.00  0.00    +0.000 A 
ATOM     13  C   UNL     1       5.220   4.715  16.181  0.00  0.00    +0.000 A 
ATOM     14 CL   UNL     1       6.225   3.556  15.402  0.00  0.00    +0.000 Cl
ATOM     15  C   UNL     1       4.087   4.297  16.873  0.00  0.00    +0.000 A 
ATOM     16  C   UNL     1       3.273   5.235  17.514  0.00  0.00    +0.000 A 
ENDBRANCH   8  10
BRANCH   6  17
ATOM     17  C   UNL     1       0.924  10.762  18.113  0.00  0.00    +0.000 C 
ATOM     18  O   UNL     1       1.417  11.840  18.945  0.00  0.00    +0.000 OA
ATOM     19  C   UNL     1       0.288  12.633  19.397  0.00  0.00    +0.000 C 
ATOM     20  C   UNL     1      -0.918  12.182  18.580  0.00  0.00    +0.000 C 
ATOM     21  C   UNL     1      -0.600  10.726  18.278  0.00  0.00    +0.000 C 
BRANCH  20  22
ATOM     22  O   UNL     1      -1.006  12.891  17.331  0.00  0.00    +0.000 OA
ATOM     23  H   UNL     1      -0.137  13.293  17.141  0.00  0.00    +0.000 HD
ENDBRANCH  20  22
BRANCH  21  24
ATOM     24  O   UNL     1      -1.276  10.282  17.101  0.00  0.00    +0.000 OA
ATOM     25  H   UNL     1      -2.020   9.726  17.412  0.00  0.00    +0.000 HD
ENDBRANCH  21  24
BRANCH  19  26
ATOM     26  C   UNL     1       0.104  12.429  20.901  0.00  0.00    +0.000 C 
BRANCH  26  27
ATOM     27  O   UNL     1       1.220  11.714  21.429  0.00  0.00    +0.000 OA
ATOM     28  H   UNL     1       0.882  11.255  22.224  0.00  0.00    +0.000 HD
ENDBRANCH  26  27
ENDBRANCH  19  26
ENDBRANCH   6  17
BRANCH   1  29
ATOM     29  N   UNL     1       2.915   5.384  20.527  0.00  0.00    +0.000 N 
ATOM     30  H   UNL     1       3.323   5.179  19.621  0.00  0.00    +0.000 HD
ATOM     31  H   UNL     1       2.455   4.603  20.975  0.00  0.00    +0.000 HD
ENDBRANCH   1  29
TORSDOF 7
ENDMDL
MODEL 8
REMARK VINA RESULT:      -6.6      0.864      1.297
REMARK  Name = 
REMARK  7 active torsions:
REMARK  status: ('A' for Active; 'I' for Inactive)
REMARK    1  A    between atoms: N_1  and  C_2
REMARK    2  A    between atoms: C_7  and  C_8
REMARK    3  A    between atoms: C_10  and  C_11
REMARK    4  A    between atoms: C_11  and  O_12
REMARK    5  A    between atoms: C_13  and  O_14
REMARK    6  A    between atoms: C_15  and  O_16
REMARK    7  A    between atoms: N_18  and  C_19
REMARK                            x       y       z     vdW  Elec       q    Type
REMARK                         _______ _______ _______ _____ _____    ______ ____
ROOT
ATOM      1  C   UNL     1       1.413   4.212  19.953  0.00  0.00    +0.000 A 
ATOM      2  N   UNL     1       1.546   2.874  19.954  0.00  0.00    +0.000 NA
ATOM      3  C   UNL     1       2.620   2.328  19.371  0.00  0.00    +0.000 A 
ATOM      4  N   UNL     1       3.619   2.965  18.759  0.00  0.00    +0.000 NA
ATOM      5  C   UNL     1       3.483   4.308  18.752  0.00  0.00    +0.000 A 
ATOM      6  C   UNL     1       4.351   5.251  18.153  0.00  0.00    +0.000 A 
ATOM      7  C   UNL     1       3.769   6.484  18.368  0.00  0.00    +0.000 A 
ATOM      8  N   UNL     1       2.645   6.339  19.168  0.00  0.00    +0.000 N 
ATOM      9  C   UNL     1       2.421   4.978  19.362  0.00  0.00    +0.000 A 
ENDROOT
BRANCH   8  10
ATOM     10  C   UNL     1       1.917   7.453  19.684  0.00  0.00    +0.000 A 
ATOM     11  C   UNL     1       1.556   7.482  21.044  0.00  0.00    +0.000 A 
ATOM     12  C   UNL     1       0.857   8.578  21.561  0.00  0.00    +0.000 A 
ATOM     13  C   UNL     1       0.510   9.638  20.728  0.00  0.00    +0.000 A 
ATOM     14 CL   UNL     1      -0.328  10.995  21.373  0.00  0.00    +0.000 Cl
ATOM     15  C   UNL     1       0.831   9.601  19.375  0.00  0.00    +0.000 A 
ATOM     16  C   UNL     1       1.521   8.503  18.850  0.00  0.00    +0.000 A 
ENDBRANCH   8  10
BRANCH   6  17
ATOM     17  C   UNL     1       5.651   4.989  17.458  0.00  0.00    +0.000 C 
ATOM     18  O   UNL     1       6.788   5.446  18.227  0.00  0.00    +0.000 OA
ATOM     19  C   UNL     1       7.717   6.114  17.335  0.00  0.00    +0.000 C 
ATOM     20  C   UNL     1       7.255   5.807  15.914  0.00  0.00    +0.000 C 
ATOM     21  C   UNL     1       5.752   5.641  16.073  0.00  0.00    +0.000 C 
BRANCH  20  22
ATOM     22  O   UNL     1       7.797   4.563  15.438  0.00  0.00    +0.000 OA
ATOM     23  H   UNL     1       7.303   3.830  15.854  0.00  0.00    +0.000 HD
ENDBRANCH  20  22
BRANCH  21  24
ATOM     24  O   UNL     1       5.209   4.825  15.035  0.00  0.00    +0.000 OA
ATOM     25  H   UNL     1       4.508   5.363  14.610  0.00  0.00    +0.000 HD
ENDBRANCH  21  24
BRANCH  19  26
ATOM     26  C   UNL     1       7.728   7.610  17.652  0.00  0.00    +0.000 C 
BRANCH  26  27
ATOM     27  O   UNL     1       8.568   7.856  18.779  0.00  0.00    +0.000 OA
ATOM     28  H   UNL     1       8.144   7.388  19.525  0.00  0.00    +0.000 HD
ENDBRANCH  26  27
ENDBRANCH  19  26
ENDBRANCH   6  17
BRANCH   1  29
ATOM     29  N   UNL     1       0.240   4.685  20.516  0.00  0.00    +0.000 N 
ATOM     30  H   UNL     1       0.459   5.316  21.281  0.00  0.00    +0.000 HD
ATOM     31  H   UNL     1      -0.446   3.974  20.732  0.00  0.00    +0.000 HD
ENDBRANCH   1  29
TORSDOF 7
ENDMDL
MODEL 9
REMARK VINA RESULT:      -6.6      0.999      1.090
REMARK  Name = 
REMARK  7 active torsions:
REMARK  status: ('A' for Active; 'I' for Inactive)
REMARK    1  A    between atoms: N_1  and  C_2
REMARK    2  A    between atoms: C_7  and  C_8
REMARK    3  A    between atoms: C_10  and  C_11
REMARK    4  A    between atoms: C_11  and  O_12
REMARK    5  A    between atoms: C_13  and  O_14
REMARK    6  A    between atoms: C_15  and  O_16
REMARK    7  A    between atoms: N_18  and  C_19
REMARK                            x       y       z     vdW  Elec       q    Type
REMARK                         _______ _______ _______ _____ _____    ______ ____
ROOT
ATOM      1  C   UNL     1       1.482   5.336  20.520  0.00  0.00    +0.000 A 
ATOM      2  N   UNL     1       1.665   4.083  20.970  0.00  0.00    +0.000 NA
ATOM      3  C   UNL     1       2.659   3.347  20.456  0.00  0.00    +0.000 A 
ATOM      4  N   UNL     1       3.528   3.710  19.512  0.00  0.00    +0.000 NA
ATOM      5  C   UNL     1       3.341   4.966  19.056  0.00  0.00    +0.000 A 
ATOM      6  C   UNL     1       4.072   5.622  18.037  0.00  0.00    +0.000 A 
ATOM      7  C   UNL     1       3.482   6.862  17.894  0.00  0.00    +0.000 A 
ATOM      8  N   UNL     1       2.498   7.029  18.858  0.00  0.00    +0.000 N 
ATOM      9  C   UNL     1       2.359   5.827  19.549  0.00  0.00    +0.000 A 
ENDROOT
BRANCH   8  10
ATOM     10  C   UNL     1       1.814   8.266  19.057  0.00  0.00    +0.000 A 
ATOM     11  C   UNL     1       1.459   9.053  17.947  0.00  0.00    +0.000 A 
ATOM     12  C   UNL     1       0.774  10.259  18.132  0.00  0.00    +0.000 A 
ATOM     13  C   UNL     1       0.450  10.685  19.418  0.00  0.00    +0.000 A 
ATOM     14 CL   UNL     1      -0.414  12.155  19.641  0.00  0.00    +0.000 Cl
ATOM     15  C   UNL     1       0.830   9.929  20.523  0.00  0.00    +0.000 A 
ATOM     16  C   UNL     1       1.524   8.729  20.345  0.00  0.00    +0.000 A 
ENDBRANCH   8  10
BRANCH   6  17
ATOM     17  C   UNL     1       5.260   5.110  17.285  0.00  0.00    +0.000 C 
ATOM     18  O   UNL     1       6.190   4.404  18.141  0.00  0.00    +0.000 OA
ATOM     19  C   UNL     1       7.540   4.812  17.798  0.00  0.00    +0.000 C 
ATOM     20  C   UNL     1       7.442   5.591  16.490  0.00  0.00    +0.000 C 
ATOM     21  C   UNL     1       6.053   6.205  16.563  0.00  0.00    +0.000 C 
BRANCH  20  22
ATOM     22  O   UNL     1       7.488   4.717  15.348  0.00  0.00    +0.000 OA
ATOM     23  H   UNL     1       8.374   4.779  14.945  0.00  0.00    +0.000 HD
ENDBRANCH  20  22
BRANCH  21  24
ATOM     24  O   UNL     1       5.544   6.491  15.259  0.00  0.00    +0.000 OA
ATOM     25  H   UNL     1       6.198   6.121  14.630  0.00  0.00    +0.000 HD
ENDBRANCH  21  24
BRANCH  19  26
ATOM     26  C   UNL     1       8.121   5.639  18.946  0.00  0.00    +0.000 C 
BRANCH  26  27
ATOM     27  O   UNL     1       7.352   5.424  20.129  0.00  0.00    +0.000 OA
ATOM     28  H   UNL     1       7.962   4.994  20.760  0.00  0.00    +0.000 HD
ENDBRANCH  26  27
ENDBRANCH  19  26
ENDBRANCH   6  17
BRANCH   1  29
ATOM     29  N   UNL     1       0.390   5.998  21.056  0.00  0.00    +0.000 N 
ATOM     30  H   UNL     1       0.707   6.685  21.733  0.00  0.00    +0.000 HD
ATOM     31  H   UNL     1      -0.357   5.397  21.376  0.00  0.00    +0.000 HD
ENDBRANCH   1  29
TORSDOF 7
ENDMDL
