MODEL 1
REMARK VINA RESULT:      -7.3      0.000      0.000
REMARK  Name = 
REMARK  12 active torsions:
REMARK  status: ('A' for Active; 'I' for Inactive)
REMARK    1  A    between atoms: C_1  and  C_2
REMARK    2  A    between atoms: C_2  and  C_3
REMARK    3  A    between atoms: C_3  and  C_4
REMARK    4  A    between atoms: C_4  and  N_5
REMARK    5  A    between atoms: C_6  and  C_8
REMARK    6  A    between atoms: C_12  and  O_13
REMARK    7  A    between atoms: O_13  and  C_14
REMARK    8  A    between atoms: C_14  and  C_15
REMARK    9  A    between atoms: N_16  and  C_17
REMARK   10  A    between atoms: C_17  and  C_18
REMARK   11  A    between atoms: C_18  and  C_19
REMARK   12  A    between atoms: C_19  and  C_20
REMARK                            x       y       z     vdW  Elec       q    Type
REMARK                         _______ _______ _______ _____ _____    ______ ____
ROOT
ATOM      1  C   UNL     1       5.358   5.285  15.747  0.00  0.00    +0.000 A 
ATOM      2  C   UNL     1       5.182   6.701  15.842  0.00  0.00    +0.000 A 
ATOM      3  C   UNL     1       4.391   7.334  16.819  0.00  0.00    +0.000 A 
ATOM      4  C   UNL     1       3.803   6.422  17.699  0.00  0.00    +0.000 A 
ATOM      5  C   UNL     1       2.975   6.686  18.773  0.00  0.00    +0.000 A 
ATOM      6  N   UNL     1       2.706   5.435  19.295  0.00  0.00    +0.000 N 
ATOM      7  N   UNL     1       3.262   4.406  18.618  0.00  0.00    +0.000 NA
ATOM      8  C   UNL     1       3.965   4.985  17.636  0.00  0.00    +0.000 A 
ATOM      9  C   UNL     1       4.760   4.375  16.651  0.00  0.00    +0.000 A 
ENDROOT
BRANCH   1  11
ATOM     10  N   UNL     1       5.647   3.916  13.762  0.00  0.00    +0.000 N 
ATOM     11  C   UNL     1       6.231   4.791  14.652  0.00  0.00    +0.000 C 
ATOM     12  O   UNL     1       7.386   5.182  14.565  0.00  0.00    +0.000 OA
ATOM     13  H   UNL     1       4.666   3.685  13.845  0.00  0.00    +0.000 HD
BRANCH  10  14
ATOM     14  C   UNL     1       6.389   3.323  12.667  0.00  0.00    +0.000 C 
BRANCH  14  15
ATOM     15  C   UNL     1       5.609   3.351  11.353  0.00  0.00    +0.000 C 
BRANCH  15  17
ATOM     16  C   UNL     1       3.328   3.641  10.308  0.00  0.00    +0.000 C 
ATOM     17  C   UNL     1       4.096   3.291  11.573  0.00  0.00    +0.000 C 
ENDBRANCH  15  17
ENDBRANCH  14  15
ENDBRANCH  10  14
ENDBRANCH   1  11
BRANCH   5  18
ATOM     18  O   UNL     1       2.435   7.765  19.357  0.00  0.00    +0.000 OA
BRANCH  18  19
ATOM     19  C   UNL     1       1.385   8.433  18.667  0.00  0.00    +0.000 C 
ATOM     20  C   UNL     1       1.953   9.637  17.942  0.00  0.00    +0.000 C 
ENDBRANCH  18  19
ENDBRANCH   5  18
BRANCH   6  21
ATOM     21  C   UNL     1       1.849   5.132  20.429  0.00  0.00    +0.000 C 
BRANCH  21  22
ATOM     22  C   UNL     1       0.824   4.021  20.182  0.00  0.00    +0.000 C 
BRANCH  22  23
ATOM     23  C   UNL     1       1.240   2.648  20.712  0.00  0.00    +0.000 C 
ATOM     24  C   UNL     1       2.320   2.799  21.776  0.00  0.00    +0.000 C 
ENDBRANCH  22  23
ENDBRANCH  21  22
ENDBRANCH   6  21
TORSDOF 9
ENDMDL
MODEL 2
REMARK VINA RESULT:      -7.2      1.202      1.489
REMARK  Name = 
REMARK  12 active torsions:
REMARK  status: ('A' for Active; 'I' for Inactive)
REMARK    1  A    between atoms: C_1  and  C_2
REMARK    2  A    between atoms: C_2  and  C_3
REMARK    3  A    between atoms: C_3  and  C_4
REMARK    4  A    between atoms: C_4  and  N_5
REMARK    5  A    between atoms: C_6  and  C_8
REMARK    6  A    between atoms: C_12  and  O_13
REMARK    7  A    between atoms: O_13  and  C_14
REMARK    8  A    between atoms: C_14  and  C_15
REMARK    9  A    between atoms: N_16  and  C_17
REMARK   10  A    between atoms: C_17  and  C_18
REMARK   11  A    between atoms: C_18  and  C_19
REMARK   12  A    between atoms: C_19  and  C_20
REMARK                            x       y       z     vdW  Elec       q    Type
REMARK                         _______ _______ _______ _____ _____    ______ ____
ROOT
ATOM      1  C   UNL     1       5.442   5.449  16.669  0.00  0.00    +0.000 A 
ATOM      2  C   UNL     1       4.641   6.634  16.672  0.00  0.00    +0.000 A 
ATOM      3  C   UNL     1       3.640   6.906  17.623  0.00  0.00    +0.000 A 
ATOM      4  C   UNL     1       3.523   5.891  18.577  0.00  0.00    +0.000 A 
ATOM      5  C   UNL     1       2.655   5.827  19.650  0.00  0.00    +0.000 A 
ATOM      6  N   UNL     1       2.980   4.631  20.262  0.00  0.00    +0.000 N 
ATOM      7  N   UNL     1       3.949   3.921  19.643  0.00  0.00    +0.000 NA
ATOM      8  C   UNL     1       4.322   4.684  18.608  0.00  0.00    +0.000 A 
ATOM      9  C   UNL     1       5.315   4.434  17.647  0.00  0.00    +0.000 A 
ENDROOT
BRANCH   1  11
ATOM     10  N   UNL     1       6.071   4.608  14.479  0.00  0.00    +0.000 N 
ATOM     11  C   UNL     1       6.454   5.329  15.589  0.00  0.00    +0.000 C 
ATOM     12  O   UNL     1       7.543   5.874  15.704  0.00  0.00    +0.000 OA
ATOM     13  H   UNL     1       5.131   4.240  14.410  0.00  0.00    +0.000 HD
BRANCH  10  14
ATOM     14  C   UNL     1       6.968   4.375  13.365  0.00  0.00    +0.000 C 
BRANCH  14  15
ATOM     15  C   UNL     1       6.345   3.482  12.293  0.00  0.00    +0.000 C 
BRANCH  15  17
ATOM     16  C   UNL     1       4.145   3.293  11.066  0.00  0.00    +0.000 C 
ATOM     17  C   UNL     1       4.823   3.389  12.424  0.00  0.00    +0.000 C 
ENDBRANCH  15  17
ENDBRANCH  14  15
ENDBRANCH  10  14
ENDBRANCH   1  11
BRANCH   5  18
ATOM     18  O   UNL     1       1.678   6.581  20.172  0.00  0.00    +0.000 OA
BRANCH  18  19
ATOM     19  C   UNL     1       2.007   7.909  20.564  0.00  0.00    +0.000 C 
ATOM     20  C   UNL     1       1.203   8.887  19.729  0.00  0.00    +0.000 C 
ENDBRANCH  18  19
ENDBRANCH   5  18
BRANCH   6  21
ATOM     21  C   UNL     1       2.344   4.053  21.435  0.00  0.00    +0.000 C 
BRANCH  21  22
ATOM     22  C   UNL     1       1.380   2.900  21.141  0.00  0.00    +0.000 C 
BRANCH  22  23
ATOM     23  C   UNL     1       0.464   3.131  19.938  0.00  0.00    +0.000 C 
ATOM     24  C   UNL     1       0.905   2.262  18.767  0.00  0.00    +0.000 C 
ENDBRANCH  22  23
ENDBRANCH  21  22
ENDBRANCH   6  21
TORSDOF 9
ENDMDL
MODEL 3
REMARK VINA RESULT:      -7.2      1.336      3.557
REMARK  Name = 
REMARK  12 active torsions:
REMARK  status: ('A' for Active; 'I' for Inactive)
REMARK    1  A    between atoms: C_1  and  C_2
REMARK    2  A    between atoms: C_2  and  C_3
REMARK    3  A    between atoms: C_3  and  C_4
REMARK    4  A    between atoms: C_4  and  N_5
REMARK    5  A    between atoms: C_6  and  C_8
REMARK    6  A    between atoms: C_12  and  O_13
REMARK    7  A    between atoms: O_13  and  C_14
REMARK    8  A    between atoms: C_14  and  C_15
REMARK    9  A    between atoms: N_16  and  C_17
REMARK   10  A    between atoms: C_17  and  C_18
REMARK   11  A    between atoms: C_18  and  C_19
REMARK   12  A    between atoms: C_19  and  C_20
REMARK                            x       y       z     vdW  Elec       q    Type
REMARK                         _______ _______ _______ _____ _____    ______ ____
ROOT
ATOM      1  C   UNL     1       5.187   5.099  15.953  0.00  0.00    +0.000 A 
ATOM      2  C   UNL     1       4.617   3.968  16.616  0.00  0.00    +0.000 A 
ATOM      3  C   UNL     1       3.687   4.057  17.669  0.00  0.00    +0.000 A 
ATOM      4  C   UNL     1       3.371   5.380  17.989  0.00  0.00    +0.000 A 
ATOM      5  C   UNL     1       2.500   5.838  18.959  0.00  0.00    +0.000 A 
ATOM      6  N   UNL     1       2.558   7.213  18.828  0.00  0.00    +0.000 N 
ATOM      7  N   UNL     1       3.420   7.658  17.887  0.00  0.00    +0.000 NA
ATOM      8  C   UNL     1       3.924   6.547  17.334  0.00  0.00    +0.000 A 
ATOM      9  C   UNL     1       4.851   6.434  16.286  0.00  0.00    +0.000 A 
ENDROOT
BRANCH   1  11
ATOM     10  N   UNL     1       5.665   4.089  13.798  0.00  0.00    +0.000 N 
ATOM     11  C   UNL     1       6.152   4.818  14.861  0.00  0.00    +0.000 C 
ATOM     12  O   UNL     1       7.296   5.247  14.926  0.00  0.00    +0.000 OA
ATOM     13  H   UNL     1       4.690   3.823  13.767  0.00  0.00    +0.000 HD
BRANCH  10  14
ATOM     14  C   UNL     1       6.504   3.707  12.678  0.00  0.00    +0.000 C 
BRANCH  14  15
ATOM     15  C   UNL     1       5.733   2.925  11.615  0.00  0.00    +0.000 C 
BRANCH  15  17
ATOM     16  C   UNL     1       3.667   3.628  10.342  0.00  0.00    +0.000 C 
ATOM     17  C   UNL     1       4.225   3.178  11.684  0.00  0.00    +0.000 C 
ENDBRANCH  15  17
ENDBRANCH  14  15
ENDBRANCH  10  14
ENDBRANCH   1  11
BRANCH   5  18
ATOM     18  O   UNL     1       1.700   5.306  19.893  0.00  0.00    +0.000 OA
BRANCH  18  19
ATOM     19  C   UNL     1       2.316   4.712  21.029  0.00  0.00    +0.000 C 
ATOM     20  C   UNL     1       1.851   3.274  21.154  0.00  0.00    +0.000 C 
ENDBRANCH  18  19
ENDBRANCH   5  18
BRANCH   6  21
ATOM     21  C   UNL     1       1.850   8.193  19.635  0.00  0.00    +0.000 C 
BRANCH  21  22
ATOM     22  C   UNL     1       1.383   9.436  18.873  0.00  0.00    +0.000 C 
BRANCH  22  23
ATOM     23  C   UNL     1       0.012   9.963  19.300  0.00  0.00    +0.000 C 
ATOM     24  C   UNL     1       0.136  10.768  20.587  0.00  0.00    +0.000 C 
ENDBRANCH  22  23
ENDBRANCH  21  22
ENDBRANCH   6  21
TORSDOF 9
ENDMDL
MODEL 4
REMARK VINA RESULT:      -7.1      1.655      3.556
REMARK  Name = 
REMARK  12 active torsions:
REMARK  status: ('A' for Active; 'I' for Inactive)
REMARK    1  A    between atoms: C_1  and  C_2
REMARK    2  A    between atoms: C_2  and  C_3
REMARK    3  A    between atoms: C_3  and  C_4
REMARK    4  A    between atoms: C_4  and  N_5
REMARK    5  A    between atoms: C_6  and  C_8
REMARK    6  A    between atoms: C_12  and  O_13
REMARK    7  A    between atoms: O_13  and  C_14
REMARK    8  A    between atoms: C_14  and  C_15
REMARK    9  A    between atoms: N_16  and  C_17
REMARK   10  A    between atoms: C_17  and  C_18
REMARK   11  A    between atoms: C_18  and  C_19
REMARK   12  A    between atoms: C_19  and  C_20
REMARK                            x       y       z     vdW  Elec       q    Type
REMARK                         _______ _______ _______ _____ _____    ______ ____
ROOT
ATOM      1  C   UNL     1       5.176   5.102  16.510  0.00  0.00    +0.000 A 
ATOM      2  C   UNL     1       4.444   3.874  16.464  0.00  0.00    +0.000 A 
ATOM      3  C   UNL     1       3.340   3.584  17.288  0.00  0.00    +0.000 A 
ATOM      4  C   UNL     1       3.028   4.638  18.150  0.00  0.00    +0.000 A 
ATOM      5  C   UNL     1       2.013   4.702  19.085  0.00  0.00    +0.000 A 
ATOM      6  N   UNL     1       2.153   5.962  19.635  0.00  0.00    +0.000 N 
ATOM      7  N   UNL     1       3.192   6.679  19.153  0.00  0.00    +0.000 NA
ATOM      8  C   UNL     1       3.742   5.895  18.217  0.00  0.00    +0.000 A 
ATOM      9  C   UNL     1       4.842   6.163  17.385  0.00  0.00    +0.000 A 
ENDROOT
BRANCH   1  11
ATOM     10  N   UNL     1       6.196   4.552  14.376  0.00  0.00    +0.000 N 
ATOM     11  C   UNL     1       6.313   5.238  15.565  0.00  0.00    +0.000 C 
ATOM     12  O   UNL     1       7.268   5.947  15.852  0.00  0.00    +0.000 OA
ATOM     13  H   UNL     1       5.350   4.040  14.165  0.00  0.00    +0.000 HD
BRANCH  10  14
ATOM     14  C   UNL     1       7.246   4.561  13.376  0.00  0.00    +0.000 C 
BRANCH  14  15
ATOM     15  C   UNL     1       6.750   4.092  12.008  0.00  0.00    +0.000 C 
BRANCH  15  17
ATOM     16  C   UNL     1       4.415   3.271  11.502  0.00  0.00    +0.000 C 
ATOM     17  C   UNL     1       5.765   2.926  12.114  0.00  0.00    +0.000 C 
ENDBRANCH  15  17
ENDBRANCH  14  15
ENDBRANCH  10  14
ENDBRANCH   1  11
BRANCH   5  18
ATOM     18  O   UNL     1       1.031   3.904  19.528  0.00  0.00    +0.000 OA
BRANCH  18  19
ATOM     19  C   UNL     1       1.404   2.660  20.109  0.00  0.00    +0.000 C 
ATOM     20  C   UNL     1       1.703   2.868  21.581  0.00  0.00    +0.000 C 
ENDBRANCH  18  19
ENDBRANCH   5  18
BRANCH   6  21
ATOM     21  C   UNL     1       1.351   6.540  20.701  0.00  0.00    +0.000 C 
BRANCH  21  22
ATOM     22  C   UNL     1       1.488   8.057  20.859  0.00  0.00    +0.000 C 
BRANCH  22  23
ATOM     23  C   UNL     1       0.172   8.786  21.138  0.00  0.00    +0.000 C 
ATOM     24  C   UNL     1       0.378  10.293  21.053  0.00  0.00    +0.000 C 
ENDBRANCH  22  23
ENDBRANCH  21  22
ENDBRANCH   6  21
TORSDOF 9
ENDMDL
MODEL 5
REMARK VINA RESULT:      -7.0      1.484      3.605
REMARK  Name = 
REMARK  12 active torsions:
REMARK  status: ('A' for Active; 'I' for Inactive)
REMARK    1  A    between atoms: C_1  and  C_2
REMARK    2  A    between atoms: C_2  and  C_3
REMARK    3  A    between atoms: C_3  and  C_4
REMARK    4  A    between atoms: C_4  and  N_5
REMARK    5  A    between atoms: C_6  and  C_8
REMARK    6  A    between atoms: C_12  and  O_13
REMARK    7  A    between atoms: O_13  and  C_14
REMARK    8  A    between atoms: C_14  and  C_15
REMARK    9  A    between atoms: N_16  and  C_17
REMARK   10  A    between atoms: C_17  and  C_18
REMARK   11  A    between atoms: C_18  and  C_19
REMARK   12  A    between atoms: C_19  and  C_20
REMARK                            x       y       z     vdW  Elec       q    Type
REMARK                         _______ _______ _______ _____ _____    ______ ____
ROOT
ATOM      1  C   UNL     1       5.310   5.195  16.314  0.00  0.00    +0.000 A 
ATOM      2  C   UNL     1       5.049   4.092  17.187  0.00  0.00    +0.000 A 
ATOM      3  C   UNL     1       4.214   4.163  18.318  0.00  0.00    +0.000 A 
ATOM      4  C   UNL     1       3.656   5.432  18.488  0.00  0.00    +0.000 A 
ATOM      5  C   UNL     1       2.793   5.859  19.481  0.00  0.00    +0.000 A 
ATOM      6  N   UNL     1       2.550   7.180  19.158  0.00  0.00    +0.000 N 
ATOM      7  N   UNL     1       3.215   7.631  18.071  0.00  0.00    +0.000 NA
ATOM      8  C   UNL     1       3.892   6.567  17.621  0.00  0.00    +0.000 A 
ATOM      9  C   UNL     1       4.730   6.473  16.497  0.00  0.00    +0.000 A 
ENDROOT
BRANCH   1  11
ATOM     10  N   UNL     1       5.720   4.116  14.178  0.00  0.00    +0.000 N 
ATOM     11  C   UNL     1       6.215   4.938  15.166  0.00  0.00    +0.000 C 
ATOM     12  O   UNL     1       7.318   5.466  15.125  0.00  0.00    +0.000 OA
ATOM     13  H   UNL     1       4.772   3.767  14.233  0.00  0.00    +0.000 HD
BRANCH  10  14
ATOM     14  C   UNL     1       6.507   3.747  13.017  0.00  0.00    +0.000 C 
BRANCH  14  15
ATOM     15  C   UNL     1       5.636   3.385  11.815  0.00  0.00    +0.000 C 
BRANCH  15  17
ATOM     16  C   UNL     1       6.956   1.460  10.849  0.00  0.00    +0.000 C 
ATOM     17  C   UNL     1       5.655   1.885  11.512  0.00  0.00    +0.000 C 
ENDBRANCH  15  17
ENDBRANCH  14  15
ENDBRANCH  10  14
ENDBRANCH   1  11
BRANCH   5  18
ATOM     18  O   UNL     1       2.206   5.334  20.565  0.00  0.00    +0.000 OA
BRANCH  18  19
ATOM     19  C   UNL     1       1.090   4.475  20.361  0.00  0.00    +0.000 C 
ATOM     20  C   UNL     1       1.423   3.093  20.890  0.00  0.00    +0.000 C 
ENDBRANCH  18  19
ENDBRANCH   5  18
BRANCH   6  21
ATOM     21  C   UNL     1       1.723   8.118  19.899  0.00  0.00    +0.000 C 
BRANCH  21  22
ATOM     22  C   UNL     1       1.222   9.315  19.086  0.00  0.00    +0.000 C 
BRANCH  22  23
ATOM     23  C   UNL     1       0.374  10.310  19.882  0.00  0.00    +0.000 C 
ATOM     24  C   UNL     1      -0.155   9.653  21.151  0.00  0.00    +0.000 C 
ENDBRANCH  22  23
ENDBRANCH  21  22
ENDBRANCH   6  21
TORSDOF 9
ENDMDL
MODEL 6
REMARK VINA RESULT:      -6.8      1.129      1.428
REMARK  Name = 
REMARK  12 active torsions:
REMARK  status: ('A' for Active; 'I' for Inactive)
REMARK    1  A    between atoms: C_1  and  C_2
REMARK    2  A    between atoms: C_2  and  C_3
REMARK    3  A    between atoms: C_3  and  C_4
REMARK    4  A    between atoms: C_4  and  N_5
REMARK    5  A    between atoms: C_6  and  C_8
REMARK    6  A    between atoms: C_12  and  O_13
REMARK    7  A    between atoms: O_13  and  C_14
REMARK    8  A    between atoms: C_14  and  C_15
REMARK    9  A    between atoms: N_16  and  C_17
REMARK   10  A    between atoms: C_17  and  C_18
REMARK   11  A    between atoms: C_18  and  C_19
REMARK   12  A    between atoms: C_19  and  C_20
REMARK                            x       y       z     vdW  Elec       q    Type
REMARK                         _______ _______ _______ _____ _____    ______ ____
ROOT
ATOM      1  C   UNL     1       5.718   4.912  15.708  0.00  0.00    +0.000 A 
ATOM      2  C   UNL     1       5.240   6.229  15.991  0.00  0.00    +0.000 A 
ATOM      3  C   UNL     1       4.534   6.577  17.158  0.00  0.00    +0.000 A 
ATOM      4  C   UNL     1       4.362   5.490  18.019  0.00  0.00    +0.000 A 
ATOM      5  C   UNL     1       3.725   5.466  19.246  0.00  0.00    +0.000 A 
ATOM      6  N   UNL     1       3.865   4.156  19.662  0.00  0.00    +0.000 N 
ATOM      7  N   UNL     1       4.500   3.347  18.786  0.00  0.00    +0.000 NA
ATOM      8  C   UNL     1       4.839   4.147  17.767  0.00  0.00    +0.000 A 
ATOM      9  C   UNL     1       5.541   3.823  16.595  0.00  0.00    +0.000 A 
ENDROOT
BRANCH   1  11
ATOM     10  N   UNL     1       5.855   3.883  13.512  0.00  0.00    +0.000 N 
ATOM     11  C   UNL     1       6.447   4.726  14.427  0.00  0.00    +0.000 C 
ATOM     12  O   UNL     1       7.494   5.325  14.225  0.00  0.00    +0.000 OA
ATOM     13  H   UNL     1       4.951   3.473  13.708  0.00  0.00    +0.000 HD
BRANCH  10  14
ATOM     14  C   UNL     1       6.471   3.578  12.236  0.00  0.00    +0.000 C 
BRANCH  14  15
ATOM     15  C   UNL     1       5.595   2.676  11.368  0.00  0.00    +0.000 C 
BRANCH  15  17
ATOM     16  C   UNL     1       3.609   3.789  10.273  0.00  0.00    +0.000 C 
ATOM     17  C   UNL     1       4.108   3.019  11.486  0.00  0.00    +0.000 C 
ENDBRANCH  15  17
ENDBRANCH  14  15
ENDBRANCH  10  14
ENDBRANCH   1  11
BRANCH   5  18
ATOM     18  O   UNL     1       3.076   6.335  20.034  0.00  0.00    +0.000 OA
BRANCH  18  19
ATOM     19  C   UNL     1       2.266   7.320  19.404  0.00  0.00    +0.000 C 
ATOM     20  C   UNL     1       1.578   8.153  20.467  0.00  0.00    +0.000 C 
ENDBRANCH  18  19
ENDBRANCH   5  18
BRANCH   6  21
ATOM     21  C   UNL     1       3.345   3.574  20.888  0.00  0.00    +0.000 C 
BRANCH  21  22
ATOM     22  C   UNL     1       2.349   2.429  20.684  0.00  0.00    +0.000 C 
BRANCH  22  23
ATOM     23  C   UNL     1       1.205   2.749  19.720  0.00  0.00    +0.000 C 
ATOM     24  C   UNL     1       0.513   4.041  20.135  0.00  0.00    +0.000 C 
ENDBRANCH  22  23
ENDBRANCH  21  22
ENDBRANCH   6  21
TORSDOF 9
ENDMDL
MODEL 7
REMARK VINA RESULT:      -6.8      0.787      1.295
REMARK  Name = 
REMARK  12 active torsions:
REMARK  status: ('A' for Active; 'I' for Inactive)
REMARK    1  A    between atoms: C_1  and  C_2
REMARK    2  A    between atoms: C_2  and  C_3
REMARK    3  A    between atoms: C_3  and  C_4
REMARK    4  A    between atoms: C_4  and  N_5
REMARK    5  A    between atoms: C_6  and  C_8
REMARK    6  A    between atoms: C_12  and  O_13
REMARK    7  A    between atoms: O_13  and  C_14
REMARK    8  A    between atoms: C_14  and  C_15
REMARK    9  A    between atoms: N_16  and  C_17
REMARK   10  A    between atoms: C_17  and  C_18
REMARK   11  A    between atoms: C_18  and  C_19
REMARK   12  A    between atoms: C_19  and  C_20
REMARK                            x       y       z     vdW  Elec       q    Type
REMARK                         _______ _______ _______ _____ _____    ______ ____
ROOT
ATOM      1  C   UNL     1       5.309   5.353  15.938  0.00  0.00    +0.000 A 
ATOM      2  C   UNL     1       5.043   6.758  15.969  0.00  0.00    +0.000 A 
ATOM      3  C   UNL     1       4.253   7.388  16.948  0.00  0.00    +0.000 A 
ATOM      4  C   UNL     1       3.767   6.488  17.900  0.00  0.00    +0.000 A 
ATOM      5  C   UNL     1       2.969   6.755  18.996  0.00  0.00    +0.000 A 
ATOM      6  N   UNL     1       2.807   5.519  19.592  0.00  0.00    +0.000 N 
ATOM      7  N   UNL     1       3.402   4.494  18.943  0.00  0.00    +0.000 NA
ATOM      8  C   UNL     1       4.022   5.064  17.902  0.00  0.00    +0.000 A 
ATOM      9  C   UNL     1       4.813   4.455  16.913  0.00  0.00    +0.000 A 
ENDROOT
BRANCH   1  11
ATOM     10  N   UNL     1       5.523   4.154  13.837  0.00  0.00    +0.000 N 
ATOM     11  C   UNL     1       6.166   4.859  14.830  0.00  0.00    +0.000 C 
ATOM     12  O   UNL     1       7.364   5.108  14.823  0.00  0.00    +0.000 OA
ATOM     13  H   UNL     1       4.518   4.042  13.861  0.00  0.00    +0.000 HD
BRANCH  10  14
ATOM     14  C   UNL     1       6.238   3.579  12.715  0.00  0.00    +0.000 C 
BRANCH  14  15
ATOM     15  C   UNL     1       5.314   2.815  11.766  0.00  0.00    +0.000 C 
BRANCH  15  17
ATOM     16  C   UNL     1       7.399   1.631  10.972  0.00  0.00    +0.000 C 
ATOM     17  C   UNL     1       5.921   1.490  11.302  0.00  0.00    +0.000 C 
ENDBRANCH  15  17
ENDBRANCH  14  15
ENDBRANCH  10  14
ENDBRANCH   1  11
BRANCH   5  18
ATOM     18  O   UNL     1       2.383   7.826  19.549  0.00  0.00    +0.000 OA
BRANCH  18  19
ATOM     19  C   UNL     1       1.307   8.430  18.840  0.00  0.00    +0.000 C 
ATOM     20  C   UNL     1       1.818   9.656  18.109  0.00  0.00    +0.000 C 
ENDBRANCH  18  19
ENDBRANCH   5  18
BRANCH   6  21
ATOM     21  C   UNL     1       2.022   5.222  20.779  0.00  0.00    +0.000 C 
BRANCH  21  22
ATOM     22  C   UNL     1       2.211   3.809  21.338  0.00  0.00    +0.000 C 
BRANCH  22  23
ATOM     23  C   UNL     1       1.050   2.854  21.051  0.00  0.00    +0.000 C 
ATOM     24  C   UNL     1       1.293   2.108  19.745  0.00  0.00    +0.000 C 
ENDBRANCH  22  23
ENDBRANCH  21  22
ENDBRANCH   6  21
TORSDOF 9
ENDMDL
MODEL 8
REMARK VINA RESULT:      -6.8      1.725      2.236
REMARK  Name = 
REMARK  12 active torsions:
REMARK  status: ('A' for Active; 'I' for Inactive)
REMARK    1  A    between atoms: C_1  and  C_2
REMARK    2  A    between atoms: C_2  and  C_3
REMARK    3  A    between atoms: C_3  and  C_4
REMARK    4  A    between atoms: C_4  and  N_5
REMARK    5  A    between atoms: C_6  and  C_8
REMARK    6  A    between atoms: C_12  and  O_13
REMARK    7  A    between atoms: O_13  and  C_14
REMARK    8  A    between atoms: C_14  and  C_15
REMARK    9  A    between atoms: N_16  and  C_17
REMARK   10  A    between atoms: C_17  and  C_18
REMARK   11  A    between atoms: C_18  and  C_19
REMARK   12  A    between atoms: C_19  and  C_20
REMARK                            x       y       z     vdW  Elec       q    Type
REMARK                         _______ _______ _______ _____ _____    ______ ____
ROOT
ATOM      1  C   UNL     1       6.045   4.806  15.356  0.00  0.00    +0.000 A 
ATOM      2  C   UNL     1       5.805   6.113  15.886  0.00  0.00    +0.000 A 
ATOM      3  C   UNL     1       5.142   6.359  17.103  0.00  0.00    +0.000 A 
ATOM      4  C   UNL     1       4.755   5.180  17.746  0.00  0.00    +0.000 A 
ATOM      5  C   UNL     1       4.093   5.045  18.952  0.00  0.00    +0.000 A 
ATOM      6  N   UNL     1       3.983   3.677  19.112  0.00  0.00    +0.000 N 
ATOM      7  N   UNL     1       4.484   2.943  18.095  0.00  0.00    +0.000 NA
ATOM      8  C   UNL     1       4.989   3.844  17.242  0.00  0.00    +0.000 A 
ATOM      9  C   UNL     1       5.652   3.622  16.024  0.00  0.00    +0.000 A 
ENDROOT
BRANCH   1  11
ATOM     10  N   UNL     1       6.256   3.841  13.138  0.00  0.00    +0.000 N 
ATOM     11  C   UNL     1       6.762   4.734  14.058  0.00  0.00    +0.000 C 
ATOM     12  O   UNL     1       7.724   5.459  13.846  0.00  0.00    +0.000 OA
ATOM     13  H   UNL     1       5.414   3.320  13.343  0.00  0.00    +0.000 HD
BRANCH  10  14
ATOM     14  C   UNL     1       6.876   3.635  11.844  0.00  0.00    +0.000 C 
BRANCH  14  15
ATOM     15  C   UNL     1       7.180   2.162  11.572  0.00  0.00    +0.000 C 
BRANCH  15  17
ATOM     16  C   UNL     1       6.161  -0.132  11.292  0.00  0.00    +0.000 C 
ATOM     17  C   UNL     1       5.927   1.368  11.199  0.00  0.00    +0.000 C 
ENDBRANCH  15  17
ENDBRANCH  14  15
ENDBRANCH  10  14
ENDBRANCH   1  11
BRANCH   5  18
ATOM     18  O   UNL     1       3.590   5.854  19.894  0.00  0.00    +0.000 OA
BRANCH  18  19
ATOM     19  C   UNL     1       2.506   6.700  19.528  0.00  0.00    +0.000 C 
ATOM     20  C   UNL     1       1.550   6.819  20.699  0.00  0.00    +0.000 C 
ENDBRANCH  18  19
ENDBRANCH   5  18
BRANCH   6  21
ATOM     21  C   UNL     1       3.335   2.980  20.212  0.00  0.00    +0.000 C 
BRANCH  21  22
ATOM     22  C   UNL     1       1.807   3.092  20.232  0.00  0.00    +0.000 C 
BRANCH  22  23
ATOM     23  C   UNL     1       1.118   2.561  18.974  0.00  0.00    +0.000 C 
ATOM     24  C   UNL     1       0.970   3.674  17.945  0.00  0.00    +0.000 C 
ENDBRANCH  22  23
ENDBRANCH  21  22
ENDBRANCH   6  21
TORSDOF 9
ENDMDL
MODEL 9
REMARK VINA RESULT:      -6.7      3.072      7.407
REMARK  Name = 
REMARK  12 active torsions:
REMARK  status: ('A' for Active; 'I' for Inactive)
REMARK    1  A    between atoms: C_1  and  C_2
REMARK    2  A    between atoms: C_2  and  C_3
REMARK    3  A    between atoms: C_3  and  C_4
REMARK    4  A    between atoms: C_4  and  N_5
REMARK    5  A    between atoms: C_6  and  C_8
REMARK    6  A    between atoms: C_12  and  O_13
REMARK    7  A    between atoms: O_13  and  C_14
REMARK    8  A    between atoms: C_14  and  C_15
REMARK    9  A    between atoms: N_16  and  C_17
REMARK   10  A    between atoms: C_17  and  C_18
REMARK   11  A    between atoms: C_18  and  C_19
REMARK   12  A    between atoms: C_19  and  C_20
REMARK                            x       y       z     vdW  Elec       q    Type
REMARK                         _______ _______ _______ _____ _____    ______ ____
ROOT
ATOM      1  C   UNL     1       1.924   7.574  19.801  0.00  0.00    +0.000 A 
ATOM      2  C   UNL     1       1.771   6.390  20.589  0.00  0.00    +0.000 A 
ATOM      3  C   UNL     1       2.364   5.153  20.276  0.00  0.00    +0.000 A 
ATOM      4  C   UNL     1       3.133   5.211  19.110  0.00  0.00    +0.000 A 
ATOM      5  C   UNL     1       3.854   4.195  18.513  0.00  0.00    +0.000 A 
ATOM      6  N   UNL     1       4.428   4.804  17.413  0.00  0.00    +0.000 N 
ATOM      7  N   UNL     1       4.099   6.104  17.247  0.00  0.00    +0.000 NA
ATOM      8  C   UNL     1       3.314   6.393  18.293  0.00  0.00    +0.000 A 
ATOM      9  C   UNL     1       2.712   7.618  18.626  0.00  0.00    +0.000 A 
ENDROOT
BRANCH   1  11
ATOM     10  N   UNL     1       0.808   9.674  19.311  0.00  0.00    +0.000 N 
ATOM     11  C   UNL     1       1.228   8.793  20.283  0.00  0.00    +0.000 C 
ATOM     12  O   UNL     1       1.035   8.956  21.480  0.00  0.00    +0.000 OA
ATOM     13  H   UNL     1       0.933   9.450  18.333  0.00  0.00    +0.000 HD
BRANCH  10  14
ATOM     14  C   UNL     1       0.150  10.924  19.637  0.00  0.00    +0.000 C 
BRANCH  14  15
ATOM     15  C   UNL     1      -1.221  11.049  18.973  0.00  0.00    +0.000 C 
BRANCH  15  17
ATOM     16  C   UNL     1      -2.820   9.761  17.502  0.00  0.00    +0.000 C 
ATOM     17  C   UNL     1      -1.367  10.130  17.759  0.00  0.00    +0.000 C 
ENDBRANCH  15  17
ENDBRANCH  14  15
ENDBRANCH  10  14
ENDBRANCH   1  11
BRANCH   5  18
ATOM     18  O   UNL     1       4.094   2.896  18.737  0.00  0.00    +0.000 OA
BRANCH  18  19
ATOM     19  C   UNL     1       3.219   1.949  18.134  0.00  0.00    +0.000 C 
ATOM     20  C   UNL     1       1.934   1.878  18.935  0.00  0.00    +0.000 C 
ENDBRANCH  18  19
ENDBRANCH   5  18
BRANCH   6  21
ATOM     21  C   UNL     1       5.272   4.173  16.412  0.00  0.00    +0.000 C 
BRANCH  21  22
ATOM     22  C   UNL     1       6.702   4.716  16.341  0.00  0.00    +0.000 C 
BRANCH  22  23
ATOM     23  C   UNL     1       7.478   4.628  17.657  0.00  0.00    +0.000 C 
ATOM     24  C   UNL     1       7.600   6.009  18.289  0.00  0.00    +0.000 C 
ENDBRANCH  22  23
ENDBRANCH  21  22
ENDBRANCH   6  21
TORSDOF 9
ENDMDL
