MODEL 1
REMARK VINA RESULT:     -10.0      0.000      0.000
REMARK  Name = 
REMARK  6 active torsions:
REMARK  status: ('A' for Active; 'I' for Inactive)
REMARK    1  A    between atoms: C_1  and  N_2
REMARK    2  A    between atoms: C_4  and  C_5
REMARK    3  A    between atoms: N_7  and  C_8
REMARK    4  A    between atoms: C_11  and  O_12
REMARK    5  A    between atoms: O_12  and  C_13
REMARK    6  A    between atoms: C_27  and  C_28
REMARK                            x       y       z     vdW  Elec       q    Type
REMARK                         _______ _______ _______ _____ _____    ______ ____
ROOT
ATOM      1  C   UNL     1       7.655   7.146  18.005  0.00  0.00    +0.000 C 
ATOM      2  O   UNL     1       8.383   6.836  18.926  0.00  0.00    +0.000 OA
ATOM      3  N   UNL     1       7.553   8.420  17.482  0.00  0.00    +0.000 N 
ATOM      4  H   UNL     1       6.908   8.584  16.710  0.00  0.00    +0.000 HD
ENDROOT
BRANCH   1   8
ATOM      5  C   UNL     1       6.939   4.483  13.937  0.00  0.00    +0.000 C 
ATOM      6  N   UNL     1       6.483   4.819  15.290  0.00  0.00    +0.000 N 
ATOM      7  C   UNL     1       7.158   5.759  16.061  0.00  0.00    +0.000 A 
ATOM      8  C   UNL     1       6.814   6.124  17.307  0.00  0.00    +0.000 A 
ATOM      9  C   UNL     1       5.620   5.461  17.899  0.00  0.00    +0.000 A 
ATOM     10  O   UNL     1       5.281   5.700  19.060  0.00  0.00    +0.000 OA
ATOM     11  C   UNL     1       4.856   4.491  17.051  0.00  0.00    +0.000 A 
ATOM     12  C   UNL     1       5.338   4.238  15.822  0.00  0.00    +0.000 A 
BRANCH  11  13
ATOM     13  C   UNL     1       3.632   3.858  17.558  0.00  0.00    +0.000 A 
ATOM     14  C   UNL     1       3.660   2.543  18.046  0.00  0.00    +0.000 A 
ATOM     15  C   UNL     1       2.507   1.972  18.588  0.00  0.00    +0.000 A 
ATOM     16  C   UNL     1       1.331   2.713  18.640  0.00  0.00    +0.000 A 
ATOM     17  F   UNL     1       0.230   2.168  19.173  0.00  0.00    +0.000 F 
ATOM     18  C   UNL     1       1.285   4.014  18.154  0.00  0.00    +0.000 A 
ATOM     19  C   UNL     1       2.436   4.588  17.610  0.00  0.00    +0.000 A 
ENDBRANCH  11  13
ENDBRANCH   1   8
BRANCH   3  20
ATOM     20  C   UNL     1       8.257   9.523  17.984  0.00  0.00    +0.000 A 
ATOM     21  C   UNL     1       9.060   9.405  19.118  0.00  0.00    +0.000 A 
ATOM     22  C   UNL     1       9.660  10.537  19.676  0.00  0.00    +0.000 A 
ATOM     23  C   UNL     1       9.473  11.793  19.096  0.00  0.00    +0.000 A 
ATOM     24  C   UNL     1       8.728  11.881  17.913  0.00  0.00    +0.000 A 
ATOM     25  F   UNL     1       8.554  13.048  17.272  0.00  0.00    +0.000 F 
ATOM     26  C   UNL     1       8.085  10.766  17.380  0.00  0.00    +0.000 A 
BRANCH  23  27
ATOM     27  O   UNL     1      10.091  12.836  19.750  0.00  0.00    +0.000 OA
BRANCH  27  28
ATOM     28  C   UNL     1      10.648  13.866  19.026  0.00  0.00    +0.000 A 
ATOM     29  C   UNL     1      11.789  13.721  18.230  0.00  0.00    +0.000 A 
ATOM     30  C   UNL     1      12.329  14.837  17.612  0.00  0.00    +0.000 A 
ATOM     31  N   UNL     1      11.804  16.079  17.635  0.00  0.00    +0.000 NA
ATOM     32  C   UNL     1      10.658  16.152  18.335  0.00  0.00    +0.000 A 
ATOM     33  N   UNL     1       9.909  17.286  18.477  0.00  0.00    +0.000 N 
ATOM     34  C   UNL     1       8.794  17.021  19.229  0.00  0.00    +0.000 A 
ATOM     35  C   UNL     1       8.847  15.693  19.603  0.00  0.00    +0.000 A 
ATOM     36  C   UNL     1      10.026  15.127  19.036  0.00  0.00    +0.000 A 
ATOM     37  H   UNL     1      10.162  18.173  18.063  0.00  0.00    +0.000 HD
ENDBRANCH  27  28
ENDBRANCH  23  27
ENDBRANCH   3  20
TORSDOF 5
ENDMDL
MODEL 2
REMARK VINA RESULT:      -9.9      7.939     10.348
REMARK  Name = 
REMARK  6 active torsions:
REMARK  status: ('A' for Active; 'I' for Inactive)
REMARK    1  A    between atoms: C_1  and  N_2
REMARK    2  A    between atoms: C_4  and  C_5
REMARK    3  A    between atoms: N_7  and  C_8
REMARK    4  A    between atoms: C_11  and  O_12
REMARK    5  A    between atoms: O_12  and  C_13
REMARK    6  A    between atoms: C_27  and  C_28
REMARK                            x       y       z     vdW  Elec       q    Type
REMARK                         _______ _______ _______ _____ _____    ______ ____
ROOT
ATOM      1  C   UNL     1       1.481   8.391  20.033  0.00  0.00    +0.000 C 
ATOM      2  O   UNL     1       1.188   9.141  19.124  0.00  0.00    +0.000 OA
ATOM      3  N   UNL     1       1.172   8.613  21.361  0.00  0.00    +0.000 N 
ATOM      4  H   UNL     1       1.467   7.927  22.055  0.00  0.00    +0.000 HD
ENDROOT
BRANCH   1   8
ATOM      5  C   UNL     1       2.150   3.717  21.395  0.00  0.00    +0.000 C 
ATOM      6  N   UNL     1       2.498   4.794  20.461  0.00  0.00    +0.000 N 
ATOM      7  C   UNL     1       1.929   6.057  20.581  0.00  0.00    +0.000 A 
ATOM      8  C   UNL     1       2.186   7.098  19.772  0.00  0.00    +0.000 A 
ATOM      9  C   UNL     1       3.150   6.867  18.661  0.00  0.00    +0.000 A 
ATOM     10  O   UNL     1       3.387   7.757  17.842  0.00  0.00    +0.000 OA
ATOM     11  C   UNL     1       3.808   5.526  18.563  0.00  0.00    +0.000 A 
ATOM     12  C   UNL     1       3.436   4.593  19.457  0.00  0.00    +0.000 A 
BRANCH  11  13
ATOM     13  C   UNL     1       4.817   5.262  17.529  0.00  0.00    +0.000 A 
ATOM     14  C   UNL     1       4.522   4.424  16.443  0.00  0.00    +0.000 A 
ATOM     15  C   UNL     1       5.464   4.232  15.429  0.00  0.00    +0.000 A 
ATOM     16  C   UNL     1       6.696   4.874  15.504  0.00  0.00    +0.000 A 
ATOM     17  F   UNL     1       7.591   4.699  14.525  0.00  0.00    +0.000 F 
ATOM     18  C   UNL     1       7.006   5.702  16.577  0.00  0.00    +0.000 A 
ATOM     19  C   UNL     1       6.067   5.895  17.592  0.00  0.00    +0.000 A 
ENDBRANCH  11  13
ENDBRANCH   1   8
BRANCH   3  20
ATOM     20  C   UNL     1       0.510   9.759  21.822  0.00  0.00    +0.000 A 
ATOM     21  C   UNL     1      -0.390   9.688  22.883  0.00  0.00    +0.000 A 
ATOM     22  C   UNL     1      -1.131  10.814  23.254  0.00  0.00    +0.000 A 
ATOM     23  C   UNL     1      -0.966  12.022  22.575  0.00  0.00    +0.000 A 
ATOM     24  C   UNL     1      -0.001  12.096  21.563  0.00  0.00    +0.000 A 
ATOM     25  F   UNL     1       0.250  13.240  20.906  0.00  0.00    +0.000 F 
ATOM     26  C   UNL     1       0.705  10.966  21.154  0.00  0.00    +0.000 A 
BRANCH  23  27
ATOM     27  O   UNL     1      -1.769  13.052  23.011  0.00  0.00    +0.000 OA
BRANCH  27  28
ATOM     28  C   UNL     1      -3.137  12.893  23.037  0.00  0.00    +0.000 A 
ATOM     29  C   UNL     1      -3.889  12.876  24.216  0.00  0.00    +0.000 A 
ATOM     30  C   UNL     1      -5.249  12.619  24.148  0.00  0.00    +0.000 A 
ATOM     31  N   UNL     1      -5.961  12.456  23.014  0.00  0.00    +0.000 NA
ATOM     32  C   UNL     1      -5.213  12.573  21.902  0.00  0.00    +0.000 A 
ATOM     33  N   UNL     1      -5.702  12.490  20.629  0.00  0.00    +0.000 N 
ATOM     34  C   UNL     1      -4.689  12.672  19.724  0.00  0.00    +0.000 A 
ATOM     35  C   UNL     1      -3.518  12.845  20.436  0.00  0.00    +0.000 A 
ATOM     36  C   UNL     1      -3.839  12.789  21.823  0.00  0.00    +0.000 A 
ATOM     37  H   UNL     1      -6.678  12.330  20.419  0.00  0.00    +0.000 HD
ENDBRANCH  27  28
ENDBRANCH  23  27
ENDBRANCH   3  20
TORSDOF 5
ENDMDL
MODEL 3
REMARK VINA RESULT:      -9.9      1.853      2.446
REMARK  Name = 
REMARK  6 active torsions:
REMARK  status: ('A' for Active; 'I' for Inactive)
REMARK    1  A    between atoms: C_1  and  N_2
REMARK    2  A    between atoms: C_4  and  C_5
REMARK    3  A    between atoms: N_7  and  C_8
REMARK    4  A    between atoms: C_11  and  O_12
REMARK    5  A    between atoms: O_12  and  C_13
REMARK    6  A    between atoms: C_27  and  C_28
REMARK                            x       y       z     vdW  Elec       q    Type
REMARK                         _______ _______ _______ _____ _____    ______ ____
ROOT
ATOM      1  C   UNL     1       7.644   7.120  18.002  0.00  0.00    +0.000 C 
ATOM      2  O   UNL     1       8.348   6.789  18.935  0.00  0.00    +0.000 OA
ATOM      3  N   UNL     1       7.575   8.400  17.489  0.00  0.00    +0.000 N 
ATOM      4  H   UNL     1       6.949   8.583  16.706  0.00  0.00    +0.000 HD
ENDROOT
BRANCH   1   8
ATOM      5  C   UNL     1       6.899   4.586  13.858  0.00  0.00    +0.000 C 
ATOM      6  N   UNL     1       6.453   4.879  15.224  0.00  0.00    +0.000 N 
ATOM      7  C   UNL     1       7.133   5.794  16.020  0.00  0.00    +0.000 A 
ATOM      8  C   UNL     1       6.799   6.120  17.279  0.00  0.00    +0.000 A 
ATOM      9  C   UNL     1       5.610   5.436  17.859  0.00  0.00    +0.000 A 
ATOM     10  O   UNL     1       5.281   5.638  19.030  0.00  0.00    +0.000 OA
ATOM     11  C   UNL     1       4.841   4.493  16.987  0.00  0.00    +0.000 A 
ATOM     12  C   UNL     1       5.313   4.280  15.747  0.00  0.00    +0.000 A 
BRANCH  11  13
ATOM     13  C   UNL     1       3.621   3.842  17.483  0.00  0.00    +0.000 A 
ATOM     14  C   UNL     1       3.648   2.503  17.901  0.00  0.00    +0.000 A 
ATOM     15  C   UNL     1       2.501   1.912  18.435  0.00  0.00    +0.000 A 
ATOM     16  C   UNL     1       1.332   2.657  18.547  0.00  0.00    +0.000 A 
ATOM     17  F   UNL     1       0.238   2.092  19.072  0.00  0.00    +0.000 F 
ATOM     18  C   UNL     1       1.287   3.983  18.132  0.00  0.00    +0.000 A 
ATOM     19  C   UNL     1       2.432   4.577  17.597  0.00  0.00    +0.000 A 
ENDBRANCH  11  13
ENDBRANCH   1   8
BRANCH   3  20
ATOM     20  C   UNL     1       8.290   9.485  18.015  0.00  0.00    +0.000 A 
ATOM     21  C   UNL     1       9.036   9.353  19.185  0.00  0.00    +0.000 A 
ATOM     22  C   UNL     1       9.645  10.471  19.762  0.00  0.00    +0.000 A 
ATOM     23  C   UNL     1       9.523  11.727  19.164  0.00  0.00    +0.000 A 
ATOM     24  C   UNL     1       8.835  11.827  17.948  0.00  0.00    +0.000 A 
ATOM     25  F   UNL     1       8.727  12.993  17.290  0.00  0.00    +0.000 F 
ATOM     26  C   UNL     1       8.184  10.728  17.394  0.00  0.00    +0.000 A 
BRANCH  23  27
ATOM     27  O   UNL     1      10.142  12.756  19.838  0.00  0.00    +0.000 OA
BRANCH  27  28
ATOM     28  C   UNL     1       9.385  13.732  20.447  0.00  0.00    +0.000 A 
ATOM     29  C   UNL     1       9.037  14.937  19.829  0.00  0.00    +0.000 A 
ATOM     30  C   UNL     1       8.350  15.896  20.554  0.00  0.00    +0.000 A 
ATOM     31  N   UNL     1       7.897  15.751  21.816  0.00  0.00    +0.000 NA
ATOM     32  C   UNL     1       8.173  14.543  22.338  0.00  0.00    +0.000 A 
ATOM     33  N   UNL     1       7.788  14.131  23.583  0.00  0.00    +0.000 N 
ATOM     34  C   UNL     1       8.207  12.845  23.803  0.00  0.00    +0.000 A 
ATOM     35  C   UNL     1       8.904  12.435  22.683  0.00  0.00    +0.000 A 
ATOM     36  C   UNL     1       8.885  13.504  21.741  0.00  0.00    +0.000 A 
ATOM     37  H   UNL     1       7.259  14.711  24.220  0.00  0.00    +0.000 HD
ENDBRANCH  27  28
ENDBRANCH  23  27
ENDBRANCH   3  20
TORSDOF 5
ENDMDL
MODEL 4
REMARK VINA RESULT:      -9.8      1.022      1.738
REMARK  Name = 
REMARK  6 active torsions:
REMARK  status: ('A' for Active; 'I' for Inactive)
REMARK    1  A    between atoms: C_1  and  N_2
REMARK    2  A    between atoms: C_4  and  C_5
REMARK    3  A    between atoms: N_7  and  C_8
REMARK    4  A    between atoms: C_11  and  O_12
REMARK    5  A    between atoms: O_12  and  C_13
REMARK    6  A    between atoms: C_27  and  C_28
REMARK                            x       y       z     vdW  Elec       q    Type
REMARK                         _______ _______ _______ _____ _____    ______ ____
ROOT
ATOM      1  C   UNL     1       7.658   7.063  18.000  0.00  0.00    +0.000 C 
ATOM      2  O   UNL     1       8.390   6.732  18.910  0.00  0.00    +0.000 OA
ATOM      3  N   UNL     1       7.564   8.346  17.499  0.00  0.00    +0.000 N 
ATOM      4  H   UNL     1       6.915   8.529  16.734  0.00  0.00    +0.000 HD
ENDROOT
BRANCH   1   8
ATOM      5  C   UNL     1       6.859   4.507  13.879  0.00  0.00    +0.000 C 
ATOM      6  N   UNL     1       6.430   4.809  15.249  0.00  0.00    +0.000 N 
ATOM      7  C   UNL     1       7.121   5.727  16.031  0.00  0.00    +0.000 A 
ATOM      8  C   UNL     1       6.803   6.061  17.292  0.00  0.00    +0.000 A 
ATOM      9  C   UNL     1       5.619   5.383  17.890  0.00  0.00    +0.000 A 
ATOM     10  O   UNL     1       5.304   5.593  19.063  0.00  0.00    +0.000 OA
ATOM     11  C   UNL     1       4.837   4.437  17.033  0.00  0.00    +0.000 A 
ATOM     12  C   UNL     1       5.295   4.215  15.789  0.00  0.00    +0.000 A 
BRANCH  11  13
ATOM     13  C   UNL     1       3.622   3.792  17.547  0.00  0.00    +0.000 A 
ATOM     14  C   UNL     1       3.678   2.500  18.091  0.00  0.00    +0.000 A 
ATOM     15  C   UNL     1       2.531   1.920  18.639  0.00  0.00    +0.000 A 
ATOM     16  C   UNL     1       1.335   2.630  18.640  0.00  0.00    +0.000 A 
ATOM     17  F   UNL     1       0.241   2.077  19.179  0.00  0.00    +0.000 F 
ATOM     18  C   UNL     1       1.262   3.908  18.099  0.00  0.00    +0.000 A 
ATOM     19  C   UNL     1       2.406   4.490  17.549  0.00  0.00    +0.000 A 
ENDBRANCH  11  13
ENDBRANCH   1   8
BRANCH   3  20
ATOM     20  C   UNL     1       8.283   9.434  18.013  0.00  0.00    +0.000 A 
ATOM     21  C   UNL     1       9.029   9.311  19.184  0.00  0.00    +0.000 A 
ATOM     22  C   UNL     1       9.643  10.433  19.749  0.00  0.00    +0.000 A 
ATOM     23  C   UNL     1       9.525  11.683  19.139  0.00  0.00    +0.000 A 
ATOM     24  C   UNL     1       8.837  11.773  17.922  0.00  0.00    +0.000 A 
ATOM     25  F   UNL     1       8.733  12.933  17.253  0.00  0.00    +0.000 F 
ATOM     26  C   UNL     1       8.181  10.670  17.379  0.00  0.00    +0.000 A 
BRANCH  23  27
ATOM     27  O   UNL     1      10.148  12.716  19.801  0.00  0.00    +0.000 OA
BRANCH  27  28
ATOM     28  C   UNL     1       9.403  13.760  20.303  0.00  0.00    +0.000 A 
ATOM     29  C   UNL     1       8.568  13.645  21.419  0.00  0.00    +0.000 A 
ATOM     30  C   UNL     1       7.787  14.725  21.795  0.00  0.00    +0.000 A 
ATOM     31  N   UNL     1       7.809  15.946  21.222  0.00  0.00    +0.000 NA
ATOM     32  C   UNL     1       8.694  16.038  20.213  0.00  0.00    +0.000 A 
ATOM     33  N   UNL     1       8.937  17.177  19.498  0.00  0.00    +0.000 N 
ATOM     34  C   UNL     1       9.906  16.943  18.558  0.00  0.00    +0.000 A 
ATOM     35  C   UNL     1      10.270  15.614  18.654  0.00  0.00    +0.000 A 
ATOM     36  C   UNL     1       9.510  15.029  19.707  0.00  0.00    +0.000 A 
ATOM     37  H   UNL     1       8.462  18.053  19.672  0.00  0.00    +0.000 HD
ENDBRANCH  27  28
ENDBRANCH  23  27
ENDBRANCH   3  20
TORSDOF 5
ENDMDL
MODEL 5
REMARK VINA RESULT:      -9.8      7.758     10.299
REMARK  Name = 
REMARK  6 active torsions:
REMARK  status: ('A' for Active; 'I' for Inactive)
REMARK    1  A    between atoms: C_1  and  N_2
REMARK    2  A    between atoms: C_4  and  C_5
REMARK    3  A    between atoms: N_7  and  C_8
REMARK    4  A    between atoms: C_11  and  O_12
REMARK    5  A    between atoms: O_12  and  C_13
REMARK    6  A    between atoms: C_27  and  C_28
REMARK                            x       y       z     vdW  Elec       q    Type
REMARK                         _______ _______ _______ _____ _____    ______ ____
ROOT
ATOM      1  C   UNL     1       1.426   7.748  20.459  0.00  0.00    +0.000 C 
ATOM      2  O   UNL     1       1.146   7.903  21.630  0.00  0.00    +0.000 OA
ATOM      3  N   UNL     1       1.088   8.628  19.450  0.00  0.00    +0.000 N 
ATOM      4  H   UNL     1       1.362   8.408  18.493  0.00  0.00    +0.000 HD
ENDROOT
BRANCH   1   8
ATOM      5  C   UNL     1       2.592   3.031  21.194  0.00  0.00    +0.000 C 
ATOM      6  N   UNL     1       2.785   4.240  20.387  0.00  0.00    +0.000 N 
ATOM      7  C   UNL     1       2.114   5.419  20.690  0.00  0.00    +0.000 A 
ATOM      8  C   UNL     1       2.228   6.569  20.006  0.00  0.00    +0.000 A 
ATOM      9  C   UNL     1       3.142   6.567  18.830  0.00  0.00    +0.000 A 
ATOM     10  O   UNL     1       3.249   7.567  18.118  0.00  0.00    +0.000 OA
ATOM     11  C   UNL     1       3.911   5.316  18.534  0.00  0.00    +0.000 A 
ATOM     12  C   UNL     1       3.678   4.252  19.321  0.00  0.00    +0.000 A 
BRANCH  11  13
ATOM     13  C   UNL     1       4.877   5.277  17.429  0.00  0.00    +0.000 A 
ATOM     14  C   UNL     1       6.132   5.889  17.559  0.00  0.00    +0.000 A 
ATOM     15  C   UNL     1       7.071   5.789  16.529  0.00  0.00    +0.000 A 
ATOM     16  C   UNL     1       6.753   5.081  15.375  0.00  0.00    +0.000 A 
ATOM     17  F   UNL     1       7.659   4.975  14.396  0.00  0.00    +0.000 F 
ATOM     18  C   UNL     1       5.511   4.474  15.229  0.00  0.00    +0.000 A 
ATOM     19  C   UNL     1       4.571   4.573  16.256  0.00  0.00    +0.000 A 
ENDBRANCH  11  13
ENDBRANCH   1   8
BRANCH   3  20
ATOM     20  C   UNL     1       0.343   9.797  19.658  0.00  0.00    +0.000 A 
ATOM     21  C   UNL     1       0.387  10.467  20.879  0.00  0.00    +0.000 A 
ATOM     22  C   UNL     1      -0.451  11.561  21.113  0.00  0.00    +0.000 A 
ATOM     23  C   UNL     1      -1.328  12.001  20.120  0.00  0.00    +0.000 A 
ATOM     24  C   UNL     1      -1.303  11.365  18.873  0.00  0.00    +0.000 A 
ATOM     25  F   UNL     1      -2.080  11.772  17.855  0.00  0.00    +0.000 F 
ATOM     26  C   UNL     1      -0.508  10.243  18.650  0.00  0.00    +0.000 A 
BRANCH  23  27
ATOM     27  O   UNL     1      -2.122  13.069  20.475  0.00  0.00    +0.000 OA
BRANCH  27  28
ATOM     28  C   UNL     1      -3.431  12.859  20.845  0.00  0.00    +0.000 A 
ATOM     29  C   UNL     1      -4.476  12.699  19.930  0.00  0.00    +0.000 A 
ATOM     30  C   UNL     1      -5.774  12.583  20.397  0.00  0.00    +0.000 A 
ATOM     31  N   UNL     1      -6.140  12.529  21.695  0.00  0.00    +0.000 NA
ATOM     32  C   UNL     1      -5.094  12.593  22.538  0.00  0.00    +0.000 A 
ATOM     33  N   UNL     1      -5.192  12.518  23.899  0.00  0.00    +0.000 N 
ATOM     34  C   UNL     1      -3.946  12.594  24.465  0.00  0.00    +0.000 A 
ATOM     35  C   UNL     1      -3.031  12.753  23.442  0.00  0.00    +0.000 A 
ATOM     36  C   UNL     1      -3.749  12.749  22.211  0.00  0.00    +0.000 A 
ATOM     37  H   UNL     1      -6.071  12.409  24.386  0.00  0.00    +0.000 HD
ENDBRANCH  27  28
ENDBRANCH  23  27
ENDBRANCH   3  20
TORSDOF 5
ENDMDL
MODEL 6
REMARK VINA RESULT:      -9.8      7.615     10.091
REMARK  Name = 
REMARK  6 active torsions:
REMARK  status: ('A' for Active; 'I' for Inactive)
REMARK    1  A    between atoms: C_1  and  N_2
REMARK    2  A    between atoms: C_4  and  C_5
REMARK    3  A    between atoms: N_7  and  C_8
REMARK    4  A    between atoms: C_11  and  O_12
REMARK    5  A    between atoms: O_12  and  C_13
REMARK    6  A    between atoms: C_27  and  C_28
REMARK                            x       y       z     vdW  Elec       q    Type
REMARK                         _______ _______ _______ _____ _____    ______ ____
ROOT
ATOM      1  C   UNL     1       1.452   7.497  20.478  0.00  0.00    +0.000 C 
ATOM      2  O   UNL     1       0.935   7.525  21.577  0.00  0.00    +0.000 OA
ATOM      3  N   UNL     1       1.392   8.527  19.559  0.00  0.00    +0.000 N 
ATOM      4  H   UNL     1       1.854   8.408  18.658  0.00  0.00    +0.000 HD
ENDROOT
BRANCH   1   8
ATOM      5  C   UNL     1       2.608   2.778  21.215  0.00  0.00    +0.000 C 
ATOM      6  N   UNL     1       2.815   3.991  20.416  0.00  0.00    +0.000 N 
ATOM      7  C   UNL     1       2.137   5.168  20.712  0.00  0.00    +0.000 A 
ATOM      8  C   UNL     1       2.262   6.321  20.034  0.00  0.00    +0.000 A 
ATOM      9  C   UNL     1       3.197   6.324  18.875  0.00  0.00    +0.000 A 
ATOM     10  O   UNL     1       3.316   7.327  18.168  0.00  0.00    +0.000 OA
ATOM     11  C   UNL     1       3.972   5.075  18.588  0.00  0.00    +0.000 A 
ATOM     12  C   UNL     1       3.726   4.008  19.366  0.00  0.00    +0.000 A 
BRANCH  11  13
ATOM     13  C   UNL     1       4.957   5.040  17.499  0.00  0.00    +0.000 A 
ATOM     14  C   UNL     1       4.670   4.371  16.300  0.00  0.00    +0.000 A 
ATOM     15  C   UNL     1       5.585   4.400  15.245  0.00  0.00    +0.000 A 
ATOM     16  C   UNL     1       6.782   5.093  15.391  0.00  0.00    +0.000 A 
ATOM     17  F   UNL     1       7.650   5.131  14.373  0.00  0.00    +0.000 F 
ATOM     18  C   UNL     1       7.084   5.756  16.575  0.00  0.00    +0.000 A 
ATOM     19  C   UNL     1       6.172   5.728  17.632  0.00  0.00    +0.000 A 
ENDBRANCH  11  13
ENDBRANCH   1   8
BRANCH   3  20
ATOM     20  C   UNL     1       0.690   9.720  19.776  0.00  0.00    +0.000 A 
ATOM     21  C   UNL     1       1.044  10.581  20.813  0.00  0.00    +0.000 A 
ATOM     22  C   UNL     1       0.262  11.706  21.091  0.00  0.00    +0.000 A 
ATOM     23  C   UNL     1      -0.871  11.985  20.324  0.00  0.00    +0.000 A 
ATOM     24  C   UNL     1      -1.166  11.152  19.238  0.00  0.00    +0.000 A 
ATOM     25  F   UNL     1      -2.208  11.393  18.425  0.00  0.00    +0.000 F 
ATOM     26  C   UNL     1      -0.422  10.002  18.985  0.00  0.00    +0.000 A 
BRANCH  23  27
ATOM     27  O   UNL     1      -1.576  13.103  20.710  0.00  0.00    +0.000 OA
BRANCH  27  28
ATOM     28  C   UNL     1      -2.569  12.997  21.658  0.00  0.00    +0.000 A 
ATOM     29  C   UNL     1      -2.345  13.150  23.030  0.00  0.00    +0.000 A 
ATOM     30  C   UNL     1      -3.389  12.935  23.914  0.00  0.00    +0.000 A 
ATOM     31  N   UNL     1      -4.665  12.660  23.571  0.00  0.00    +0.000 NA
ATOM     32  C   UNL     1      -4.852  12.613  22.240  0.00  0.00    +0.000 A 
ATOM     33  N   UNL     1      -6.058  12.393  21.636  0.00  0.00    +0.000 N 
ATOM     34  C   UNL     1      -5.914  12.427  20.273  0.00  0.00    +0.000 A 
ATOM     35  C   UNL     1      -4.578  12.645  19.999  0.00  0.00    +0.000 A 
ATOM     36  C   UNL     1      -3.893  12.770  21.242  0.00  0.00    +0.000 A 
ATOM     37  H   UNL     1      -6.916  12.243  22.149  0.00  0.00    +0.000 HD
ENDBRANCH  27  28
ENDBRANCH  23  27
ENDBRANCH   3  20
TORSDOF 5
ENDMDL
MODEL 7
REMARK VINA RESULT:      -9.7      7.119      9.696
REMARK  Name = 
REMARK  6 active torsions:
REMARK  status: ('A' for Active; 'I' for Inactive)
REMARK    1  A    between atoms: C_1  and  N_2
REMARK    2  A    between atoms: C_4  and  C_5
REMARK    3  A    between atoms: N_7  and  C_8
REMARK    4  A    between atoms: C_11  and  O_12
REMARK    5  A    between atoms: O_12  and  C_13
REMARK    6  A    between atoms: C_27  and  C_28
REMARK                            x       y       z     vdW  Elec       q    Type
REMARK                         _______ _______ _______ _____ _____    ______ ____
ROOT
ATOM      1  C   UNL     1       1.915   6.237  20.218  0.00  0.00    +0.000 C 
ATOM      2  O   UNL     1       0.946   5.835  20.829  0.00  0.00    +0.000 OA
ATOM      3  N   UNL     1       2.226   7.570  20.033  0.00  0.00    +0.000 N 
ATOM      4  H   UNL     1       3.061   7.810  19.499  0.00  0.00    +0.000 HD
ENDROOT
BRANCH   1   8
ATOM      5  C   UNL     1       4.314   1.976  20.702  0.00  0.00    +0.000 C 
ATOM      6  N   UNL     1       4.080   3.177  19.893  0.00  0.00    +0.000 N 
ATOM      7  C   UNL     1       3.188   4.158  20.310  0.00  0.00    +0.000 A 
ATOM      8  C   UNL     1       2.910   5.285  19.634  0.00  0.00    +0.000 A 
ATOM      9  C   UNL     1       3.614   5.484  18.337  0.00  0.00    +0.000 A 
ATOM     10  O   UNL     1       3.364   6.464  17.632  0.00  0.00    +0.000 OA
ATOM     11  C   UNL     1       4.619   4.459  17.912  0.00  0.00    +0.000 A 
ATOM     12  C   UNL     1       4.776   3.388  18.709  0.00  0.00    +0.000 A 
BRANCH  11  13
ATOM     13  C   UNL     1       5.393   4.636  16.677  0.00  0.00    +0.000 A 
ATOM     14  C   UNL     1       6.704   5.132  16.723  0.00  0.00    +0.000 A 
ATOM     15  C   UNL     1       7.457   5.234  15.550  0.00  0.00    +0.000 A 
ATOM     16  C   UNL     1       6.897   4.844  14.338  0.00  0.00    +0.000 A 
ATOM     17  F   UNL     1       7.626   4.929  13.218  0.00  0.00    +0.000 F 
ATOM     18  C   UNL     1       5.597   4.357  14.275  0.00  0.00    +0.000 A 
ATOM     19  C   UNL     1       4.842   4.254  15.445  0.00  0.00    +0.000 A 
ENDBRANCH  11  13
ENDBRANCH   1   8
BRANCH   3  20
ATOM     20  C   UNL     1       1.431   8.624  20.503  0.00  0.00    +0.000 A 
ATOM     21  C   UNL     1       1.048   9.665  19.658  0.00  0.00    +0.000 A 
ATOM     22  C   UNL     1       0.358  10.768  20.169  0.00  0.00    +0.000 A 
ATOM     23  C   UNL     1       0.032  10.830  21.525  0.00  0.00    +0.000 A 
ATOM     24  C   UNL     1       0.355   9.740  22.343  0.00  0.00    +0.000 A 
ATOM     25  F   UNL     1       0.023   9.708  23.644  0.00  0.00    +0.000 F 
ATOM     26  C   UNL     1       1.087   8.661  21.852  0.00  0.00    +0.000 A 
BRANCH  23  27
ATOM     27  O   UNL     1      -0.624  11.976  21.916  0.00  0.00    +0.000 OA
BRANCH  27  28
ATOM     28  C   UNL     1      -1.917  12.203  21.499  0.00  0.00    +0.000 A 
ATOM     29  C   UNL     1      -2.296  12.255  20.154  0.00  0.00    +0.000 A 
ATOM     30  C   UNL     1      -3.603  12.580  19.831  0.00  0.00    +0.000 A 
ATOM     31  N   UNL     1      -4.603  12.782  20.714  0.00  0.00    +0.000 NA
ATOM     32  C   UNL     1      -4.214  12.630  21.993  0.00  0.00    +0.000 A 
ATOM     33  N   UNL     1      -5.044  12.740  23.072  0.00  0.00    +0.000 N 
ATOM     34  C   UNL     1      -4.344  12.509  24.228  0.00  0.00    +0.000 A 
ATOM     35  C   UNL     1      -3.028  12.276  23.881  0.00  0.00    +0.000 A 
ATOM     36  C   UNL     1      -2.933  12.345  22.461  0.00  0.00    +0.000 A 
ATOM     37  H   UNL     1      -6.030  12.949  22.995  0.00  0.00    +0.000 HD
ENDBRANCH  27  28
ENDBRANCH  23  27
ENDBRANCH   3  20
TORSDOF 5
ENDMDL
MODEL 8
REMARK VINA RESULT:      -9.6      7.170     10.796
REMARK  Name = 
REMARK  6 active torsions:
REMARK  status: ('A' for Active; 'I' for Inactive)
REMARK    1  A    between atoms: C_1  and  N_2
REMARK    2  A    between atoms: C_4  and  C_5
REMARK    3  A    between atoms: N_7  and  C_8
REMARK    4  A    between atoms: C_11  and  O_12
REMARK    5  A    between atoms: O_12  and  C_13
REMARK    6  A    between atoms: C_27  and  C_28
REMARK                            x       y       z     vdW  Elec       q    Type
REMARK                         _______ _______ _______ _____ _____    ______ ____
ROOT
ATOM      1  C   UNL     1       1.189  11.089  19.004  0.00  0.00    +0.000 C 
ATOM      2  O   UNL     1       2.157  11.366  18.326  0.00  0.00    +0.000 OA
ATOM      3  N   UNL     1       0.889   9.819  19.458  0.00  0.00    +0.000 N 
ATOM      4  H   UNL     1       0.048   9.684  20.019  0.00  0.00    +0.000 HD
ENDROOT
BRANCH   1   8
ATOM      5  C   UNL     1       0.533  15.815  20.180  0.00  0.00    +0.000 C 
ATOM      6  N   UNL     1      -0.066  14.484  20.031  0.00  0.00    +0.000 N 
ATOM      7  C   UNL     1       0.698  13.396  19.624  0.00  0.00    +0.000 A 
ATOM      8  C   UNL     1       0.234  12.147  19.458  0.00  0.00    +0.000 A 
ATOM      9  C   UNL     1      -1.213  11.924  19.727  0.00  0.00    +0.000 A 
ATOM     10  O   UNL     1      -1.723  10.818  19.536  0.00  0.00    +0.000 OA
ATOM     11  C   UNL     1      -2.027  13.080  20.221  0.00  0.00    +0.000 A 
ATOM     12  C   UNL     1      -1.405  14.265  20.332  0.00  0.00    +0.000 A 
BRANCH  11  13
ATOM     13  C   UNL     1      -3.444  12.903  20.567  0.00  0.00    +0.000 A 
ATOM     14  C   UNL     1      -4.374  12.526  19.588  0.00  0.00    +0.000 A 
ATOM     15  C   UNL     1      -5.706  12.294  19.939  0.00  0.00    +0.000 A 
ATOM     16  C   UNL     1      -6.104  12.441  21.264  0.00  0.00    +0.000 A 
ATOM     17  F   UNL     1      -7.378  12.205  21.599  0.00  0.00    +0.000 F 
ATOM     18  C   UNL     1      -5.195  12.820  22.244  0.00  0.00    +0.000 A 
ATOM     19  C   UNL     1      -3.863  13.053  21.897  0.00  0.00    +0.000 A 
ENDBRANCH  11  13
ENDBRANCH   1   8
BRANCH   3  20
ATOM     20  C   UNL     1       1.655   8.686  19.153  0.00  0.00    +0.000 A 
ATOM     21  C   UNL     1       2.256   8.541  17.904  0.00  0.00    +0.000 A 
ATOM     22  C   UNL     1       2.916   7.354  17.573  0.00  0.00    +0.000 A 
ATOM     23  C   UNL     1       2.992   6.309  18.496  0.00  0.00    +0.000 A 
ATOM     24  C   UNL     1       2.451   6.502  19.773  0.00  0.00    +0.000 A 
ATOM     25  F   UNL     1       2.538   5.561  20.728  0.00  0.00    +0.000 F 
ATOM     26  C   UNL     1       1.749   7.662  20.093  0.00  0.00    +0.000 A 
BRANCH  23  27
ATOM     27  O   UNL     1       3.642   5.182  18.048  0.00  0.00    +0.000 OA
BRANCH  27  28
ATOM     28  C   UNL     1       5.019   5.152  18.009  0.00  0.00    +0.000 A 
ATOM     29  C   UNL     1       5.826   5.312  19.140  0.00  0.00    +0.000 A 
ATOM     30  C   UNL     1       7.202   5.358  18.988  0.00  0.00    +0.000 A 
ATOM     31  N   UNL     1       7.871   5.180  17.830  0.00  0.00    +0.000 NA
ATOM     32  C   UNL     1       7.058   4.937  16.786  0.00  0.00    +0.000 A 
ATOM     33  N   UNL     1       7.488   4.682  15.514  0.00  0.00    +0.000 N 
ATOM     34  C   UNL     1       6.415   4.456  14.692  0.00  0.00    +0.000 A 
ATOM     35  C   UNL     1       5.270   4.600  15.451  0.00  0.00    +0.000 A 
ATOM     36  C   UNL     1       5.666   4.901  16.786  0.00  0.00    +0.000 A 
ATOM     37  H   UNL     1       8.465   4.659  15.253  0.00  0.00    +0.000 HD
ENDBRANCH  27  28
ENDBRANCH  23  27
ENDBRANCH   3  20
TORSDOF 5
ENDMDL
MODEL 9
REMARK VINA RESULT:      -9.6      7.216     10.829
REMARK  Name = 
REMARK  6 active torsions:
REMARK  status: ('A' for Active; 'I' for Inactive)
REMARK    1  A    between atoms: C_1  and  N_2
REMARK    2  A    between atoms: C_4  and  C_5
REMARK    3  A    between atoms: N_7  and  C_8
REMARK    4  A    between atoms: C_11  and  O_12
REMARK    5  A    between atoms: O_12  and  C_13
REMARK    6  A    between atoms: C_27  and  C_28
REMARK                            x       y       z     vdW  Elec       q    Type
REMARK                         _______ _______ _______ _____ _____    ______ ____
ROOT
ATOM      1  C   UNL     1       1.225  11.060  18.842  0.00  0.00    +0.000 C 
ATOM      2  O   UNL     1       2.054  11.247  17.975  0.00  0.00    +0.000 OA
ATOM      3  N   UNL     1       1.036   9.859  19.498  0.00  0.00    +0.000 N 
ATOM      4  H   UNL     1       0.309   9.798  20.210  0.00  0.00    +0.000 HD
ENDROOT
BRANCH   1   8
ATOM      5  C   UNL     1       0.253  15.877  18.763  0.00  0.00    +0.000 C 
ATOM      6  N   UNL     1      -0.119  14.549  19.264  0.00  0.00    +0.000 N 
ATOM      7  C   UNL     1       0.612  13.420  18.913  0.00  0.00    +0.000 A 
ATOM      8  C   UNL     1       0.342  12.169  19.321  0.00  0.00    +0.000 A 
ATOM      9  C   UNL     1      -0.837  11.990  20.212  0.00  0.00    +0.000 A 
ATOM     10  O   UNL     1      -1.182  10.864  20.575  0.00  0.00    +0.000 OA
ATOM     11  C   UNL     1      -1.593  13.210  20.639  0.00  0.00    +0.000 A 
ATOM     12  C   UNL     1      -1.188  14.389  20.137  0.00  0.00    +0.000 A 
BRANCH  11  13
ATOM     13  C   UNL     1      -2.723  13.102  21.571  0.00  0.00    +0.000 A 
ATOM     14  C   UNL     1      -4.042  13.119  21.095  0.00  0.00    +0.000 A 
ATOM     15  C   UNL     1      -5.109  12.947  21.980  0.00  0.00    +0.000 A 
ATOM     16  C   UNL     1      -4.856  12.761  23.335  0.00  0.00    +0.000 A 
ATOM     17  F   UNL     1      -5.879  12.583  24.179  0.00  0.00    +0.000 F 
ATOM     18  C   UNL     1      -3.554  12.749  23.823  0.00  0.00    +0.000 A 
ATOM     19  C   UNL     1      -2.486  12.921  22.941  0.00  0.00    +0.000 A 
ENDBRANCH  11  13
ENDBRANCH   1   8
BRANCH   3  20
ATOM     20  C   UNL     1       1.760   8.695  19.208  0.00  0.00    +0.000 A 
ATOM     21  C   UNL     1       2.414   8.544  17.986  0.00  0.00    +0.000 A 
ATOM     22  C   UNL     1       3.031   7.332  17.664  0.00  0.00    +0.000 A 
ATOM     23  C   UNL     1       3.011   6.268  18.568  0.00  0.00    +0.000 A 
ATOM     24  C   UNL     1       2.417   6.464  19.821  0.00  0.00    +0.000 A 
ATOM     25  F   UNL     1       2.411   5.503  20.759  0.00  0.00    +0.000 F 
ATOM     26  C   UNL     1       1.757   7.651  20.130  0.00  0.00    +0.000 A 
BRANCH  23  27
ATOM     27  O   UNL     1       3.627   5.117  18.129  0.00  0.00    +0.000 OA
BRANCH  27  28
ATOM     28  C   UNL     1       4.999   5.072  18.020  0.00  0.00    +0.000 A 
ATOM     29  C   UNL     1       5.865   5.253  19.103  0.00  0.00    +0.000 A 
ATOM     30  C   UNL     1       7.232   5.280  18.879  0.00  0.00    +0.000 A 
ATOM     31  N   UNL     1       7.838   5.064  17.694  0.00  0.00    +0.000 NA
ATOM     32  C   UNL     1       6.971   4.801  16.700  0.00  0.00    +0.000 A 
ATOM     33  N   UNL     1       7.332   4.508  15.415  0.00  0.00    +0.000 N 
ATOM     34  C   UNL     1       6.215   4.271  14.656  0.00  0.00    +0.000 A 
ATOM     35  C   UNL     1       5.112   4.448  15.468  0.00  0.00    +0.000 A 
ATOM     36  C   UNL     1       5.580   4.780  16.772  0.00  0.00    +0.000 A 
ATOM     37  H   UNL     1       8.293   4.466  15.105  0.00  0.00    +0.000 HD
ENDBRANCH  27  28
ENDBRANCH  23  27
ENDBRANCH   3  20
TORSDOF 5
ENDMDL
