MODEL 1
REMARK VINA RESULT:      -6.9      0.000      0.000
REMARK  Name = 
REMARK  4 active torsions:
REMARK  status: ('A' for Active; 'I' for Inactive)
REMARK    1  A    between atoms: C_1  and  N_2
REMARK    2  A    between atoms: N_5  and  C_6
REMARK    3  A    between atoms: C_6  and  C_7
REMARK    4  A    between atoms: C_15  and  C_16
REMARK                            x       y       z     vdW  Elec       q    Type
REMARK                         _______ _______ _______ _____ _____    ______ ____
ROOT
ATOM      1  C   UNL     1       3.830   1.386  18.154  0.00  0.00    +0.000 C 
ATOM      2  N   UNL     1       3.037   2.483  18.694  0.00  0.00    +0.000 NA
ATOM      3  C   UNL     1       2.357   3.270  17.649  0.00  0.00    +0.000 C 
ATOM      4  C   UNL     1       1.588   4.531  18.157  0.00  0.00    +0.000 C 
ATOM      5  N   UNL     1       2.114   5.298  19.311  0.00  0.00    +0.000 NA
ATOM      6  C   UNL     1       2.826   4.385  20.233  0.00  0.00    +0.000 C 
ATOM      7  C   UNL     1       3.807   3.358  19.604  0.00  0.00    +0.000 C 
ENDROOT
BRANCH   7   8
ATOM      8  C   UNL     1       5.061   3.997  18.951  0.00  0.00    +0.000 C 
ATOM      9  N   UNL     1       5.943   4.693  19.629  0.00  0.00    +0.000 NA
ATOM     10  C   UNL     1       6.945   5.165  18.650  0.00  0.00    +0.000 C 
ATOM     11  C   UNL     1       6.455   4.717  17.275  0.00  0.00    +0.000 C 
ATOM     12  N   UNL     1       5.329   3.865  17.607  0.00  0.00    +0.000 N 
ATOM     13  H   UNL     1       4.542   3.858  16.969  0.00  0.00    +0.000 HD
ENDBRANCH   7   8
BRANCH   5  14
ATOM     14  C   UNL     1       2.979   6.430  18.948  0.00  0.00    +0.000 C 
BRANCH  14  15
ATOM     15  C   UNL     1       2.307   7.787  18.923  0.00  0.00    +0.000 A 
ATOM     16  C   UNL     1       2.380   8.566  17.754  0.00  0.00    +0.000 A 
ATOM     17  C   UNL     1       1.698   9.783  17.658  0.00  0.00    +0.000 A 
ATOM     18  C   UNL     1       0.939  10.242  18.727  0.00  0.00    +0.000 A 
ATOM     19  C   UNL     1       0.856   9.486  19.896  0.00  0.00    +0.000 A 
ATOM     20  C   UNL     1       1.535   8.266  19.994  0.00  0.00    +0.000 A 
ATOM     21 CL   UNL     1       1.349   7.401  21.479  0.00  0.00    +0.000 Cl
ENDBRANCH  14  15
ENDBRANCH   5  14
TORSDOF 3
ENDMDL
MODEL 2
REMARK VINA RESULT:      -6.8      1.292      1.946
REMARK  Name = 
REMARK  4 active torsions:
REMARK  status: ('A' for Active; 'I' for Inactive)
REMARK    1  A    between atoms: C_1  and  N_2
REMARK    2  A    between atoms: N_5  and  C_6
REMARK    3  A    between atoms: C_6  and  C_7
REMARK    4  A    between atoms: C_15  and  C_16
REMARK                            x       y       z     vdW  Elec       q    Type
REMARK                         _______ _______ _______ _____ _____    ______ ____
ROOT
ATOM      1  C   UNL     1       3.493   1.378  18.202  0.00  0.00    +0.000 C 
ATOM      2  N   UNL     1       2.857   2.351  19.082  0.00  0.00    +0.000 NA
ATOM      3  C   UNL     1       1.833   3.161  18.397  0.00  0.00    +0.000 C 
ATOM      4  C   UNL     1       1.199   4.301  19.256  0.00  0.00    +0.000 C 
ATOM      5  N   UNL     1       2.026   5.011  20.261  0.00  0.00    +0.000 NA
ATOM      6  C   UNL     1       3.048   4.089  20.806  0.00  0.00    +0.000 C 
ATOM      7  C   UNL     1       3.829   3.210  19.791  0.00  0.00    +0.000 C 
ENDROOT
BRANCH   7   8
ATOM      8  C   UNL     1       4.767   4.010  18.850  0.00  0.00    +0.000 C 
ATOM      9  N   UNL     1       4.459   4.294  17.607  0.00  0.00    +0.000 NA
ATOM     10  C   UNL     1       5.619   5.014  17.043  0.00  0.00    +0.000 C 
ATOM     11  C   UNL     1       6.697   5.020  18.124  0.00  0.00    +0.000 C 
ATOM     12  N   UNL     1       5.991   4.481  19.270  0.00  0.00    +0.000 N 
ATOM     13  H   UNL     1       6.517   3.907  19.919  0.00  0.00    +0.000 HD
ENDBRANCH   7   8
BRANCH   5  14
ATOM     14  C   UNL     1       2.663   6.242  19.769  0.00  0.00    +0.000 C 
BRANCH  14  15
ATOM     15  C   UNL     1       1.869   7.515  19.971  0.00  0.00    +0.000 A 
ATOM     16  C   UNL     1       1.240   7.742  21.209  0.00  0.00    +0.000 A 
ATOM     17  C   UNL     1       0.574   8.944  21.467  0.00  0.00    +0.000 A 
ATOM     18  C   UNL     1       0.520   9.933  20.492  0.00  0.00    +0.000 A 
ATOM     19  C   UNL     1       1.134   9.727  19.257  0.00  0.00    +0.000 A 
ATOM     20  C   UNL     1       1.805   8.526  18.997  0.00  0.00    +0.000 A 
ATOM     21 CL   UNL     1       2.546   8.382  17.443  0.00  0.00    +0.000 Cl
ENDBRANCH  14  15
ENDBRANCH   5  14
TORSDOF 3
ENDMDL
MODEL 3
REMARK VINA RESULT:      -6.5      2.500      5.426
REMARK  Name = 
REMARK  4 active torsions:
REMARK  status: ('A' for Active; 'I' for Inactive)
REMARK    1  A    between atoms: C_1  and  N_2
REMARK    2  A    between atoms: N_5  and  C_6
REMARK    3  A    between atoms: C_6  and  C_7
REMARK    4  A    between atoms: C_15  and  C_16
REMARK                            x       y       z     vdW  Elec       q    Type
REMARK                         _______ _______ _______ _____ _____    ______ ____
ROOT
ATOM      1  C   UNL     1       1.206   2.811  21.523  0.00  0.00    +0.000 C 
ATOM      2  N   UNL     1       2.078   2.508  20.394  0.00  0.00    +0.000 NA
ATOM      3  C   UNL     1       3.509   2.565  20.743  0.00  0.00    +0.000 C 
ATOM      4  C   UNL     1       4.496   2.366  19.548  0.00  0.00    +0.000 C 
ATOM      5  N   UNL     1       4.133   2.872  18.203  0.00  0.00    +0.000 NA
ATOM      6  C   UNL     1       2.664   2.815  18.029  0.00  0.00    +0.000 C 
ATOM      7  C   UNL     1       1.786   3.333  19.202  0.00  0.00    +0.000 C 
ENDROOT
BRANCH   7   8
ATOM      8  C   UNL     1       1.898   4.861  19.451  0.00  0.00    +0.000 C 
ATOM      9  N   UNL     1       2.272   5.710  18.523  0.00  0.00    +0.000 NA
ATOM     10  C   UNL     1       2.298   7.041  19.163  0.00  0.00    +0.000 C 
ATOM     11  C   UNL     1       1.974   6.823  20.639  0.00  0.00    +0.000 C 
ATOM     12  N   UNL     1       1.601   5.422  20.672  0.00  0.00    +0.000 N 
ATOM     13  H   UNL     1       1.838   4.893  21.503  0.00  0.00    +0.000 HD
ENDBRANCH   7   8
BRANCH   5  14
ATOM     14  C   UNL     1       4.628   4.224  17.904  0.00  0.00    +0.000 C 
BRANCH  14  15
ATOM     15  C   UNL     1       5.466   4.351  16.649  0.00  0.00    +0.000 A 
ATOM     16  C   UNL     1       4.853   4.170  15.395  0.00  0.00    +0.000 A 
ATOM     17  C   UNL     1       5.569   4.368  14.211  0.00  0.00    +0.000 A 
ATOM     18  C   UNL     1       6.906   4.743  14.260  0.00  0.00    +0.000 A 
ATOM     19  C   UNL     1       7.533   4.925  15.492  0.00  0.00    +0.000 A 
ATOM     20  C   UNL     1       6.818   4.730  16.680  0.00  0.00    +0.000 A 
ATOM     21 CL   UNL     1       7.685   5.000  18.150  0.00  0.00    +0.000 Cl
ENDBRANCH  14  15
ENDBRANCH   5  14
TORSDOF 3
ENDMDL
MODEL 4
REMARK VINA RESULT:      -6.5      2.655      5.227
REMARK  Name = 
REMARK  4 active torsions:
REMARK  status: ('A' for Active; 'I' for Inactive)
REMARK    1  A    between atoms: C_1  and  N_2
REMARK    2  A    between atoms: N_5  and  C_6
REMARK    3  A    between atoms: C_6  and  C_7
REMARK    4  A    between atoms: C_15  and  C_16
REMARK                            x       y       z     vdW  Elec       q    Type
REMARK                         _______ _______ _______ _____ _____    ______ ____
ROOT
ATOM      1  C   UNL     1       1.553   2.760  21.598  0.00  0.00    +0.000 C 
ATOM      2  N   UNL     1       2.021   2.562  20.232  0.00  0.00    +0.000 NA
ATOM      3  C   UNL     1       3.491   2.532  20.126  0.00  0.00    +0.000 C 
ATOM      4  C   UNL     1       4.055   2.441  18.673  0.00  0.00    +0.000 C 
ATOM      5  N   UNL     1       3.337   3.110  17.563  0.00  0.00    +0.000 NA
ATOM      6  C   UNL     1       1.883   3.123  17.845  0.00  0.00    +0.000 C 
ATOM      7  C   UNL     1       1.438   3.529  19.277  0.00  0.00    +0.000 C 
ENDROOT
BRANCH   7   8
ATOM      8  C   UNL     1       1.721   5.013  19.631  0.00  0.00    +0.000 C 
ATOM      9  N   UNL     1       1.591   5.495  20.844  0.00  0.00    +0.000 NA
ATOM     10  C   UNL     1       1.899   6.937  20.756  0.00  0.00    +0.000 C 
ATOM     11  C   UNL     1       2.135   7.243  19.279  0.00  0.00    +0.000 C 
ATOM     12  N   UNL     1       2.135   5.921  18.683  0.00  0.00    +0.000 N 
ATOM     13  H   UNL     1       1.758   5.828  17.747  0.00  0.00    +0.000 HD
ENDBRANCH   7   8
BRANCH   5  14
ATOM     14  C   UNL     1       3.807   4.471  17.263  0.00  0.00    +0.000 C 
BRANCH  14  15
ATOM     15  C   UNL     1       5.248   4.761  17.627  0.00  0.00    +0.000 A 
ATOM     16  C   UNL     1       5.535   5.340  18.877  0.00  0.00    +0.000 A 
ATOM     17  C   UNL     1       6.856   5.541  19.289  0.00  0.00    +0.000 A 
ATOM     18  C   UNL     1       7.908   5.173  18.460  0.00  0.00    +0.000 A 
ATOM     19  C   UNL     1       7.644   4.600  17.216  0.00  0.00    +0.000 A 
ATOM     20  C   UNL     1       6.323   4.395  16.801  0.00  0.00    +0.000 A 
ATOM     21 CL   UNL     1       6.110   3.662  15.251  0.00  0.00    +0.000 Cl
ENDBRANCH  14  15
ENDBRANCH   5  14
TORSDOF 3
ENDMDL
MODEL 5
REMARK VINA RESULT:      -6.4      1.893      3.347
REMARK  Name = 
REMARK  4 active torsions:
REMARK  status: ('A' for Active; 'I' for Inactive)
REMARK    1  A    between atoms: C_1  and  N_2
REMARK    2  A    between atoms: N_5  and  C_6
REMARK    3  A    between atoms: C_6  and  C_7
REMARK    4  A    between atoms: C_15  and  C_16
REMARK                            x       y       z     vdW  Elec       q    Type
REMARK                         _______ _______ _______ _____ _____    ______ ____
ROOT
ATOM      1  C   UNL     1       3.352   1.690  17.530  0.00  0.00    +0.000 C 
ATOM      2  N   UNL     1       3.151   3.129  17.407  0.00  0.00    +0.000 NA
ATOM      3  C   UNL     1       4.351   3.909  17.762  0.00  0.00    +0.000 C 
ATOM      4  C   UNL     1       4.162   5.459  17.764  0.00  0.00    +0.000 C 
ATOM      5  N   UNL     1       2.863   6.041  18.174  0.00  0.00    +0.000 NA
ATOM      6  C   UNL     1       1.765   5.115  17.813  0.00  0.00    +0.000 C 
ATOM      7  C   UNL     1       1.964   3.610  18.146  0.00  0.00    +0.000 C 
ENDROOT
BRANCH   7   8
ATOM      8  C   UNL     1       1.997   3.295  19.664  0.00  0.00    +0.000 C 
ATOM      9  N   UNL     1       3.105   3.034  20.316  0.00  0.00    +0.000 NA
ATOM     10  C   UNL     1       2.711   2.742  21.710  0.00  0.00    +0.000 C 
ATOM     11  C   UNL     1       1.185   2.778  21.748  0.00  0.00    +0.000 C 
ATOM     12  N   UNL     1       0.852   3.278  20.428  0.00  0.00    +0.000 N 
ATOM     13  H   UNL     1       0.003   2.932  19.996  0.00  0.00    +0.000 HD
ENDBRANCH   7   8
BRANCH   5  14
ATOM     14  C   UNL     1       2.775   6.401  19.598  0.00  0.00    +0.000 C 
BRANCH  14  15
ATOM     15  C   UNL     1       1.823   7.530  19.931  0.00  0.00    +0.000 A 
ATOM     16  C   UNL     1       1.120   7.496  21.149  0.00  0.00    +0.000 A 
ATOM     17  C   UNL     1       0.301   8.561  21.536  0.00  0.00    +0.000 A 
ATOM     18  C   UNL     1       0.165   9.670  20.710  0.00  0.00    +0.000 A 
ATOM     19  C   UNL     1       0.851   9.722  19.497  0.00  0.00    +0.000 A 
ATOM     20  C   UNL     1       1.674   8.658  19.109  0.00  0.00    +0.000 A 
ATOM     21 CL   UNL     1       2.491   8.834  17.596  0.00  0.00    +0.000 Cl
ENDBRANCH  14  15
ENDBRANCH   5  14
TORSDOF 3
ENDMDL
MODEL 6
REMARK VINA RESULT:      -6.4      2.364      5.367
REMARK  Name = 
REMARK  4 active torsions:
REMARK  status: ('A' for Active; 'I' for Inactive)
REMARK    1  A    between atoms: C_1  and  N_2
REMARK    2  A    between atoms: N_5  and  C_6
REMARK    3  A    between atoms: C_6  and  C_7
REMARK    4  A    between atoms: C_15  and  C_16
REMARK                            x       y       z     vdW  Elec       q    Type
REMARK                         _______ _______ _______ _____ _____    ______ ____
ROOT
ATOM      1  C   UNL     1       0.829   3.212  20.723  0.00  0.00    +0.000 C 
ATOM      2  N   UNL     1       1.855   2.819  19.765  0.00  0.00    +0.000 NA
ATOM      3  C   UNL     1       3.192   2.697  20.372  0.00  0.00    +0.000 C 
ATOM      4  C   UNL     1       4.354   2.394  19.374  0.00  0.00    +0.000 C 
ATOM      5  N   UNL     1       4.311   2.955  18.003  0.00  0.00    +0.000 NA
ATOM      6  C   UNL     1       2.904   3.080  17.560  0.00  0.00    +0.000 C 
ATOM      7  C   UNL     1       1.890   3.687  18.568  0.00  0.00    +0.000 C 
ENDROOT
BRANCH   7   8
ATOM      8  C   UNL     1       2.131   5.187  18.885  0.00  0.00    +0.000 C 
ATOM      9  N   UNL     1       1.962   5.700  20.080  0.00  0.00    +0.000 NA
ATOM     10  C   UNL     1       2.241   7.146  19.956  0.00  0.00    +0.000 C 
ATOM     11  C   UNL     1       2.506   7.414  18.477  0.00  0.00    +0.000 C 
ATOM     12  N   UNL     1       2.548   6.076  17.920  0.00  0.00    +0.000 N 
ATOM     13  H   UNL     1       2.196   5.947  16.979  0.00  0.00    +0.000 HD
ENDBRANCH   7   8
BRANCH   5  14
ATOM     14  C   UNL     1       5.009   4.240  17.847  0.00  0.00    +0.000 C 
BRANCH  14  15
ATOM     15  C   UNL     1       5.782   4.412  16.556  0.00  0.00    +0.000 A 
ATOM     16  C   UNL     1       5.365   3.712  15.409  0.00  0.00    +0.000 A 
ATOM     17  C   UNL     1       5.994   3.912  14.177  0.00  0.00    +0.000 A 
ATOM     18  C   UNL     1       7.051   4.808  14.072  0.00  0.00    +0.000 A 
ATOM     19  C   UNL     1       7.481   5.510  15.197  0.00  0.00    +0.000 A 
ATOM     20  C   UNL     1       6.851   5.314  16.432  0.00  0.00    +0.000 A 
ATOM     21 CL   UNL     1       7.451   6.248  17.756  0.00  0.00    +0.000 Cl
ENDBRANCH  14  15
ENDBRANCH   5  14
TORSDOF 3
ENDMDL
MODEL 7
REMARK VINA RESULT:      -6.4      2.313      5.166
REMARK  Name = 
REMARK  4 active torsions:
REMARK  status: ('A' for Active; 'I' for Inactive)
REMARK    1  A    between atoms: C_1  and  N_2
REMARK    2  A    between atoms: N_5  and  C_6
REMARK    3  A    between atoms: C_6  and  C_7
REMARK    4  A    between atoms: C_15  and  C_16
REMARK                            x       y       z     vdW  Elec       q    Type
REMARK                         _______ _______ _______ _____ _____    ______ ____
ROOT
ATOM      1  C   UNL     1       1.774   2.788  21.764  0.00  0.00    +0.000 C 
ATOM      2  N   UNL     1       2.157   2.559  20.376  0.00  0.00    +0.000 NA
ATOM      3  C   UNL     1       3.617   2.561  20.175  0.00  0.00    +0.000 C 
ATOM      4  C   UNL     1       4.087   2.438  18.691  0.00  0.00    +0.000 C 
ATOM      5  N   UNL     1       3.281   3.054  17.611  0.00  0.00    +0.000 NA
ATOM      6  C   UNL     1       1.849   3.040  17.988  0.00  0.00    +0.000 C 
ATOM      7  C   UNL     1       1.488   3.480  19.433  0.00  0.00    +0.000 C 
ENDROOT
BRANCH   7   8
ATOM      8  C   UNL     1       1.753   4.981  19.724  0.00  0.00    +0.000 C 
ATOM      9  N   UNL     1       1.372   5.572  20.831  0.00  0.00    +0.000 NA
ATOM     10  C   UNL     1       1.763   6.992  20.702  0.00  0.00    +0.000 C 
ATOM     11  C   UNL     1       2.347   7.158  19.301  0.00  0.00    +0.000 C 
ATOM     12  N   UNL     1       2.419   5.789  18.829  0.00  0.00    +0.000 N 
ATOM     13  H   UNL     1       2.264   5.624  17.841  0.00  0.00    +0.000 HD
ENDBRANCH   7   8
BRANCH   5  14
ATOM     14  C   UNL     1       3.695   4.416  17.241  0.00  0.00    +0.000 C 
BRANCH  14  15
ATOM     15  C   UNL     1       5.007   4.521  16.491  0.00  0.00    +0.000 A 
ATOM     16  C   UNL     1       5.056   4.134  15.139  0.00  0.00    +0.000 A 
ATOM     17  C   UNL     1       6.223   4.300  14.387  0.00  0.00    +0.000 A 
ATOM     18  C   UNL     1       7.357   4.847  14.973  0.00  0.00    +0.000 A 
ATOM     19  C   UNL     1       7.330   5.234  16.313  0.00  0.00    +0.000 A 
ATOM     20  C   UNL     1       6.162   5.072  17.068  0.00  0.00    +0.000 A 
ATOM     21 CL   UNL     1       6.232   5.601  18.711  0.00  0.00    +0.000 Cl
ENDBRANCH  14  15
ENDBRANCH   5  14
TORSDOF 3
ENDMDL
MODEL 8
REMARK VINA RESULT:      -6.3      1.572      3.326
REMARK  Name = 
REMARK  4 active torsions:
REMARK  status: ('A' for Active; 'I' for Inactive)
REMARK    1  A    between atoms: C_1  and  N_2
REMARK    2  A    between atoms: N_5  and  C_6
REMARK    3  A    between atoms: C_6  and  C_7
REMARK    4  A    between atoms: C_15  and  C_16
REMARK                            x       y       z     vdW  Elec       q    Type
REMARK                         _______ _______ _______ _____ _____    ______ ____
ROOT
ATOM      1  C   UNL     1       8.050   4.338  17.877  0.00  0.00    +0.000 C 
ATOM      2  N   UNL     1       7.106   5.291  17.307  0.00  0.00    +0.000 NA
ATOM      3  C   UNL     1       6.700   6.339  18.261  0.00  0.00    +0.000 C 
ATOM      4  C   UNL     1       5.600   7.321  17.747  0.00  0.00    +0.000 C 
ATOM      5  N   UNL     1       4.542   6.826  16.835  0.00  0.00    +0.000 NA
ATOM      6  C   UNL     1       5.080   5.734  15.992  0.00  0.00    +0.000 C 
ATOM      7  C   UNL     1       5.926   4.639  16.698  0.00  0.00    +0.000 C 
ENDROOT
BRANCH   7   8
ATOM      8  C   UNL     1       5.120   3.750  17.681  0.00  0.00    +0.000 C 
ATOM      9  N   UNL     1       4.049   3.081  17.325  0.00  0.00    +0.000 NA
ATOM     10  C   UNL     1       3.552   2.409  18.543  0.00  0.00    +0.000 C 
ATOM     11  C   UNL     1       4.446   2.871  19.692  0.00  0.00    +0.000 C 
ATOM     12  N   UNL     1       5.487   3.605  18.999  0.00  0.00    +0.000 N 
ATOM     13  H   UNL     1       5.885   4.411  19.468  0.00  0.00    +0.000 HD
ENDBRANCH   7   8
BRANCH   5  14
ATOM     14  C   UNL     1       3.310   6.387  17.509  0.00  0.00    +0.000 C 
BRANCH  14  15
ATOM     15  C   UNL     1       2.604   7.442  18.334  0.00  0.00    +0.000 A 
ATOM     16  C   UNL     1       2.263   8.667  17.732  0.00  0.00    +0.000 A 
ATOM     17  C   UNL     1       1.531   9.632  18.431  0.00  0.00    +0.000 A 
ATOM     18  C   UNL     1       1.133   9.391  19.740  0.00  0.00    +0.000 A 
ATOM     19  C   UNL     1       1.464   8.184  20.356  0.00  0.00    +0.000 A 
ATOM     20  C   UNL     1       2.194   7.215  19.658  0.00  0.00    +0.000 A 
ATOM     21 CL   UNL     1       2.533   5.749  20.508  0.00  0.00    +0.000 Cl
ENDBRANCH  14  15
ENDBRANCH   5  14
TORSDOF 3
ENDMDL
MODEL 9
REMARK VINA RESULT:      -6.3      3.203      5.350
REMARK  Name = 
REMARK  4 active torsions:
REMARK  status: ('A' for Active; 'I' for Inactive)
REMARK    1  A    between atoms: C_1  and  N_2
REMARK    2  A    between atoms: N_5  and  C_6
REMARK    3  A    between atoms: C_6  and  C_7
REMARK    4  A    between atoms: C_15  and  C_16
REMARK                            x       y       z     vdW  Elec       q    Type
REMARK                         _______ _______ _______ _____ _____    ______ ____
ROOT
ATOM      1  C   UNL     1       8.122   7.949  17.078  0.00  0.00    +0.000 C 
ATOM      2  N   UNL     1       7.174   7.324  17.992  0.00  0.00    +0.000 NA
ATOM      3  C   UNL     1       7.741   6.165  18.704  0.00  0.00    +0.000 C 
ATOM      4  C   UNL     1       6.738   5.382  19.610  0.00  0.00    +0.000 C 
ATOM      5  N   UNL     1       5.317   5.265  19.204  0.00  0.00    +0.000 NA
ATOM      6  C   UNL     1       4.916   6.470  18.443  0.00  0.00    +0.000 C 
ATOM      7  C   UNL     1       5.891   6.977  17.345  0.00  0.00    +0.000 C 
ENDROOT
BRANCH   7   8
ATOM      8  C   UNL     1       6.035   6.018  16.134  0.00  0.00    +0.000 C 
ATOM      9  N   UNL     1       5.007   5.482  15.521  0.00  0.00    +0.000 NA
ATOM     10  C   UNL     1       5.559   4.603  14.469  0.00  0.00    +0.000 C 
ATOM     11  C   UNL     1       7.078   4.634  14.628  0.00  0.00    +0.000 C 
ATOM     12  N   UNL     1       7.265   5.673  15.622  0.00  0.00    +0.000 N 
ATOM     13  H   UNL     1       8.033   5.565  16.274  0.00  0.00    +0.000 HD
ENDBRANCH   7   8
BRANCH   5  14
ATOM     14  C   UNL     1       4.998   4.051  18.439  0.00  0.00    +0.000 C 
BRANCH  14  15
ATOM     15  C   UNL     1       3.592   3.517  18.616  0.00  0.00    +0.000 A 
ATOM     16  C   UNL     1       2.578   3.954  17.745  0.00  0.00    +0.000 A 
ATOM     17  C   UNL     1       1.289   3.417  17.816  0.00  0.00    +0.000 A 
ATOM     18  C   UNL     1       0.992   2.443  18.761  0.00  0.00    +0.000 A 
ATOM     19  C   UNL     1       1.982   1.998  19.636  0.00  0.00    +0.000 A 
ATOM     20  C   UNL     1       3.275   2.531  19.565  0.00  0.00    +0.000 A 
ATOM     21 CL   UNL     1       4.429   1.896  20.683  0.00  0.00    +0.000 Cl
ENDBRANCH  14  15
ENDBRANCH   5  14
TORSDOF 3
ENDMDL
