MODEL 1
REMARK VINA RESULT:      -6.3      0.000      0.000
REMARK  Name = 
REMARK  5 active torsions:
REMARK  status: ('A' for Active; 'I' for Inactive)
REMARK    1  A    between atoms: C_1  and  C_2
REMARK    2  A    between atoms: N_4  and  C_5
REMARK    3  A    between atoms: N_4  and  C_12
REMARK    4  A    between atoms: C_5  and  C_6
REMARK    5  A    between atoms: C_9  and  C_10
REMARK                            x       y       z     vdW  Elec       q    Type
REMARK                         _______ _______ _______ _____ _____    ______ ____
ROOT
ATOM      1  C   UNL     1       7.883   6.783  18.884  0.00  0.00    +0.000 C 
ATOM      2  C   UNL     1       6.889   5.663  19.109  0.00  0.00    +0.000 C 
ATOM      3  O   UNL     1       7.100   4.898  20.046  0.00  0.00    +0.000 OA
ATOM      4  N   UNL     1       5.750   5.597  18.300  0.00  0.00    +0.000 N 
ENDROOT
BRANCH   4   5
ATOM      5  C   UNL     1       4.449   5.084  18.835  0.00  0.00    +0.000 C 
ATOM      6  C   UNL     1       4.559   3.599  19.204  0.00  0.00    +0.000 C 
ATOM      7  C   UNL     1       4.304   2.906  17.879  0.00  0.00    +0.000 C 
ATOM      8  N   UNL     1       3.221   3.669  17.256  0.00  0.00    +0.000 NA
ATOM      9  C   UNL     1       3.208   4.999  17.911  0.00  0.00    +0.000 C 
ATOM     10  H   UNL     1       2.328   3.209  17.424  0.00  0.00    +0.000 HD
ENDBRANCH   4   5
BRANCH   4  11
ATOM     11  C   UNL     1       5.733   6.244  16.973  0.00  0.00    +0.000 C 
BRANCH  11  12
ATOM     12  C   UNL     1       6.382   5.495  15.848  0.00  0.00    +0.000 A 
ATOM     13  N   UNL     1       7.612   5.825  15.422  0.00  0.00    +0.000 NA
ATOM     14  O   UNL     1       7.735   5.137  14.219  0.00  0.00    +0.000 OA
ATOM     15  C   UNL     1       6.567   4.458  14.040  0.00  0.00    +0.000 A 
ATOM     16  C   UNL     1       6.424   3.717  12.773  0.00  0.00    +0.000 C 
ATOM     17  N   UNL     1       5.701   4.635  15.016  0.00  0.00    +0.000 NA
ENDBRANCH  11  12
ENDBRANCH   4  11
TORSDOF 3
ENDMDL
MODEL 2
REMARK VINA RESULT:      -6.2      1.534      2.119
REMARK  Name = 
REMARK  5 active torsions:
REMARK  status: ('A' for Active; 'I' for Inactive)
REMARK    1  A    between atoms: C_1  and  C_2
REMARK    2  A    between atoms: N_4  and  C_5
REMARK    3  A    between atoms: N_4  and  C_12
REMARK    4  A    between atoms: C_5  and  C_6
REMARK    5  A    between atoms: C_9  and  C_10
REMARK                            x       y       z     vdW  Elec       q    Type
REMARK                         _______ _______ _______ _____ _____    ______ ____
ROOT
ATOM      1  C   UNL     1       6.914   5.353  19.275  0.00  0.00    +0.000 C 
ATOM      2  C   UNL     1       5.590   4.651  19.051  0.00  0.00    +0.000 C 
ATOM      3  O   UNL     1       5.342   3.675  19.752  0.00  0.00    +0.000 OA
ATOM      4  N   UNL     1       4.690   5.186  18.123  0.00  0.00    +0.000 N 
ENDROOT
BRANCH   4   5
ATOM      5  C   UNL     1       3.211   5.076  18.330  0.00  0.00    +0.000 C 
ATOM      6  C   UNL     1       2.509   6.385  17.946  0.00  0.00    +0.000 C 
ATOM      7  C   UNL     1       2.638   7.217  19.208  0.00  0.00    +0.000 C 
ATOM      8  N   UNL     1       2.398   6.279  20.305  0.00  0.00    +0.000 NA
ATOM      9  C   UNL     1       2.635   4.920  19.760  0.00  0.00    +0.000 C 
ATOM     10  H   UNL     1       1.431   6.346  20.617  0.00  0.00    +0.000 HD
ENDBRANCH   4   5
BRANCH   4  11
ATOM     11  C   UNL     1       5.164   6.071  17.042  0.00  0.00    +0.000 C 
BRANCH  11  12
ATOM     12  C   UNL     1       5.996   5.438  15.967  0.00  0.00    +0.000 A 
ATOM     13  N   UNL     1       7.224   5.900  15.686  0.00  0.00    +0.000 NA
ATOM     14  O   UNL     1       7.538   5.283  14.480  0.00  0.00    +0.000 OA
ATOM     15  C   UNL     1       6.466   4.507  14.153  0.00  0.00    +0.000 A 
ATOM     16  C   UNL     1       6.528   3.814  12.852  0.00  0.00    +0.000 C 
ATOM     17  N   UNL     1       5.491   4.557  15.036  0.00  0.00    +0.000 NA
ENDBRANCH  11  12
ENDBRANCH   4  11
TORSDOF 3
ENDMDL
MODEL 3
REMARK VINA RESULT:      -6.2      1.123      1.661
REMARK  Name = 
REMARK  5 active torsions:
REMARK  status: ('A' for Active; 'I' for Inactive)
REMARK    1  A    between atoms: C_1  and  C_2
REMARK    2  A    between atoms: N_4  and  C_5
REMARK    3  A    between atoms: N_4  and  C_12
REMARK    4  A    between atoms: C_5  and  C_6
REMARK    5  A    between atoms: C_9  and  C_10
REMARK                            x       y       z     vdW  Elec       q    Type
REMARK                         _______ _______ _______ _____ _____    ______ ____
ROOT
ATOM      1  C   UNL     1       7.543   6.985  18.150  0.00  0.00    +0.000 C 
ATOM      2  C   UNL     1       6.758   5.744  18.525  0.00  0.00    +0.000 C 
ATOM      3  O   UNL     1       7.135   5.112  19.506  0.00  0.00    +0.000 OA
ATOM      4  N   UNL     1       5.610   5.424  17.791  0.00  0.00    +0.000 N 
ENDROOT
BRANCH   4   5
ATOM      5  C   UNL     1       4.437   4.760  18.443  0.00  0.00    +0.000 C 
ATOM      6  C   UNL     1       3.141   5.076  17.685  0.00  0.00    +0.000 C 
ATOM      7  C   UNL     1       2.729   6.412  18.271  0.00  0.00    +0.000 C 
ATOM      8  N   UNL     1       3.006   6.299  19.704  0.00  0.00    +0.000 NA
ATOM      9  C   UNL     1       3.985   5.196  19.860  0.00  0.00    +0.000 C 
ATOM     10  H   UNL     1       2.154   6.058  20.207  0.00  0.00    +0.000 HD
ENDBRANCH   4   5
BRANCH   4  11
ATOM     11  C   UNL     1       5.427   5.937  16.420  0.00  0.00    +0.000 C 
BRANCH  11  12
ATOM     12  C   UNL     1       6.083   5.162  15.316  0.00  0.00    +0.000 A 
ATOM     13  N   UNL     1       7.327   5.462  14.911  0.00  0.00    +0.000 NA
ATOM     14  O   UNL     1       7.461   4.759  13.718  0.00  0.00    +0.000 OA
ATOM     15  C   UNL     1       6.282   4.101  13.523  0.00  0.00    +0.000 A 
ATOM     16  C   UNL     1       6.149   3.349  12.261  0.00  0.00    +0.000 C 
ATOM     17  N   UNL     1       5.401   4.307  14.480  0.00  0.00    +0.000 NA
ENDBRANCH  11  12
ENDBRANCH   4  11
TORSDOF 3
ENDMDL
MODEL 4
REMARK VINA RESULT:      -6.2      1.408      1.974
REMARK  Name = 
REMARK  5 active torsions:
REMARK  status: ('A' for Active; 'I' for Inactive)
REMARK    1  A    between atoms: C_1  and  C_2
REMARK    2  A    between atoms: N_4  and  C_5
REMARK    3  A    between atoms: N_4  and  C_12
REMARK    4  A    between atoms: C_5  and  C_6
REMARK    5  A    between atoms: C_9  and  C_10
REMARK                            x       y       z     vdW  Elec       q    Type
REMARK                         _______ _______ _______ _____ _____    ______ ____
ROOT
ATOM      1  C   UNL     1       6.197   5.379  19.262  0.00  0.00    +0.000 C 
ATOM      2  C   UNL     1       5.294   4.251  18.806  0.00  0.00    +0.000 C 
ATOM      3  O   UNL     1       5.257   3.240  19.500  0.00  0.00    +0.000 OA
ATOM      4  N   UNL     1       4.496   4.441  17.673  0.00  0.00    +0.000 N 
ENDROOT
BRANCH   4   5
ATOM      5  C   UNL     1       3.145   3.804  17.563  0.00  0.00    +0.000 C 
ATOM      6  C   UNL     1       2.039   4.811  17.903  0.00  0.00    +0.000 C 
ATOM      7  C   UNL     1       1.969   4.732  19.416  0.00  0.00    +0.000 C 
ATOM      8  N   UNL     1       2.108   3.308  19.727  0.00  0.00    +0.000 NA
ATOM      9  C   UNL     1       2.736   2.675  18.543  0.00  0.00    +0.000 C 
ATOM     10  H   UNL     1       1.191   2.892  19.878  0.00  0.00    +0.000 HD
ENDBRANCH   4   5
BRANCH   4  11
ATOM     11  C   UNL     1       4.855   5.455  16.662  0.00  0.00    +0.000 C 
BRANCH  11  12
ATOM     12  C   UNL     1       5.767   5.012  15.557  0.00  0.00    +0.000 A 
ATOM     13  N   UNL     1       6.888   5.694  15.276  0.00  0.00    +0.000 NA
ATOM     14  O   UNL     1       7.284   5.179  14.046  0.00  0.00    +0.000 OA
ATOM     15  C   UNL     1       6.361   4.234  13.707  0.00  0.00    +0.000 A 
ATOM     16  C   UNL     1       6.521   3.603  12.384  0.00  0.00    +0.000 C 
ATOM     17  N   UNL     1       5.409   4.084  14.604  0.00  0.00    +0.000 NA
ENDBRANCH  11  12
ENDBRANCH   4  11
TORSDOF 3
ENDMDL
MODEL 5
REMARK VINA RESULT:      -6.2      2.693      4.089
REMARK  Name = 
REMARK  5 active torsions:
REMARK  status: ('A' for Active; 'I' for Inactive)
REMARK    1  A    between atoms: C_1  and  C_2
REMARK    2  A    between atoms: N_4  and  C_5
REMARK    3  A    between atoms: N_4  and  C_12
REMARK    4  A    between atoms: C_5  and  C_6
REMARK    5  A    between atoms: C_9  and  C_10
REMARK                            x       y       z     vdW  Elec       q    Type
REMARK                         _______ _______ _______ _____ _____    ______ ____
ROOT
ATOM      1  C   UNL     1       2.520   6.464  18.177  0.00  0.00    +0.000 C 
ATOM      2  C   UNL     1       2.709   5.564  19.381  0.00  0.00    +0.000 C 
ATOM      3  O   UNL     1       2.165   5.898  20.429  0.00  0.00    +0.000 OA
ATOM      4  N   UNL     1       3.420   4.369  19.227  0.00  0.00    +0.000 N 
ENDROOT
BRANCH   4   5
ATOM      5  C   UNL     1       3.068   3.151  20.023  0.00  0.00    +0.000 C 
ATOM      6  C   UNL     1       2.331   2.125  19.153  0.00  0.00    +0.000 C 
ATOM      7  C   UNL     1       0.893   2.602  19.219  0.00  0.00    +0.000 C 
ATOM      8  N   UNL     1       0.694   3.008  20.611  0.00  0.00    +0.000 NA
ATOM      9  C   UNL     1       2.042   3.249  21.180  0.00  0.00    +0.000 C 
ATOM     10  H   UNL     1       0.243   2.258  21.133  0.00  0.00    +0.000 HD
ENDBRANCH   4   5
BRANCH   4  11
ATOM     11  C   UNL     1       4.378   4.204  18.116  0.00  0.00    +0.000 C 
BRANCH  11  12
ATOM     12  C   UNL     1       5.672   4.956  18.223  0.00  0.00    +0.000 A 
ATOM     13  N   UNL     1       6.440   4.849  19.319  0.00  0.00    +0.000 NA
ATOM     14  O   UNL     1       7.355   5.887  19.179  0.00  0.00    +0.000 OA
ATOM     15  C   UNL     1       7.049   6.517  18.009  0.00  0.00    +0.000 A 
ATOM     16  C   UNL     1       7.836   7.721  17.685  0.00  0.00    +0.000 C 
ATOM     17  N   UNL     1       6.026   5.981  17.376  0.00  0.00    +0.000 NA
ENDBRANCH  11  12
ENDBRANCH   4  11
TORSDOF 3
ENDMDL
MODEL 6
REMARK VINA RESULT:      -6.0      2.534      3.765
REMARK  Name = 
REMARK  5 active torsions:
REMARK  status: ('A' for Active; 'I' for Inactive)
REMARK    1  A    between atoms: C_1  and  C_2
REMARK    2  A    between atoms: N_4  and  C_5
REMARK    3  A    between atoms: N_4  and  C_12
REMARK    4  A    between atoms: C_5  and  C_6
REMARK    5  A    between atoms: C_9  and  C_10
REMARK                            x       y       z     vdW  Elec       q    Type
REMARK                         _______ _______ _______ _____ _____    ______ ____
ROOT
ATOM      1  C   UNL     1       2.766   7.102  18.208  0.00  0.00    +0.000 C 
ATOM      2  C   UNL     1       2.716   5.845  19.053  0.00  0.00    +0.000 C 
ATOM      3  O   UNL     1       2.182   5.925  20.155  0.00  0.00    +0.000 OA
ATOM      4  N   UNL     1       3.203   4.649  18.514  0.00  0.00    +0.000 N 
ENDROOT
BRANCH   4   5
ATOM      5  C   UNL     1       2.587   3.332  18.873  0.00  0.00    +0.000 C 
ATOM      6  C   UNL     1       3.049   2.875  20.262  0.00  0.00    +0.000 C 
ATOM      7  C   UNL     1       4.371   2.193  19.967  0.00  0.00    +0.000 C 
ATOM      8  N   UNL     1       4.142   1.444  18.731  0.00  0.00    +0.000 NA
ATOM      9  C   UNL     1       2.962   2.057  18.076  0.00  0.00    +0.000 C 
ATOM     10  H   UNL     1       3.933   0.470  18.945  0.00  0.00    +0.000 HD
ENDBRANCH   4   5
BRANCH   4  11
ATOM     11  C   UNL     1       4.177   4.667  17.406  0.00  0.00    +0.000 C 
BRANCH  11  12
ATOM     12  C   UNL     1       5.528   5.245  17.704  0.00  0.00    +0.000 A 
ATOM     13  N   UNL     1       6.230   4.837  18.773  0.00  0.00    +0.000 NA
ATOM     14  O   UNL     1       7.244   5.784  18.880  0.00  0.00    +0.000 OA
ATOM     15  C   UNL     1       7.053   6.670  17.861  0.00  0.00    +0.000 A 
ATOM     16  C   UNL     1       7.964   7.829  17.819  0.00  0.00    +0.000 C 
ATOM     17  N   UNL     1       6.017   6.383  17.101  0.00  0.00    +0.000 NA
ENDBRANCH  11  12
ENDBRANCH   4  11
TORSDOF 3
ENDMDL
MODEL 7
REMARK VINA RESULT:      -6.0      2.814      4.250
REMARK  Name = 
REMARK  5 active torsions:
REMARK  status: ('A' for Active; 'I' for Inactive)
REMARK    1  A    between atoms: C_1  and  C_2
REMARK    2  A    between atoms: N_4  and  C_5
REMARK    3  A    between atoms: N_4  and  C_12
REMARK    4  A    between atoms: C_5  and  C_6
REMARK    5  A    between atoms: C_9  and  C_10
REMARK                            x       y       z     vdW  Elec       q    Type
REMARK                         _______ _______ _______ _____ _____    ______ ____
ROOT
ATOM      1  C   UNL     1       2.615   7.719  18.380  0.00  0.00    +0.000 C 
ATOM      2  C   UNL     1       2.230   6.591  19.315  0.00  0.00    +0.000 C 
ATOM      3  O   UNL     1       1.743   6.896  20.400  0.00  0.00    +0.000 OA
ATOM      4  N   UNL     1       2.371   5.270  18.875  0.00  0.00    +0.000 N 
ENDROOT
BRANCH   4   5
ATOM      5  C   UNL     1       1.421   4.201  19.320  0.00  0.00    +0.000 C 
ATOM      6  C   UNL     1       1.581   3.921  20.820  0.00  0.00    +0.000 C 
ATOM      7  C   UNL     1       2.733   2.934  20.855  0.00  0.00    +0.000 C 
ATOM      8  N   UNL     1       2.494   2.035  19.725  0.00  0.00    +0.000 NA
ATOM      9  C   UNL     1       1.584   2.751  18.799  0.00  0.00    +0.000 C 
ATOM     10  H   UNL     1       2.037   1.184  20.046  0.00  0.00    +0.000 HD
ENDBRANCH   4   5
BRANCH   4  11
ATOM     11  C   UNL     1       3.307   4.938  17.784  0.00  0.00    +0.000 C 
BRANCH  11  12
ATOM     12  C   UNL     1       4.767   4.921  18.129  0.00  0.00    +0.000 A 
ATOM     13  N   UNL     1       5.255   4.026  19.003  0.00  0.00    +0.000 NA
ATOM     14  O   UNL     1       6.530   4.506  19.283  0.00  0.00    +0.000 OA
ATOM     15  C   UNL     1       6.685   5.644  18.548  0.00  0.00    +0.000 A 
ATOM     16  C   UNL     1       7.941   6.391  18.750  0.00  0.00    +0.000 C 
ATOM     17  N   UNL     1       5.634   5.942  17.813  0.00  0.00    +0.000 NA
ENDBRANCH  11  12
ENDBRANCH   4  11
TORSDOF 3
ENDMDL
MODEL 8
REMARK VINA RESULT:      -5.9      2.368      4.896
REMARK  Name = 
REMARK  5 active torsions:
REMARK  status: ('A' for Active; 'I' for Inactive)
REMARK    1  A    between atoms: C_1  and  C_2
REMARK    2  A    between atoms: N_4  and  C_5
REMARK    3  A    between atoms: N_4  and  C_12
REMARK    4  A    between atoms: C_5  and  C_6
REMARK    5  A    between atoms: C_9  and  C_10
REMARK                            x       y       z     vdW  Elec       q    Type
REMARK                         _______ _______ _______ _____ _____    ______ ____
ROOT
ATOM      1  C   UNL     1       8.040   6.237  18.893  0.00  0.00    +0.000 C 
ATOM      2  C   UNL     1       6.964   6.504  17.860  0.00  0.00    +0.000 C 
ATOM      3  O   UNL     1       7.229   7.289  16.956  0.00  0.00    +0.000 OA
ATOM      4  N   UNL     1       5.760   5.794  17.940  0.00  0.00    +0.000 N 
ENDROOT
BRANCH   4   5
ATOM      5  C   UNL     1       5.004   5.415  16.704  0.00  0.00    +0.000 C 
ATOM      6  C   UNL     1       5.323   3.973  16.291  0.00  0.00    +0.000 C 
ATOM      7  C   UNL     1       6.595   4.132  15.480  0.00  0.00    +0.000 C 
ATOM      8  N   UNL     1       6.387   5.341  14.683  0.00  0.00    +0.000 NA
ATOM      9  C   UNL     1       5.316   6.114  15.357  0.00  0.00    +0.000 C 
ATOM     10  H   UNL     1       6.076   5.093  13.745  0.00  0.00    +0.000 HD
ENDBRANCH   4   5
BRANCH   4  11
ATOM     11  C   UNL     1       5.323   5.197  19.217  0.00  0.00    +0.000 C 
BRANCH  11  12
ATOM     12  C   UNL     1       3.845   5.035  19.415  0.00  0.00    +0.000 A 
ATOM     13  N   UNL     1       3.074   6.089  19.724  0.00  0.00    +0.000 NA
ATOM     14  O   UNL     1       1.871   5.510  20.113  0.00  0.00    +0.000 OA
ATOM     15  C   UNL     1       2.036   4.161  19.999  0.00  0.00    +0.000 A 
ATOM     16  C   UNL     1       0.910   3.320  20.447  0.00  0.00    +0.000 C 
ATOM     17  N   UNL     1       3.229   3.813  19.566  0.00  0.00    +0.000 NA
ENDBRANCH  11  12
ENDBRANCH   4  11
TORSDOF 3
ENDMDL
MODEL 9
REMARK VINA RESULT:      -5.9      1.844      2.381
REMARK  Name = 
REMARK  5 active torsions:
REMARK  status: ('A' for Active; 'I' for Inactive)
REMARK    1  A    between atoms: C_1  and  C_2
REMARK    2  A    between atoms: N_4  and  C_5
REMARK    3  A    between atoms: N_4  and  C_12
REMARK    4  A    between atoms: C_5  and  C_6
REMARK    5  A    between atoms: C_9  and  C_10
REMARK                            x       y       z     vdW  Elec       q    Type
REMARK                         _______ _______ _______ _____ _____    ______ ____
ROOT
ATOM      1  C   UNL     1       3.802   6.507  17.877  0.00  0.00    +0.000 C 
ATOM      2  C   UNL     1       4.381   5.342  18.652  0.00  0.00    +0.000 C 
ATOM      3  O   UNL     1       4.758   5.557  19.800  0.00  0.00    +0.000 OA
ATOM      4  N   UNL     1       4.387   4.073  18.061  0.00  0.00    +0.000 N 
ENDROOT
BRANCH   4   5
ATOM      5  C   UNL     1       4.223   2.835  18.886  0.00  0.00    +0.000 C 
ATOM      6  C   UNL     1       3.414   1.776  18.126  0.00  0.00    +0.000 C 
ATOM      7  C   UNL     1       1.981   2.179  18.417  0.00  0.00    +0.000 C 
ATOM      8  N   UNL     1       1.976   2.567  19.828  0.00  0.00    +0.000 NA
ATOM      9  C   UNL     1       3.382   2.874  20.187  0.00  0.00    +0.000 C 
ATOM     10  H   UNL     1       1.650   1.793  20.403  0.00  0.00    +0.000 HD
ENDBRANCH   4   5
BRANCH   4  11
ATOM     11  C   UNL     1       4.321   3.928  16.594  0.00  0.00    +0.000 C 
BRANCH  11  12
ATOM     12  C   UNL     1       5.606   4.100  15.840  0.00  0.00    +0.000 A 
ATOM     13  N   UNL     1       6.753   4.359  16.487  0.00  0.00    +0.000 NA
ATOM     14  O   UNL     1       7.623   4.741  15.471  0.00  0.00    +0.000 OA
ATOM     15  C   UNL     1       6.913   4.673  14.309  0.00  0.00    +0.000 A 
ATOM     16  C   UNL     1       7.606   5.123  13.087  0.00  0.00    +0.000 C 
ATOM     17  N   UNL     1       5.669   4.276  14.476  0.00  0.00    +0.000 NA
ENDBRANCH  11  12
ENDBRANCH   4  11
TORSDOF 3
ENDMDL
