MODEL 1
REMARK VINA RESULT:      -6.8      0.000      0.000
REMARK  Name = 
REMARK  8 active torsions:
REMARK  status: ('A' for Active; 'I' for Inactive)
REMARK    1  A    between atoms: C_2  and  C_3
REMARK    2  A    between atoms: C_2  and  C_15
REMARK    3  A    between atoms: C_3  and  C_4
REMARK    4  A    between atoms: C_4  and  C_5
REMARK    5  A    between atoms: C_5  and  C_6
REMARK    6  A    between atoms: C_6  and  C_7
REMARK    7  A    between atoms: C_7  and  C_8
REMARK    8  A    between atoms: C_8  and  C_9
REMARK                            x       y       z     vdW  Elec       q    Type
REMARK                         _______ _______ _______ _____ _____    ______ ____
ROOT
ATOM      1  C   UNL     1       5.467   4.204  18.739  0.00  0.00    +0.000 C 
ENDROOT
BRANCH   1   2
ATOM      2  C   UNL     1       6.006   5.556  19.204  0.00  0.00    +0.000 C 
BRANCH   2   3
ATOM      3  C   UNL     1       7.420   5.838  18.697  0.00  0.00    +0.000 C 
BRANCH   3   5
ATOM      4  O   UNL     1       7.671   7.798  17.322  0.00  0.00    +0.000 OA
ATOM      5  C   UNL     1       7.388   6.600  17.375  0.00  0.00    +0.000 C 
BRANCH   5   6
ATOM      6  C   UNL     1       7.015   5.828  16.214  0.00  0.00    +0.000 A 
ATOM      7  N   UNL     1       7.505   4.667  15.827  0.00  0.00    +0.000 NA
ATOM      8  C   UNL     1       6.795   4.437  14.681  0.00  0.00    +0.000 A 
ATOM      9  N   UNL     1       5.910   5.379  14.350  0.00  0.00    +0.000 NA
ATOM     10  O   UNL     1       6.051   6.316  15.379  0.00  0.00    +0.000 OA
ENDBRANCH   5   6
ENDBRANCH   3   5
ENDBRANCH   2   3
ENDBRANCH   1   2
BRANCH   1  11
ATOM     11  C   UNL     1       4.269   4.403  17.805  0.00  0.00    +0.000 C 
BRANCH  11  12
ATOM     12  C   UNL     1       3.714   5.825  17.884  0.00  0.00    +0.000 C 
BRANCH  12  13
ATOM     13  C   UNL     1       2.229   5.816  18.258  0.00  0.00    +0.000 C 
BRANCH  13  14
ATOM     14  C   UNL     1       1.914   4.746  19.274  0.00  0.00    +0.000 A 
ATOM     15  C   UNL     1       2.355   4.868  20.599  0.00  0.00    +0.000 A 
ATOM     16  C   UNL     1       2.080   3.865  21.530  0.00  0.00    +0.000 A 
ATOM     17  C   UNL     1       1.367   2.731  21.145  0.00  0.00    +0.000 A 
ATOM     18  C   UNL     1       0.924   2.601  19.831  0.00  0.00    +0.000 A 
ATOM     19  C   UNL     1       1.198   3.602  18.898  0.00  0.00    +0.000 A 
ENDBRANCH  13  14
ENDBRANCH  12  13
ENDBRANCH  11  12
ENDBRANCH   1  11
TORSDOF 8
ENDMDL
MODEL 2
REMARK VINA RESULT:      -6.8      1.710      2.352
REMARK  Name = 
REMARK  8 active torsions:
REMARK  status: ('A' for Active; 'I' for Inactive)
REMARK    1  A    between atoms: C_2  and  C_3
REMARK    2  A    between atoms: C_2  and  C_15
REMARK    3  A    between atoms: C_3  and  C_4
REMARK    4  A    between atoms: C_4  and  C_5
REMARK    5  A    between atoms: C_5  and  C_6
REMARK    6  A    between atoms: C_6  and  C_7
REMARK    7  A    between atoms: C_7  and  C_8
REMARK    8  A    between atoms: C_8  and  C_9
REMARK                            x       y       z     vdW  Elec       q    Type
REMARK                         _______ _______ _______ _____ _____    ______ ____
ROOT
ATOM      1  C   UNL     1       3.746   7.255  17.742  0.00  0.00    +0.000 C 
ENDROOT
BRANCH   1   2
ATOM      2  C   UNL     1       4.694   6.174  17.225  0.00  0.00    +0.000 C 
BRANCH   2   3
ATOM      3  C   UNL     1       6.037   6.162  17.956  0.00  0.00    +0.000 C 
BRANCH   3   5
ATOM      4  O   UNL     1       7.642   4.389  18.223  0.00  0.00    +0.000 OA
ATOM      5  C   UNL     1       6.927   5.030  17.451  0.00  0.00    +0.000 C 
BRANCH   5   6
ATOM      6  C   UNL     1       6.866   4.767  16.034  0.00  0.00    +0.000 A 
ATOM      7  N   UNL     1       7.461   5.433  15.064  0.00  0.00    +0.000 NA
ATOM      8  C   UNL     1       7.036   4.749  13.959  0.00  0.00    +0.000 A 
ATOM      9  N   UNL     1       6.226   3.715  14.195  0.00  0.00    +0.000 NA
ATOM     10  O   UNL     1       6.111   3.719  15.588  0.00  0.00    +0.000 OA
ENDBRANCH   5   6
ENDBRANCH   3   5
ENDBRANCH   2   3
ENDBRANCH   1   2
BRANCH   1  11
ATOM     11  C   UNL     1       2.443   6.623  18.243  0.00  0.00    +0.000 C 
BRANCH  11  12
ATOM     12  C   UNL     1       2.344   6.656  19.768  0.00  0.00    +0.000 C 
BRANCH  12  13
ATOM     13  C   UNL     1       1.818   5.324  20.313  0.00  0.00    +0.000 C 
BRANCH  13  14
ATOM     14  C   UNL     1       2.389   4.147  19.562  0.00  0.00    +0.000 A 
ATOM     15  C   UNL     1       3.730   3.776  19.731  0.00  0.00    +0.000 A 
ATOM     16  C   UNL     1       4.261   2.700  19.017  0.00  0.00    +0.000 A 
ATOM     17  C   UNL     1       3.458   1.988  18.127  0.00  0.00    +0.000 A 
ATOM     18  C   UNL     1       2.124   2.349  17.953  0.00  0.00    +0.000 A 
ATOM     19  C   UNL     1       1.592   3.425  18.665  0.00  0.00    +0.000 A 
ENDBRANCH  13  14
ENDBRANCH  12  13
ENDBRANCH  11  12
ENDBRANCH   1  11
TORSDOF 8
ENDMDL
MODEL 3
REMARK VINA RESULT:      -6.7      2.117      3.429
REMARK  Name = 
REMARK  8 active torsions:
REMARK  status: ('A' for Active; 'I' for Inactive)
REMARK    1  A    between atoms: C_2  and  C_3
REMARK    2  A    between atoms: C_2  and  C_15
REMARK    3  A    between atoms: C_3  and  C_4
REMARK    4  A    between atoms: C_4  and  C_5
REMARK    5  A    between atoms: C_5  and  C_6
REMARK    6  A    between atoms: C_6  and  C_7
REMARK    7  A    between atoms: C_7  and  C_8
REMARK    8  A    between atoms: C_8  and  C_9
REMARK                            x       y       z     vdW  Elec       q    Type
REMARK                         _______ _______ _______ _____ _____    ______ ____
ROOT
ATOM      1  C   UNL     1       2.585   6.927  18.435  0.00  0.00    +0.000 C 
ENDROOT
BRANCH   1   2
ATOM      2  C   UNL     1       3.952   6.551  17.864  0.00  0.00    +0.000 C 
BRANCH   2   3
ATOM      3  C   UNL     1       3.975   5.148  17.254  0.00  0.00    +0.000 C 
BRANCH   3   5
ATOM      4  O   UNL     1       5.697   3.873  16.158  0.00  0.00    +0.000 OA
ATOM      5  C   UNL     1       5.407   4.656  17.064  0.00  0.00    +0.000 C 
BRANCH   5   6
ATOM      6  C   UNL     1       6.378   5.170  18.001  0.00  0.00    +0.000 A 
ATOM      7  N   UNL     1       7.371   6.002  17.758  0.00  0.00    +0.000 NA
ATOM      8  C   UNL     1       7.944   6.115  18.994  0.00  0.00    +0.000 A 
ATOM      9  N   UNL     1       7.365   5.409  19.967  0.00  0.00    +0.000 NA
ATOM     10  O   UNL     1       6.309   4.774  19.307  0.00  0.00    +0.000 OA
ENDBRANCH   5   6
ENDBRANCH   3   5
ENDBRANCH   2   3
ENDBRANCH   1   2
BRANCH   1  11
ATOM     11  C   UNL     1       2.579   6.753  19.957  0.00  0.00    +0.000 C 
BRANCH  11  12
ATOM     12  C   UNL     1       1.481   5.794  20.416  0.00  0.00    +0.000 C 
BRANCH  12  13
ATOM     13  C   UNL     1       2.080   4.556  21.091  0.00  0.00    +0.000 C 
BRANCH  13  14
ATOM     14  C   UNL     1       2.466   3.501  20.083  0.00  0.00    +0.000 A 
ATOM     15  C   UNL     1       3.707   2.855  20.168  0.00  0.00    +0.000 A 
ATOM     16  C   UNL     1       4.070   1.896  19.220  0.00  0.00    +0.000 A 
ATOM     17  C   UNL     1       3.199   1.577  18.180  0.00  0.00    +0.000 A 
ATOM     18  C   UNL     1       1.964   2.214  18.088  0.00  0.00    +0.000 A 
ATOM     19  C   UNL     1       1.599   3.173  19.033  0.00  0.00    +0.000 A 
ENDBRANCH  13  14
ENDBRANCH  12  13
ENDBRANCH  11  12
ENDBRANCH   1  11
TORSDOF 8
ENDMDL
MODEL 4
REMARK VINA RESULT:      -6.6      1.621      1.967
REMARK  Name = 
REMARK  8 active torsions:
REMARK  status: ('A' for Active; 'I' for Inactive)
REMARK    1  A    between atoms: C_2  and  C_3
REMARK    2  A    between atoms: C_2  and  C_15
REMARK    3  A    between atoms: C_3  and  C_4
REMARK    4  A    between atoms: C_4  and  C_5
REMARK    5  A    between atoms: C_5  and  C_6
REMARK    6  A    between atoms: C_6  and  C_7
REMARK    7  A    between atoms: C_7  and  C_8
REMARK    8  A    between atoms: C_8  and  C_9
REMARK                            x       y       z     vdW  Elec       q    Type
REMARK                         _______ _______ _______ _____ _____    ______ ____
ROOT
ATOM      1  C   UNL     1       4.747   6.299  18.103  0.00  0.00    +0.000 C 
ENDROOT
BRANCH   1   2
ATOM      2  C   UNL     1       5.877   6.794  17.201  0.00  0.00    +0.000 C 
BRANCH   2   3
ATOM      3  C   UNL     1       7.257   6.333  17.672  0.00  0.00    +0.000 C 
BRANCH   3   5
ATOM      4  O   UNL     1       8.209   4.126  17.791  0.00  0.00    +0.000 OA
ATOM      5  C   UNL     1       7.594   4.953  17.116  0.00  0.00    +0.000 C 
BRANCH   5   6
ATOM      6  C   UNL     1       7.144   4.690  15.770  0.00  0.00    +0.000 A 
ATOM      7  N   UNL     1       7.601   5.216  14.650  0.00  0.00    +0.000 NA
ATOM      8  C   UNL     1       6.801   4.615  13.718  0.00  0.00    +0.000 A 
ATOM      9  N   UNL     1       5.893   3.762  14.198  0.00  0.00    +0.000 NA
ATOM     10  O   UNL     1       6.121   3.806  15.577  0.00  0.00    +0.000 OA
ENDBRANCH   5   6
ENDBRANCH   3   5
ENDBRANCH   2   3
ENDBRANCH   1   2
BRANCH   1  11
ATOM     11  C   UNL     1       3.435   7.006  17.746  0.00  0.00    +0.000 C 
BRANCH  11  12
ATOM     12  C   UNL     1       2.218   6.125  18.031  0.00  0.00    +0.000 C 
BRANCH  12  13
ATOM     13  C   UNL     1       2.556   4.643  17.844  0.00  0.00    +0.000 C 
BRANCH  13  14
ATOM     14  C   UNL     1       2.463   3.880  19.143  0.00  0.00    +0.000 A 
ATOM     15  C   UNL     1       1.293   3.920  19.912  0.00  0.00    +0.000 A 
ATOM     16  C   UNL     1       1.219   3.231  21.123  0.00  0.00    +0.000 A 
ATOM     17  C   UNL     1       2.315   2.499  21.578  0.00  0.00    +0.000 A 
ATOM     18  C   UNL     1       3.483   2.452  20.820  0.00  0.00    +0.000 A 
ATOM     19  C   UNL     1       3.558   3.142  19.609  0.00  0.00    +0.000 A 
ENDBRANCH  13  14
ENDBRANCH  12  13
ENDBRANCH  11  12
ENDBRANCH   1  11
TORSDOF 8
ENDMDL
MODEL 5
REMARK VINA RESULT:      -6.5      1.592      2.123
REMARK  Name = 
REMARK  8 active torsions:
REMARK  status: ('A' for Active; 'I' for Inactive)
REMARK    1  A    between atoms: C_2  and  C_3
REMARK    2  A    between atoms: C_2  and  C_15
REMARK    3  A    between atoms: C_3  and  C_4
REMARK    4  A    between atoms: C_4  and  C_5
REMARK    5  A    between atoms: C_5  and  C_6
REMARK    6  A    between atoms: C_6  and  C_7
REMARK    7  A    between atoms: C_7  and  C_8
REMARK    8  A    between atoms: C_8  and  C_9
REMARK                            x       y       z     vdW  Elec       q    Type
REMARK                         _______ _______ _______ _____ _____    ______ ____
ROOT
ATOM      1  C   UNL     1       3.792   6.329  17.736  0.00  0.00    +0.000 C 
ENDROOT
BRANCH   1   2
ATOM      2  C   UNL     1       3.893   4.872  17.286  0.00  0.00    +0.000 C 
BRANCH   2   3
ATOM      3  C   UNL     1       4.931   4.077  18.079  0.00  0.00    +0.000 C 
BRANCH   3   5
ATOM      4  O   UNL     1       7.239   4.642  18.461  0.00  0.00    +0.000 OA
ATOM      5  C   UNL     1       6.348   4.428  17.637  0.00  0.00    +0.000 C 
BRANCH   5   6
ATOM      6  C   UNL     1       6.566   4.486  16.211  0.00  0.00    +0.000 A 
ATOM      7  N   UNL     1       7.205   5.417  15.530  0.00  0.00    +0.000 NA
ATOM      8  C   UNL     1       7.081   4.954  14.250  0.00  0.00    +0.000 A 
ATOM      9  N   UNL     1       6.413   3.807  14.110  0.00  0.00    +0.000 NA
ATOM     10  O   UNL     1       6.067   3.485  15.426  0.00  0.00    +0.000 OA
ENDBRANCH   5   6
ENDBRANCH   3   5
ENDBRANCH   2   3
ENDBRANCH   1   2
BRANCH   1  11
ATOM     11  C   UNL     1       3.588   6.404  19.252  0.00  0.00    +0.000 C 
BRANCH  11  12
ATOM     12  C   UNL     1       2.273   7.094  19.617  0.00  0.00    +0.000 C 
BRANCH  12  13
ATOM     13  C   UNL     1       1.543   6.334  20.728  0.00  0.00    +0.000 C 
BRANCH  13  14
ATOM     14  C   UNL     1       1.623   4.840  20.532  0.00  0.00    +0.000 A 
ATOM     15  C   UNL     1       2.334   4.039  21.435  0.00  0.00    +0.000 A 
ATOM     16  C   UNL     1       2.424   2.661  21.238  0.00  0.00    +0.000 A 
ATOM     17  C   UNL     1       1.810   2.071  20.134  0.00  0.00    +0.000 A 
ATOM     18  C   UNL     1       1.101   2.859  19.230  0.00  0.00    +0.000 A 
ATOM     19  C   UNL     1       1.009   4.238  19.426  0.00  0.00    +0.000 A 
ENDBRANCH  13  14
ENDBRANCH  12  13
ENDBRANCH  11  12
ENDBRANCH   1  11
TORSDOF 8
ENDMDL
MODEL 6
REMARK VINA RESULT:      -6.5      1.594      3.024
REMARK  Name = 
REMARK  8 active torsions:
REMARK  status: ('A' for Active; 'I' for Inactive)
REMARK    1  A    between atoms: C_2  and  C_3
REMARK    2  A    between atoms: C_2  and  C_15
REMARK    3  A    between atoms: C_3  and  C_4
REMARK    4  A    between atoms: C_4  and  C_5
REMARK    5  A    between atoms: C_5  and  C_6
REMARK    6  A    between atoms: C_6  and  C_7
REMARK    7  A    between atoms: C_7  and  C_8
REMARK    8  A    between atoms: C_8  and  C_9
REMARK                            x       y       z     vdW  Elec       q    Type
REMARK                         _______ _______ _______ _____ _____    ______ ____
ROOT
ATOM      1  C   UNL     1       4.572   2.589  20.062  0.00  0.00    +0.000 C 
ENDROOT
BRANCH   1   2
ATOM      2  C   UNL     1       4.918   3.934  19.426  0.00  0.00    +0.000 C 
BRANCH   2   3
ATOM      3  C   UNL     1       5.145   3.837  17.917  0.00  0.00    +0.000 C 
BRANCH   3   5
ATOM      4  O   UNL     1       7.313   4.776  18.377  0.00  0.00    +0.000 OA
ATOM      5  C   UNL     1       6.488   4.444  17.524  0.00  0.00    +0.000 C 
BRANCH   5   6
ATOM      6  C   UNL     1       6.720   4.593  16.107  0.00  0.00    +0.000 A 
ATOM      7  N   UNL     1       6.197   3.885  15.126  0.00  0.00    +0.000 NA
ATOM      8  C   UNL     1       6.780   4.459  14.031  0.00  0.00    +0.000 A 
ATOM      9  N   UNL     1       7.618   5.467  14.283  0.00  0.00    +0.000 NA
ATOM     10  O   UNL     1       7.580   5.564  15.677  0.00  0.00    +0.000 OA
ENDBRANCH   5   6
ENDBRANCH   3   5
ENDBRANCH   2   3
ENDBRANCH   1   2
BRANCH   1  11
ATOM     11  C   UNL     1       3.077   2.295  19.905  0.00  0.00    +0.000 C 
BRANCH  11  12
ATOM     12  C   UNL     1       2.258   2.876  21.058  0.00  0.00    +0.000 C 
BRANCH  12  13
ATOM     13  C   UNL     1       1.080   3.703  20.535  0.00  0.00    +0.000 C 
BRANCH  13  14
ATOM     14  C   UNL     1       1.543   4.962  19.843  0.00  0.00    +0.000 A 
ATOM     15  C   UNL     1       1.759   4.976  18.459  0.00  0.00    +0.000 A 
ATOM     16  C   UNL     1       2.208   6.136  17.826  0.00  0.00    +0.000 A 
ATOM     17  C   UNL     1       2.450   7.289  18.571  0.00  0.00    +0.000 A 
ATOM     18  C   UNL     1       2.238   7.285  19.948  0.00  0.00    +0.000 A 
ATOM     19  C   UNL     1       1.789   6.126  20.582  0.00  0.00    +0.000 A 
ENDBRANCH  13  14
ENDBRANCH  12  13
ENDBRANCH  11  12
ENDBRANCH   1  11
TORSDOF 8
ENDMDL
MODEL 7
REMARK VINA RESULT:      -6.5      1.671      2.187
REMARK  Name = 
REMARK  8 active torsions:
REMARK  status: ('A' for Active; 'I' for Inactive)
REMARK    1  A    between atoms: C_2  and  C_3
REMARK    2  A    between atoms: C_2  and  C_15
REMARK    3  A    between atoms: C_3  and  C_4
REMARK    4  A    between atoms: C_4  and  C_5
REMARK    5  A    between atoms: C_5  and  C_6
REMARK    6  A    between atoms: C_6  and  C_7
REMARK    7  A    between atoms: C_7  and  C_8
REMARK    8  A    between atoms: C_8  and  C_9
REMARK                            x       y       z     vdW  Elec       q    Type
REMARK                         _______ _______ _______ _____ _____    ______ ____
ROOT
ATOM      1  C   UNL     1       3.663   7.168  17.487  0.00  0.00    +0.000 C 
ENDROOT
BRANCH   1   2
ATOM      2  C   UNL     1       5.103   6.665  17.390  0.00  0.00    +0.000 C 
BRANCH   2   3
ATOM      3  C   UNL     1       5.193   5.143  17.263  0.00  0.00    +0.000 C 
BRANCH   3   5
ATOM      4  O   UNL     1       7.470   4.445  17.610  0.00  0.00    +0.000 OA
ATOM      5  C   UNL     1       6.581   4.712  16.800  0.00  0.00    +0.000 C 
BRANCH   5   6
ATOM      6  C   UNL     1       6.771   4.635  15.371  0.00  0.00    +0.000 A 
ATOM      7  N   UNL     1       6.215   3.786  14.528  0.00  0.00    +0.000 NA
ATOM      8  C   UNL     1       6.767   4.177  13.340  0.00  0.00    +0.000 A 
ATOM      9  N   UNL     1       7.617   5.204  13.407  0.00  0.00    +0.000 NA
ATOM     10  O   UNL     1       7.621   5.519  14.769  0.00  0.00    +0.000 OA
ENDBRANCH   5   6
ENDBRANCH   3   5
ENDBRANCH   2   3
ENDBRANCH   1   2
BRANCH   1  11
ATOM     11  C   UNL     1       2.876   6.332  18.501  0.00  0.00    +0.000 C 
BRANCH  11  12
ATOM     12  C   UNL     1       1.577   5.790  17.906  0.00  0.00    +0.000 C 
BRANCH  12  13
ATOM     13  C   UNL     1       1.606   4.261  17.821  0.00  0.00    +0.000 C 
BRANCH  13  14
ATOM     14  C   UNL     1       1.969   3.633  19.144  0.00  0.00    +0.000 A 
ATOM     15  C   UNL     1       3.186   2.957  19.303  0.00  0.00    +0.000 A 
ATOM     16  C   UNL     1       3.508   2.358  20.522  0.00  0.00    +0.000 A 
ATOM     17  C   UNL     1       2.616   2.427  21.591  0.00  0.00    +0.000 A 
ATOM     18  C   UNL     1       1.404   3.098  21.444  0.00  0.00    +0.000 A 
ATOM     19  C   UNL     1       1.080   3.696  20.225  0.00  0.00    +0.000 A 
ENDBRANCH  13  14
ENDBRANCH  12  13
ENDBRANCH  11  12
ENDBRANCH   1  11
TORSDOF 8
ENDMDL
MODEL 8
REMARK VINA RESULT:      -6.5      1.505      2.722
REMARK  Name = 
REMARK  8 active torsions:
REMARK  status: ('A' for Active; 'I' for Inactive)
REMARK    1  A    between atoms: C_2  and  C_3
REMARK    2  A    between atoms: C_2  and  C_15
REMARK    3  A    between atoms: C_3  and  C_4
REMARK    4  A    between atoms: C_4  and  C_5
REMARK    5  A    between atoms: C_5  and  C_6
REMARK    6  A    between atoms: C_6  and  C_7
REMARK    7  A    between atoms: C_7  and  C_8
REMARK    8  A    between atoms: C_8  and  C_9
REMARK                            x       y       z     vdW  Elec       q    Type
REMARK                         _______ _______ _______ _____ _____    ______ ____
ROOT
ATOM      1  C   UNL     1       3.861   4.460  17.238  0.00  0.00    +0.000 C 
ENDROOT
BRANCH   1   2
ATOM      2  C   UNL     1       4.858   4.124  16.130  0.00  0.00    +0.000 C 
BRANCH   2   3
ATOM      3  C   UNL     1       5.465   5.367  15.480  0.00  0.00    +0.000 C 
BRANCH   3   5
ATOM      4  O   UNL     1       7.758   5.326  14.752  0.00  0.00    +0.000 OA
ATOM      5  C   UNL     1       6.974   5.420  15.697  0.00  0.00    +0.000 C 
BRANCH   5   6
ATOM      6  C   UNL     1       7.406   5.591  17.063  0.00  0.00    +0.000 A 
ATOM      7  N   UNL     1       7.615   4.653  17.967  0.00  0.00    +0.000 NA
ATOM      8  C   UNL     1       7.990   5.395  19.052  0.00  0.00    +0.000 A 
ATOM      9  N   UNL     1       8.023   6.717  18.867  0.00  0.00    +0.000 NA
ATOM     10  O   UNL     1       7.635   6.855  17.530  0.00  0.00    +0.000 OA
ENDBRANCH   5   6
ENDBRANCH   3   5
ENDBRANCH   2   3
ENDBRANCH   1   2
BRANCH   1  11
ATOM     11  C   UNL     1       3.874   5.965  17.526  0.00  0.00    +0.000 C 
BRANCH  11  12
ATOM     12  C   UNL     1       2.537   6.450  18.087  0.00  0.00    +0.000 C 
BRANCH  12  13
ATOM     13  C   UNL     1       2.520   6.365  19.616  0.00  0.00    +0.000 C 
BRANCH  13  14
ATOM     14  C   UNL     1       2.088   5.001  20.097  0.00  0.00    +0.000 A 
ATOM     15  C   UNL     1       1.185   4.234  19.349  0.00  0.00    +0.000 A 
ATOM     16  C   UNL     1       0.771   2.983  19.808  0.00  0.00    +0.000 A 
ATOM     17  C   UNL     1       1.252   2.489  21.019  0.00  0.00    +0.000 A 
ATOM     18  C   UNL     1       2.150   3.244  21.770  0.00  0.00    +0.000 A 
ATOM     19  C   UNL     1       2.565   4.495  21.313  0.00  0.00    +0.000 A 
ENDBRANCH  13  14
ENDBRANCH  12  13
ENDBRANCH  11  12
ENDBRANCH   1  11
TORSDOF 8
ENDMDL
MODEL 9
REMARK VINA RESULT:      -6.5      1.388      2.305
REMARK  Name = 
REMARK  8 active torsions:
REMARK  status: ('A' for Active; 'I' for Inactive)
REMARK    1  A    between atoms: C_2  and  C_3
REMARK    2  A    between atoms: C_2  and  C_15
REMARK    3  A    between atoms: C_3  and  C_4
REMARK    4  A    between atoms: C_4  and  C_5
REMARK    5  A    between atoms: C_5  and  C_6
REMARK    6  A    between atoms: C_6  and  C_7
REMARK    7  A    between atoms: C_7  and  C_8
REMARK    8  A    between atoms: C_8  and  C_9
REMARK                            x       y       z     vdW  Elec       q    Type
REMARK                         _______ _______ _______ _____ _____    ______ ____
ROOT
ATOM      1  C   UNL     1       5.110   4.009  18.401  0.00  0.00    +0.000 C 
ENDROOT
BRANCH   1   2
ATOM      2  C   UNL     1       4.863   4.166  16.901  0.00  0.00    +0.000 C 
BRANCH   2   3
ATOM      3  C   UNL     1       6.095   3.831  16.058  0.00  0.00    +0.000 C 
BRANCH   3   5
ATOM      4  O   UNL     1       7.042   5.328  14.429  0.00  0.00    +0.000 OA
ATOM      5  C   UNL     1       6.821   5.099  15.619  0.00  0.00    +0.000 C 
BRANCH   5   6
ATOM      6  C   UNL     1       7.217   5.995  16.679  0.00  0.00    +0.000 A 
ATOM      7  N   UNL     1       7.892   5.702  17.773  0.00  0.00    +0.000 NA
ATOM      8  C   UNL     1       7.956   6.920  18.391  0.00  0.00    +0.000 A 
ATOM      9  N   UNL     1       7.367   7.928  17.746  0.00  0.00    +0.000 NA
ATOM     10  O   UNL     1       6.871   7.314  16.592  0.00  0.00    +0.000 OA
ENDBRANCH   5   6
ENDBRANCH   3   5
ENDBRANCH   2   3
ENDBRANCH   1   2
BRANCH   1  11
ATOM     11  C   UNL     1       4.586   5.235  19.155  0.00  0.00    +0.000 C 
BRANCH  11  12
ATOM     12  C   UNL     1       3.898   6.229  18.220  0.00  0.00    +0.000 C 
BRANCH  12  13
ATOM     13  C   UNL     1       2.398   6.317  18.519  0.00  0.00    +0.000 C 
BRANCH  13  14
ATOM     14  C   UNL     1       1.851   5.008  19.033  0.00  0.00    +0.000 A 
ATOM     15  C   UNL     1       1.752   4.768  20.410  0.00  0.00    +0.000 A 
ATOM     16  C   UNL     1       1.267   3.548  20.882  0.00  0.00    +0.000 A 
ATOM     17  C   UNL     1       0.881   2.555  19.983  0.00  0.00    +0.000 A 
ATOM     18  C   UNL     1       0.975   2.784  18.612  0.00  0.00    +0.000 A 
ATOM     19  C   UNL     1       1.461   4.003  18.138  0.00  0.00    +0.000 A 
ENDBRANCH  13  14
ENDBRANCH  12  13
ENDBRANCH  11  12
ENDBRANCH   1  11
TORSDOF 8
ENDMDL
