MODEL 1
REMARK VINA RESULT:      -7.9      0.000      0.000
REMARK  Name = 
REMARK  9 active torsions:
REMARK  status: ('A' for Active; 'I' for Inactive)
REMARK    1  A    between atoms: C_1  and  C_2
REMARK    2  A    between atoms: C_6  and  C_7
REMARK    3  A    between atoms: C_10  and  S_11
REMARK    4  A    between atoms: S_11  and  C_12
REMARK    5  A    between atoms: C_12  and  C_13
REMARK    6  A    between atoms: C_13  and  C_14
REMARK    7  A    between atoms: C_14  and  N_15
REMARK    8  A    between atoms: N_20  and  C_21
REMARK    9  A    between atoms: N_31  and  C_32
REMARK                            x       y       z     vdW  Elec       q    Type
REMARK                         _______ _______ _______ _____ _____    ______ ____
ROOT
ATOM      1  C   UNL     1       1.753   8.041  20.054  0.00  0.00    +0.000 C 
ENDROOT
BRANCH   1   2
ATOM      2  N   UNL     1       0.995   8.114  21.311  0.00  0.00    +0.000 NA
ATOM      3  C   UNL     1       1.438   9.160  22.244  0.00  0.00    +0.000 C 
ATOM      4  C   UNL     1       0.536  10.383  22.081  0.00  0.00    +0.000 C 
ATOM      5  C   UNL     1       1.166  11.594  21.410  0.00  0.00    +0.000 C 
ATOM      6  C   UNL     1       0.861  11.456  19.927  0.00  0.00    +0.000 C 
ATOM      7  N   UNL     1      -0.346  10.635  19.867  0.00  0.00    +0.000 N 
ATOM      8  C   UNL     1      -0.597   9.949  21.150  0.00  0.00    +0.000 C 
ATOM      9  C   UNL     1      -0.432   8.423  21.069  0.00  0.00    +0.000 C 
BRANCH   7  10
ATOM     10  C   UNL     1      -1.226  10.630  18.797  0.00  0.00    +0.000 A 
ATOM     11  C   UNL     1      -0.959   9.802  17.683  0.00  0.00    +0.000 A 
ATOM     12  C   UNL     1      -1.807   9.725  16.570  0.00  0.00    +0.000 A 
ATOM     13  C   UNL     1      -2.954  10.498  16.526  0.00  0.00    +0.000 A 
ATOM     14 CL   UNL     1      -3.993  10.419  15.158  0.00  0.00    +0.000 Cl
ATOM     15  C   UNL     1      -3.259  11.338  17.583  0.00  0.00    +0.000 A 
ATOM     16  C   UNL     1      -2.412  11.405  18.705  0.00  0.00    +0.000 A 
ATOM     17 CL   UNL     1      -2.908  12.562  19.900  0.00  0.00    +0.000 Cl
ENDBRANCH   7  10
ENDBRANCH   1   2
BRANCH   1  18
ATOM     18  C   UNL     1       2.239   6.637  19.659  0.00  0.00    +0.000 C 
BRANCH  18  19
ATOM     19  C   UNL     1       1.949   5.608  20.750  0.00  0.00    +0.000 C 
BRANCH  19  20
ATOM     20  S   UNL     1       2.258   3.889  20.216  0.00  0.00    +0.000 S 
BRANCH  20  24
ATOM     21  C   UNL     1       5.396   4.348  18.016  0.00  0.00    +0.000 A 
ATOM     22  N   UNL     1       5.958   4.292  19.208  0.00  0.00    +0.000 NA
ATOM     23  N   UNL     1       4.971   4.064  20.132  0.00  0.00    +0.000 NA
ATOM     24  C   UNL     1       3.825   4.009  19.495  0.00  0.00    +0.000 A 
ATOM     25  N   UNL     1       4.045   4.117  18.147  0.00  0.00    +0.000 N 
ATOM     26  C   UNL     1       3.092   4.008  17.075  0.00  0.00    +0.000 C 
BRANCH  21  32
ATOM     27  C   UNL     1       7.315   6.858  17.281  0.00  0.00    +0.000 C 
ATOM     28  C   UNL     1       6.931   5.680  16.472  0.00  0.00    +0.000 A 
ATOM     29  N   UNL     1       7.415   5.531  15.189  0.00  0.00    +0.000 NA
ATOM     30  C   UNL     1       6.868   4.407  14.786  0.00  0.00    +0.000 A 
ATOM     31  O   UNL     1       6.062   3.802  15.691  0.00  0.00    +0.000 OA
ATOM     32  C   UNL     1       6.103   4.616  16.803  0.00  0.00    +0.000 A 
ENDBRANCH  21  32
ENDBRANCH  20  24
ENDBRANCH  19  20
ENDBRANCH  18  19
ENDBRANCH   1  18
TORSDOF 7
ENDMDL
MODEL 2
REMARK VINA RESULT:      -7.9      6.425      9.274
REMARK  Name = 
REMARK  9 active torsions:
REMARK  status: ('A' for Active; 'I' for Inactive)
REMARK    1  A    between atoms: C_1  and  C_2
REMARK    2  A    between atoms: C_6  and  C_7
REMARK    3  A    between atoms: C_10  and  S_11
REMARK    4  A    between atoms: S_11  and  C_12
REMARK    5  A    between atoms: C_12  and  C_13
REMARK    6  A    between atoms: C_13  and  C_14
REMARK    7  A    between atoms: C_14  and  N_15
REMARK    8  A    between atoms: N_20  and  C_21
REMARK    9  A    between atoms: N_31  and  C_32
REMARK                            x       y       z     vdW  Elec       q    Type
REMARK                         _______ _______ _______ _____ _____    ______ ____
ROOT
ATOM      1  C   UNL     1       9.140  10.249  19.243  0.00  0.00    +0.000 C 
ENDROOT
BRANCH   1   2
ATOM      2  N   UNL     1      10.450  10.822  18.905  0.00  0.00    +0.000 NA
ATOM      3  C   UNL     1      10.449  11.747  17.763  0.00  0.00    +0.000 C 
ATOM      4  C   UNL     1      10.392  13.181  18.289  0.00  0.00    +0.000 C 
ATOM      5  C   UNL     1       9.078  13.918  18.081  0.00  0.00    +0.000 C 
ATOM      6  C   UNL     1       8.257  13.669  19.337  0.00  0.00    +0.000 C 
ATOM      7  N   UNL     1       9.241  13.391  20.380  0.00  0.00    +0.000 N 
ATOM      8  C   UNL     1      10.564  13.081  19.804  0.00  0.00    +0.000 C 
ATOM      9  C   UNL     1      10.999  11.623  20.022  0.00  0.00    +0.000 C 
BRANCH   7  10
ATOM     10  C   UNL     1       9.001  13.557  21.734  0.00  0.00    +0.000 A 
ATOM     11  C   UNL     1       8.418  12.500  22.469  0.00  0.00    +0.000 A 
ATOM     12  C   UNL     1       8.159  12.580  23.845  0.00  0.00    +0.000 A 
ATOM     13  C   UNL     1       8.461  13.741  24.534  0.00  0.00    +0.000 A 
ATOM     14 CL   UNL     1       8.136  13.852  26.218  0.00  0.00    +0.000 Cl
ATOM     15  C   UNL     1       9.022  14.814  23.861  0.00  0.00    +0.000 A 
ATOM     16  C   UNL     1       9.291  14.727  22.484  0.00  0.00    +0.000 A 
ATOM     17 CL   UNL     1       9.923  16.188  21.791  0.00  0.00    +0.000 Cl
ENDBRANCH   7  10
ENDBRANCH   1   2
BRANCH   1  18
ATOM     18  C   UNL     1       8.446   9.479  18.109  0.00  0.00    +0.000 C 
BRANCH  18  19
ATOM     19  C   UNL     1       8.298   7.994  18.438  0.00  0.00    +0.000 C 
BRANCH  19  20
ATOM     20  S   UNL     1       7.303   7.081  17.209  0.00  0.00    +0.000 S 
BRANCH  20  24
ATOM     21  C   UNL     1       4.644   4.978  19.055  0.00  0.00    +0.000 A 
ATOM     22  N   UNL     1       5.743   4.399  19.498  0.00  0.00    +0.000 NA
ATOM     23  N   UNL     1       6.818   5.074  18.979  0.00  0.00    +0.000 NA
ATOM     24  C   UNL     1       6.359   6.035  18.212  0.00  0.00    +0.000 A 
ATOM     25  N   UNL     1       4.992   6.060  18.277  0.00  0.00    +0.000 N 
ATOM     26  C   UNL     1       4.085   7.005  17.679  0.00  0.00    +0.000 C 
BRANCH  21  32
ATOM     27  C   UNL     1       2.639   3.206  17.220  0.00  0.00    +0.000 C 
ATOM     28  C   UNL     1       2.450   3.765  18.578  0.00  0.00    +0.000 A 
ATOM     29  N   UNL     1       1.269   3.551  19.258  0.00  0.00    +0.000 NA
ATOM     30  C   UNL     1       1.452   4.186  20.393  0.00  0.00    +0.000 A 
ATOM     31  O   UNL     1       2.652   4.803  20.521  0.00  0.00    +0.000 OA
ATOM     32  C   UNL     1       3.320   4.525  19.347  0.00  0.00    +0.000 A 
ENDBRANCH  21  32
ENDBRANCH  20  24
ENDBRANCH  19  20
ENDBRANCH  18  19
ENDBRANCH   1  18
TORSDOF 7
ENDMDL
MODEL 3
REMARK VINA RESULT:      -7.9      4.725      9.929
REMARK  Name = 
REMARK  9 active torsions:
REMARK  status: ('A' for Active; 'I' for Inactive)
REMARK    1  A    between atoms: C_1  and  C_2
REMARK    2  A    between atoms: C_6  and  C_7
REMARK    3  A    between atoms: C_10  and  S_11
REMARK    4  A    between atoms: S_11  and  C_12
REMARK    5  A    between atoms: C_12  and  C_13
REMARK    6  A    between atoms: C_13  and  C_14
REMARK    7  A    between atoms: C_14  and  N_15
REMARK    8  A    between atoms: N_20  and  C_21
REMARK    9  A    between atoms: N_31  and  C_32
REMARK                            x       y       z     vdW  Elec       q    Type
REMARK                         _______ _______ _______ _____ _____    ______ ____
ROOT
ATOM      1  C   UNL     1       1.952   6.341  20.062  0.00  0.00    +0.000 C 
ENDROOT
BRANCH   1   2
ATOM      2  N   UNL     1       2.366   5.166  20.842  0.00  0.00    +0.000 NA
ATOM      3  C   UNL     1       1.412   4.048  20.835  0.00  0.00    +0.000 C 
ATOM      4  C   UNL     1       1.854   3.026  19.789  0.00  0.00    +0.000 C 
ATOM      5  C   UNL     1       0.998   2.941  18.534  0.00  0.00    +0.000 C 
ATOM      6  C   UNL     1       1.628   3.896  17.533  0.00  0.00    +0.000 C 
ATOM      7  N   UNL     1       3.028   3.995  17.938  0.00  0.00    +0.000 N 
ATOM      8  C   UNL     1       3.231   3.485  19.308  0.00  0.00    +0.000 C 
ATOM      9  C   UNL     1       3.619   4.578  20.317  0.00  0.00    +0.000 C 
BRANCH   7  10
ATOM     10  C   UNL     1       4.055   4.370  17.087  0.00  0.00    +0.000 A 
ATOM     11  C   UNL     1       4.801   3.372  16.420  0.00  0.00    +0.000 A 
ATOM     12  C   UNL     1       5.843   3.665  15.529  0.00  0.00    +0.000 A 
ATOM     13  C   UNL     1       6.188   4.984  15.289  0.00  0.00    +0.000 A 
ATOM     14 CL   UNL     1       7.473   5.353  14.207  0.00  0.00    +0.000 Cl
ATOM     15  C   UNL     1       5.500   6.003  15.925  0.00  0.00    +0.000 A 
ATOM     16  C   UNL     1       4.447   5.705  16.809  0.00  0.00    +0.000 A 
ATOM     17 CL   UNL     1       3.747   7.098  17.572  0.00  0.00    +0.000 Cl
ENDBRANCH   7  10
ENDBRANCH   1   2
BRANCH   1  18
ATOM     18  C   UNL     1       1.285   7.465  20.870  0.00  0.00    +0.000 C 
BRANCH  18  19
ATOM     19  C   UNL     1       1.709   8.848  20.379  0.00  0.00    +0.000 C 
BRANCH  19  20
ATOM     20  S   UNL     1       0.310   9.862  19.790  0.00  0.00    +0.000 S 
BRANCH  20  24
ATOM     21  C   UNL     1      -1.503  11.698  22.662  0.00  0.00    +0.000 A 
ATOM     22  N   UNL     1      -0.617  11.008  23.353  0.00  0.00    +0.000 NA
ATOM     23  N   UNL     1       0.175  10.325  22.467  0.00  0.00    +0.000 NA
ATOM     24  C   UNL     1      -0.253  10.589  21.255  0.00  0.00    +0.000 A 
ATOM     25  N   UNL     1      -1.271  11.503  21.319  0.00  0.00    +0.000 N 
ATOM     26  C   UNL     1      -1.963  12.146  20.233  0.00  0.00    +0.000 C 
BRANCH  21  32
ATOM     27  C   UNL     1      -1.296  14.672  23.941  0.00  0.00    +0.000 C 
ATOM     28  C   UNL     1      -2.464  13.775  23.791  0.00  0.00    +0.000 A 
ATOM     29  N   UNL     1      -3.708  14.177  24.231  0.00  0.00    +0.000 NA
ATOM     30  C   UNL     1      -4.476  13.149  23.951  0.00  0.00    +0.000 A 
ATOM     31  O   UNL     1      -3.846  12.102  23.365  0.00  0.00    +0.000 OA
ATOM     32  C   UNL     1      -2.532  12.502  23.243  0.00  0.00    +0.000 A 
ENDBRANCH  21  32
ENDBRANCH  20  24
ENDBRANCH  19  20
ENDBRANCH  18  19
ENDBRANCH   1  18
TORSDOF 7
ENDMDL
MODEL 4
REMARK VINA RESULT:      -7.8      6.305      9.116
REMARK  Name = 
REMARK  9 active torsions:
REMARK  status: ('A' for Active; 'I' for Inactive)
REMARK    1  A    between atoms: C_1  and  C_2
REMARK    2  A    between atoms: C_6  and  C_7
REMARK    3  A    between atoms: C_10  and  S_11
REMARK    4  A    between atoms: S_11  and  C_12
REMARK    5  A    between atoms: C_12  and  C_13
REMARK    6  A    between atoms: C_13  and  C_14
REMARK    7  A    between atoms: C_14  and  N_15
REMARK    8  A    between atoms: N_20  and  C_21
REMARK    9  A    between atoms: N_31  and  C_32
REMARK                            x       y       z     vdW  Elec       q    Type
REMARK                         _______ _______ _______ _____ _____    ______ ____
ROOT
ATOM      1  C   UNL     1       8.988  10.849  18.183  0.00  0.00    +0.000 C 
ENDROOT
BRANCH   1   2
ATOM      2  N   UNL     1      10.394  11.276  18.149  0.00  0.00    +0.000 NA
ATOM      3  C   UNL     1      10.655  12.497  17.374  0.00  0.00    +0.000 C 
ATOM      4  C   UNL     1      10.720  13.686  18.331  0.00  0.00    +0.000 C 
ATOM      5  C   UNL     1       9.549  14.655  18.275  0.00  0.00    +0.000 C 
ATOM      6  C   UNL     1       8.554  14.166  19.316  0.00  0.00    +0.000 C 
ATOM      7  N   UNL     1       9.357  13.423  20.283  0.00  0.00    +0.000 N 
ATOM      8  C   UNL     1      10.689  13.095  19.740  0.00  0.00    +0.000 C 
ATOM      9  C   UNL     1      10.900  11.591  19.504  0.00  0.00    +0.000 C 
BRANCH   7  10
ATOM     10  C   UNL     1       8.974  13.197  21.596  0.00  0.00    +0.000 A 
ATOM     11  C   UNL     1       8.428  11.944  21.953  0.00  0.00    +0.000 A 
ATOM     12  C   UNL     1       8.034  11.629  23.261  0.00  0.00    +0.000 A 
ATOM     13  C   UNL     1       8.157  12.576  24.262  0.00  0.00    +0.000 A 
ATOM     14 CL   UNL     1       7.664  12.203  25.866  0.00  0.00    +0.000 Cl
ATOM     15  C   UNL     1       8.674  13.827  23.966  0.00  0.00    +0.000 A 
ATOM     16  C   UNL     1       9.080  14.136  22.655  0.00  0.00    +0.000 A 
ATOM     17 CL   UNL     1       9.632  15.769  22.451  0.00  0.00    +0.000 Cl
ENDBRANCH   7  10
ENDBRANCH   1   2
BRANCH   1  18
ATOM     18  C   UNL     1       8.758   9.369  18.530  0.00  0.00    +0.000 C 
BRANCH  18  19
ATOM     19  C   UNL     1       7.480   8.828  17.891  0.00  0.00    +0.000 C 
BRANCH  19  20
ATOM     20  S   UNL     1       7.704   7.193  17.110  0.00  0.00    +0.000 S 
BRANCH  20  24
ATOM     21  C   UNL     1       5.305   4.788  18.945  0.00  0.00    +0.000 A 
ATOM     22  N   UNL     1       6.324   4.780  19.782  0.00  0.00    +0.000 NA
ATOM     23  N   UNL     1       7.271   5.651  19.308  0.00  0.00    +0.000 NA
ATOM     24  C   UNL     1       6.827   6.156  18.182  0.00  0.00    +0.000 A 
ATOM     25  N   UNL     1       5.561   5.694  17.940  0.00  0.00    +0.000 N 
ATOM     26  C   UNL     1       4.662   6.063  16.878  0.00  0.00    +0.000 C 
BRANCH  21  32
ATOM     27  C   UNL     1       2.414   5.542  20.208  0.00  0.00    +0.000 C 
ATOM     28  C   UNL     1       2.897   4.274  19.615  0.00  0.00    +0.000 A 
ATOM     29  N   UNL     1       2.060   3.181  19.537  0.00  0.00    +0.000 NA
ATOM     30  C   UNL     1       2.812   2.261  18.979  0.00  0.00    +0.000 A 
ATOM     31  O   UNL     1       4.076   2.651  18.683  0.00  0.00    +0.000 OA
ATOM     32  C   UNL     1       4.142   3.970  19.082  0.00  0.00    +0.000 A 
ENDBRANCH  21  32
ENDBRANCH  20  24
ENDBRANCH  19  20
ENDBRANCH  18  19
ENDBRANCH   1  18
TORSDOF 7
ENDMDL
MODEL 5
REMARK VINA RESULT:      -7.7      6.005      8.452
REMARK  Name = 
REMARK  9 active torsions:
REMARK  status: ('A' for Active; 'I' for Inactive)
REMARK    1  A    between atoms: C_1  and  C_2
REMARK    2  A    between atoms: C_6  and  C_7
REMARK    3  A    between atoms: C_10  and  S_11
REMARK    4  A    between atoms: S_11  and  C_12
REMARK    5  A    between atoms: C_12  and  C_13
REMARK    6  A    between atoms: C_13  and  C_14
REMARK    7  A    between atoms: C_14  and  N_15
REMARK    8  A    between atoms: N_20  and  C_21
REMARK    9  A    between atoms: N_31  and  C_32
REMARK                            x       y       z     vdW  Elec       q    Type
REMARK                         _______ _______ _______ _____ _____    ______ ____
ROOT
ATOM      1  C   UNL     1       9.377  10.621  18.052  0.00  0.00    +0.000 C 
ENDROOT
BRANCH   1   2
ATOM      2  N   UNL     1      10.000  10.842  19.365  0.00  0.00    +0.000 NA
ATOM      3  C   UNL     1      11.394  11.308  19.321  0.00  0.00    +0.000 C 
ATOM      4  C   UNL     1      11.413  12.826  19.489  0.00  0.00    +0.000 C 
ATOM      5  C   UNL     1      11.765  13.632  18.248  0.00  0.00    +0.000 C 
ATOM      6  C   UNL     1      10.443  13.954  17.570  0.00  0.00    +0.000 C 
ATOM      7  N   UNL     1       9.451  13.910  18.642  0.00  0.00    +0.000 N 
ATOM      8  C   UNL     1       9.981  13.230  19.839  0.00  0.00    +0.000 C 
ATOM      9  C   UNL     1       9.291  11.888  20.135  0.00  0.00    +0.000 C 
BRANCH   7  10
ATOM     10  C   UNL     1       8.231  14.565  18.594  0.00  0.00    +0.000 A 
ATOM     11  C   UNL     1       7.177  14.012  17.832  0.00  0.00    +0.000 A 
ATOM     12  C   UNL     1       5.908  14.601  17.746  0.00  0.00    +0.000 A 
ATOM     13  C   UNL     1       5.656  15.787  18.412  0.00  0.00    +0.000 A 
ATOM     14 CL   UNL     1       4.106  16.524  18.302  0.00  0.00    +0.000 Cl
ATOM     15  C   UNL     1       6.656  16.382  19.163  0.00  0.00    +0.000 A 
ATOM     16  C   UNL     1       7.925  15.782  19.257  0.00  0.00    +0.000 A 
ATOM     17 CL   UNL     1       9.077  16.700  20.176  0.00  0.00    +0.000 Cl
ENDBRANCH   7  10
ENDBRANCH   1   2
BRANCH   1  18
ATOM     18  C   UNL     1       8.082   9.793  18.069  0.00  0.00    +0.000 C 
BRANCH  18  19
ATOM     19  C   UNL     1       8.363   8.303  18.253  0.00  0.00    +0.000 C 
BRANCH  19  20
ATOM     20  S   UNL     1       7.442   7.248  17.082  0.00  0.00    +0.000 S 
BRANCH  20  24
ATOM     21  C   UNL     1       5.003   5.000  19.056  0.00  0.00    +0.000 A 
ATOM     22  N   UNL     1       6.155   4.548  19.515  0.00  0.00    +0.000 NA
ATOM     23  N   UNL     1       7.158   5.294  18.952  0.00  0.00    +0.000 NA
ATOM     24  C   UNL     1       6.607   6.169  18.144  0.00  0.00    +0.000 A 
ATOM     25  N   UNL     1       5.243   6.069  18.223  0.00  0.00    +0.000 N 
ATOM     26  C   UNL     1       4.249   6.896  17.590  0.00  0.00    +0.000 C 
BRANCH  21  32
ATOM     27  C   UNL     1       3.615   2.286  17.946  0.00  0.00    +0.000 C 
ATOM     28  C   UNL     1       3.121   3.282  18.924  0.00  0.00    +0.000 A 
ATOM     29  N   UNL     1       1.887   3.118  19.516  0.00  0.00    +0.000 NA
ATOM     30  C   UNL     1       1.782   4.170  20.297  0.00  0.00    +0.000 A 
ATOM     31  O   UNL     1       2.841   5.015  20.268  0.00  0.00    +0.000 OA
ATOM     32  C   UNL     1       3.729   4.441  19.384  0.00  0.00    +0.000 A 
ENDBRANCH  21  32
ENDBRANCH  20  24
ENDBRANCH  19  20
ENDBRANCH  18  19
ENDBRANCH   1  18
TORSDOF 7
ENDMDL
MODEL 6
REMARK VINA RESULT:      -7.6      6.648      9.494
REMARK  Name = 
REMARK  9 active torsions:
REMARK  status: ('A' for Active; 'I' for Inactive)
REMARK    1  A    between atoms: C_1  and  C_2
REMARK    2  A    between atoms: C_6  and  C_7
REMARK    3  A    between atoms: C_10  and  S_11
REMARK    4  A    between atoms: S_11  and  C_12
REMARK    5  A    between atoms: C_12  and  C_13
REMARK    6  A    between atoms: C_13  and  C_14
REMARK    7  A    between atoms: C_14  and  N_15
REMARK    8  A    between atoms: N_20  and  C_21
REMARK    9  A    between atoms: N_31  and  C_32
REMARK                            x       y       z     vdW  Elec       q    Type
REMARK                         _______ _______ _______ _____ _____    ______ ____
ROOT
ATOM      1  C   UNL     1       9.534  10.702  19.458  0.00  0.00    +0.000 C 
ENDROOT
BRANCH   1   2
ATOM      2  N   UNL     1      10.893  11.165  19.147  0.00  0.00    +0.000 NA
ATOM      3  C   UNL     1      11.005  12.007  17.948  0.00  0.00    +0.000 C 
ATOM      4  C   UNL     1      11.019  13.475  18.373  0.00  0.00    +0.000 C 
ATOM      5  C   UNL     1       9.767  14.276  18.052  0.00  0.00    +0.000 C 
ATOM      6  C   UNL     1       8.876  14.168  19.279  0.00  0.00    +0.000 C 
ATOM      7  N   UNL     1       9.792  13.902  20.386  0.00  0.00    +0.000 N 
ATOM      8  C   UNL     1      11.116  13.471  19.898  0.00  0.00    +0.000 C 
ATOM      9  C   UNL     1      11.443  12.007  20.234  0.00  0.00    +0.000 C 
BRANCH   7  10
ATOM     10  C   UNL     1       9.502  14.177  21.713  0.00  0.00    +0.000 A 
ATOM     11  C   UNL     1       9.895  15.417  22.266  0.00  0.00    +0.000 A 
ATOM     12  C   UNL     1       9.624  15.780  23.592  0.00  0.00    +0.000 A 
ATOM     13  C   UNL     1       8.961  14.895  24.424  0.00  0.00    +0.000 A 
ATOM     14 CL   UNL     1       8.636  15.327  26.056  0.00  0.00    +0.000 Cl
ATOM     15  C   UNL     1       8.564  13.660  23.939  0.00  0.00    +0.000 A 
ATOM     16  C   UNL     1       8.826  13.303  22.604  0.00  0.00    +0.000 A 
ATOM     17 CL   UNL     1       8.327  11.693  22.189  0.00  0.00    +0.000 Cl
ENDBRANCH   7  10
ENDBRANCH   1   2
BRANCH   1  18
ATOM     18  C   UNL     1       8.812   9.967  18.317  0.00  0.00    +0.000 C 
BRANCH  18  19
ATOM     19  C   UNL     1       8.358   8.570  18.737  0.00  0.00    +0.000 C 
BRANCH  19  20
ATOM     20  S   UNL     1       7.689   7.585  17.353  0.00  0.00    +0.000 S 
BRANCH  20  24
ATOM     21  C   UNL     1       5.351   4.793  18.636  0.00  0.00    +0.000 A 
ATOM     22  N   UNL     1       6.369   4.639  19.461  0.00  0.00    +0.000 NA
ATOM     23  N   UNL     1       7.293   5.612  19.183  0.00  0.00    +0.000 NA
ATOM     24  C   UNL     1       6.838   6.328  18.182  0.00  0.00    +0.000 A 
ATOM     25  N   UNL     1       5.585   5.893  17.841  0.00  0.00    +0.000 N 
ATOM     26  C   UNL     1       4.679   6.451  16.872  0.00  0.00    +0.000 C 
BRANCH  21  32
ATOM     27  C   UNL     1       2.522   5.078  20.196  0.00  0.00    +0.000 C 
ATOM     28  C   UNL     1       2.991   4.042  19.249  0.00  0.00    +0.000 A 
ATOM     29  N   UNL     1       2.168   2.989  18.908  0.00  0.00    +0.000 NA
ATOM     30  C   UNL     1       2.903   2.284  18.079  0.00  0.00    +0.000 A 
ATOM     31  O   UNL     1       4.142   2.779  17.845  0.00  0.00    +0.000 OA
ATOM     32  C   UNL     1       4.210   3.935  18.594  0.00  0.00    +0.000 A 
ENDBRANCH  21  32
ENDBRANCH  20  24
ENDBRANCH  19  20
ENDBRANCH  18  19
ENDBRANCH   1  18
TORSDOF 7
ENDMDL
MODEL 7
REMARK VINA RESULT:      -7.6      5.968      8.393
REMARK  Name = 
REMARK  9 active torsions:
REMARK  status: ('A' for Active; 'I' for Inactive)
REMARK    1  A    between atoms: C_1  and  C_2
REMARK    2  A    between atoms: C_6  and  C_7
REMARK    3  A    between atoms: C_10  and  S_11
REMARK    4  A    between atoms: S_11  and  C_12
REMARK    5  A    between atoms: C_12  and  C_13
REMARK    6  A    between atoms: C_13  and  C_14
REMARK    7  A    between atoms: C_14  and  N_15
REMARK    8  A    between atoms: N_20  and  C_21
REMARK    9  A    between atoms: N_31  and  C_32
REMARK                            x       y       z     vdW  Elec       q    Type
REMARK                         _______ _______ _______ _____ _____    ______ ____
ROOT
ATOM      1  C   UNL     1       9.133  10.541  18.616  0.00  0.00    +0.000 C 
ENDROOT
BRANCH   1   2
ATOM      2  N   UNL     1       9.959  10.997  19.743  0.00  0.00    +0.000 NA
ATOM      3  C   UNL     1      11.341  11.358  19.395  0.00  0.00    +0.000 C 
ATOM      4  C   UNL     1      11.428  12.874  19.222  0.00  0.00    +0.000 C 
ATOM      5  C   UNL     1      11.604  13.376  17.797  0.00  0.00    +0.000 C 
ATOM      6  C   UNL     1      10.202  13.626  17.266  0.00  0.00    +0.000 C 
ATOM      7  N   UNL     1       9.388  13.870  18.454  0.00  0.00    +0.000 N 
ATOM      8  C   UNL     1      10.079  13.428  19.681  0.00  0.00    +0.000 C 
ATOM      9  C   UNL     1       9.408  12.224  20.361  0.00  0.00    +0.000 C 
BRANCH   7  10
ATOM     10  C   UNL     1       8.194  14.573  18.443  0.00  0.00    +0.000 A 
ATOM     11  C   UNL     1       7.061  14.003  17.821  0.00  0.00    +0.000 A 
ATOM     12  C   UNL     1       5.812  14.639  17.782  0.00  0.00    +0.000 A 
ATOM     13  C   UNL     1       5.660  15.889  18.355  0.00  0.00    +0.000 A 
ATOM     14 CL   UNL     1       4.136  16.682  18.301  0.00  0.00    +0.000 Cl
ATOM     15  C   UNL     1       6.741  16.502  18.967  0.00  0.00    +0.000 A 
ATOM     16  C   UNL     1       7.990  15.856  19.015  0.00  0.00    +0.000 A 
ATOM     17 CL   UNL     1       9.247  16.798  19.753  0.00  0.00    +0.000 Cl
ENDBRANCH   7  10
ENDBRANCH   1   2
BRANCH   1  18
ATOM     18  C   UNL     1       8.759   9.051  18.635  0.00  0.00    +0.000 C 
BRANCH  18  19
ATOM     19  C   UNL     1       7.532   8.762  17.773  0.00  0.00    +0.000 C 
BRANCH  19  20
ATOM     20  S   UNL     1       7.587   7.123  16.969  0.00  0.00    +0.000 S 
BRANCH  20  24
ATOM     21  C   UNL     1       5.308   4.773  19.014  0.00  0.00    +0.000 A 
ATOM     22  N   UNL     1       6.361   4.820  19.807  0.00  0.00    +0.000 NA
ATOM     23  N   UNL     1       7.272   5.681  19.254  0.00  0.00    +0.000 NA
ATOM     24  C   UNL     1       6.774   6.126  18.124  0.00  0.00    +0.000 A 
ATOM     25  N   UNL     1       5.506   5.634  17.958  0.00  0.00    +0.000 N 
ATOM     26  C   UNL     1       4.558   5.939  16.919  0.00  0.00    +0.000 C 
BRANCH  21  32
ATOM     27  C   UNL     1       2.412   5.574  20.239  0.00  0.00    +0.000 C 
ATOM     28  C   UNL     1       2.919   4.269  19.756  0.00  0.00    +0.000 A 
ATOM     29  N   UNL     1       2.106   3.155  19.788  0.00  0.00    +0.000 NA
ATOM     30  C   UNL     1       2.874   2.205  19.306  0.00  0.00    +0.000 A 
ATOM     31  O   UNL     1       4.125   2.595  18.961  0.00  0.00    +0.000 OA
ATOM     32  C   UNL     1       4.165   3.945  19.239  0.00  0.00    +0.000 A 
ENDBRANCH  21  32
ENDBRANCH  20  24
ENDBRANCH  19  20
ENDBRANCH  18  19
ENDBRANCH   1  18
TORSDOF 7
ENDMDL
MODEL 8
REMARK VINA RESULT:      -7.5      4.732      9.929
REMARK  Name = 
REMARK  9 active torsions:
REMARK  status: ('A' for Active; 'I' for Inactive)
REMARK    1  A    between atoms: C_1  and  C_2
REMARK    2  A    between atoms: C_6  and  C_7
REMARK    3  A    between atoms: C_10  and  S_11
REMARK    4  A    between atoms: S_11  and  C_12
REMARK    5  A    between atoms: C_12  and  C_13
REMARK    6  A    between atoms: C_13  and  C_14
REMARK    7  A    between atoms: C_14  and  N_15
REMARK    8  A    between atoms: N_20  and  C_21
REMARK    9  A    between atoms: N_31  and  C_32
REMARK                            x       y       z     vdW  Elec       q    Type
REMARK                         _______ _______ _______ _____ _____    ______ ____
ROOT
ATOM      1  C   UNL     1       2.077   6.729  19.870  0.00  0.00    +0.000 C 
ENDROOT
BRANCH   1   2
ATOM      2  N   UNL     1       2.444   5.578  20.706  0.00  0.00    +0.000 NA
ATOM      3  C   UNL     1       1.448   4.498  20.752  0.00  0.00    +0.000 C 
ATOM      4  C   UNL     1       1.851   3.411  19.757  0.00  0.00    +0.000 C 
ATOM      5  C   UNL     1       0.994   3.297  18.506  0.00  0.00    +0.000 C 
ATOM      6  C   UNL     1       1.660   4.178  17.462  0.00  0.00    +0.000 C 
ATOM      7  N   UNL     1       3.063   4.242  17.865  0.00  0.00    +0.000 N 
ATOM      8  C   UNL     1       3.245   3.791  19.259  0.00  0.00    +0.000 C 
ATOM      9  C   UNL     1       3.674   4.917  20.214  0.00  0.00    +0.000 C 
BRANCH   7  10
ATOM     10  C   UNL     1       4.104   4.535  16.999  0.00  0.00    +0.000 A 
ATOM     11  C   UNL     1       4.803   3.478  16.373  0.00  0.00    +0.000 A 
ATOM     12  C   UNL     1       5.855   3.688  15.471  0.00  0.00    +0.000 A 
ATOM     13  C   UNL     1       6.259   4.978  15.177  0.00  0.00    +0.000 A 
ATOM     14 CL   UNL     1       7.557   5.245  14.082  0.00  0.00    +0.000 Cl
ATOM     15  C   UNL     1       5.619   6.053  15.772  0.00  0.00    +0.000 A 
ATOM     16  C   UNL     1       4.556   5.839  16.668  0.00  0.00    +0.000 A 
ATOM     17 CL   UNL     1       3.921   7.292  17.374  0.00  0.00    +0.000 Cl
ENDBRANCH   7  10
ENDBRANCH   1   2
BRANCH   1  18
ATOM     18  C   UNL     1       1.451   7.915  20.620  0.00  0.00    +0.000 C 
BRANCH  18  19
ATOM     19  C   UNL     1       1.360   9.160  19.741  0.00  0.00    +0.000 C 
BRANCH  19  20
ATOM     20  S   UNL     1      -0.327   9.851  19.645  0.00  0.00    +0.000 S 
BRANCH  20  24
ATOM     21  C   UNL     1      -1.016  12.103  22.705  0.00  0.00    +0.000 A 
ATOM     22  N   UNL     1      -0.682  10.982  23.314  0.00  0.00    +0.000 NA
ATOM     23  N   UNL     1      -0.337  10.064  22.357  0.00  0.00    +0.000 NA
ATOM     24  C   UNL     1      -0.488  10.628  21.182  0.00  0.00    +0.000 A 
ATOM     25  N   UNL     1      -0.852  11.938  21.347  0.00  0.00    +0.000 N 
ATOM     26  C   UNL     1      -1.025  12.951  20.340  0.00  0.00    +0.000 C 
BRANCH  21  32
ATOM     27  C   UNL     1      -3.981  12.784  23.830  0.00  0.00    +0.000 C 
ATOM     28  C   UNL     1      -2.737  13.586  23.865  0.00  0.00    +0.000 A 
ATOM     29  N   UNL     1      -2.735  14.835  24.449  0.00  0.00    +0.000 NA
ATOM     30  C   UNL     1      -1.497  15.243  24.289  0.00  0.00    +0.000 A 
ATOM     31  O   UNL     1      -0.682  14.372  23.645  0.00  0.00    +0.000 OA
ATOM     32  C   UNL     1      -1.477  13.279  23.373  0.00  0.00    +0.000 A 
ENDBRANCH  21  32
ENDBRANCH  20  24
ENDBRANCH  19  20
ENDBRANCH  18  19
ENDBRANCH   1  18
TORSDOF 7
ENDMDL
MODEL 9
REMARK VINA RESULT:      -7.4      3.752      8.617
REMARK  Name = 
REMARK  9 active torsions:
REMARK  status: ('A' for Active; 'I' for Inactive)
REMARK    1  A    between atoms: C_1  and  C_2
REMARK    2  A    between atoms: C_6  and  C_7
REMARK    3  A    between atoms: C_10  and  S_11
REMARK    4  A    between atoms: S_11  and  C_12
REMARK    5  A    between atoms: C_12  and  C_13
REMARK    6  A    between atoms: C_13  and  C_14
REMARK    7  A    between atoms: C_14  and  N_15
REMARK    8  A    between atoms: N_20  and  C_21
REMARK    9  A    between atoms: N_31  and  C_32
REMARK                            x       y       z     vdW  Elec       q    Type
REMARK                         _______ _______ _______ _____ _____    ______ ____
ROOT
ATOM      1  C   UNL     1       2.657   3.729  20.834  0.00  0.00    +0.000 C 
ENDROOT
BRANCH   1   2
ATOM      2  N   UNL     1       3.177   2.445  20.342  0.00  0.00    +0.000 NA
ATOM      3  C   UNL     1       2.438   1.867  19.211  0.00  0.00    +0.000 C 
ATOM      4  C   UNL     1       3.166   2.216  17.913  0.00  0.00    +0.000 C 
ATOM      5  C   UNL     1       2.485   3.242  17.020  0.00  0.00    +0.000 C 
ATOM      6  C   UNL     1       3.050   4.593  17.431  0.00  0.00    +0.000 C 
ATOM      7  N   UNL     1       4.356   4.293  18.011  0.00  0.00    +0.000 N 
ATOM      8  C   UNL     1       4.488   2.859  18.332  0.00  0.00    +0.000 C 
ATOM      9  C   UNL     1       4.564   2.575  19.841  0.00  0.00    +0.000 C 
BRANCH   7  10
ATOM     10  C   UNL     1       5.393   5.209  18.097  0.00  0.00    +0.000 A 
ATOM     11  C   UNL     1       6.213   5.221  19.247  0.00  0.00    +0.000 A 
ATOM     12  C   UNL     1       7.293   6.101  19.405  0.00  0.00    +0.000 A 
ATOM     13  C   UNL     1       7.578   7.022  18.412  0.00  0.00    +0.000 A 
ATOM     14 CL   UNL     1       8.892   8.114  18.602  0.00  0.00    +0.000 Cl
ATOM     15  C   UNL     1       6.799   7.064  17.267  0.00  0.00    +0.000 A 
ATOM     16  C   UNL     1       5.724   6.171  17.107  0.00  0.00    +0.000 A 
ATOM     17 CL   UNL     1       4.812   6.414  15.650  0.00  0.00    +0.000 Cl
ENDBRANCH   7  10
ENDBRANCH   1   2
BRANCH   1  18
ATOM     18  C   UNL     1       1.154   3.957  20.613  0.00  0.00    +0.000 C 
BRANCH  18  19
ATOM     19  C   UNL     1       0.846   5.410  20.256  0.00  0.00    +0.000 C 
BRANCH  19  20
ATOM     20  S   UNL     1       2.324   6.481  20.264  0.00  0.00    +0.000 S 
BRANCH  20  24
ATOM     21  C   UNL     1       0.719   9.979  19.959  0.00  0.00    +0.000 A 
ATOM     22  N   UNL     1       0.590   9.778  21.256  0.00  0.00    +0.000 NA
ATOM     23  N   UNL     1       1.176   8.578  21.561  0.00  0.00    +0.000 NA
ATOM     24  C   UNL     1       1.631   8.055  20.447  0.00  0.00    +0.000 A 
ATOM     25  N   UNL     1       1.427   8.931  19.414  0.00  0.00    +0.000 N 
ATOM     26  C   UNL     1       1.855   8.813  18.045  0.00  0.00    +0.000 C 
BRANCH  21  32
ATOM     27  C   UNL     1      -1.921  10.171  18.084  0.00  0.00    +0.000 C 
ATOM     28  C   UNL     1      -0.936  11.211  18.459  0.00  0.00    +0.000 A 
ATOM     29  N   UNL     1      -1.077  12.501  17.989  0.00  0.00    +0.000 NA
ATOM     30  C   UNL     1      -0.043  13.126  18.504  0.00  0.00    +0.000 A 
ATOM     31  O   UNL     1       0.770  12.360  19.271  0.00  0.00    +0.000 OA
ATOM     32  C   UNL     1       0.192  11.108  19.260  0.00  0.00    +0.000 A 
ENDBRANCH  21  32
ENDBRANCH  20  24
ENDBRANCH  19  20
ENDBRANCH  18  19
ENDBRANCH   1  18
TORSDOF 7
ENDMDL
