MODEL 1
REMARK VINA RESULT:      -8.9      0.000      0.000
REMARK  Name = 
REMARK  5 active torsions:
REMARK  status: ('A' for Active; 'I' for Inactive)
REMARK    1  A    between atoms: C_1  and  C_2
REMARK    2  A    between atoms: C_2  and  C_3
REMARK    3  A    between atoms: N_6  and  C_7
REMARK    4  A    between atoms: C_12  and  C_13
REMARK    5  A    between atoms: C_16  and  C_18
REMARK                            x       y       z     vdW  Elec       q    Type
REMARK                         _______ _______ _______ _____ _____    ______ ____
ROOT
ATOM      1  C   UNL     1       2.574   6.845  19.815  0.00  0.00    +0.000 C 
ATOM      2  C   UNL     1       2.189   7.647  18.554  0.00  0.00    +0.000 C 
ATOM      3  N   UNL     1       1.727   8.700  19.444  0.00  0.00    +0.000 N 
ATOM      4  C   UNL     1       0.836   9.691  19.091  0.00  0.00    +0.000 C 
ATOM      5  O   UNL     1       0.462   9.840  17.924  0.00  0.00    +0.000 OA
ATOM      6  C   UNL     1       1.628   7.795  20.592  0.00  0.00    +0.000 C 
ENDROOT
BRANCH   4   7
ATOM      7  C   UNL     1       0.408  10.597  20.141  0.00  0.00    +0.000 A 
ATOM      8  N   UNL     1       0.822  11.840  20.319  0.00  0.00    +0.000 NA
ATOM      9  C   UNL     1       0.055  12.341  21.343  0.00  0.00    +0.000 A 
ATOM     10  C   UNL     1       0.044  13.624  21.907  0.00  0.00    +0.000 A 
ATOM     11  C   UNL     1      -0.853  13.890  22.950  0.00  0.00    +0.000 A 
ATOM     12  C   UNL     1      -1.719  12.898  23.420  0.00  0.00    +0.000 A 
ATOM     13  C   UNL     1      -1.726  11.613  22.865  0.00  0.00    +0.000 A 
ATOM     14  C   UNL     1      -0.824  11.377  21.826  0.00  0.00    +0.000 A 
ATOM     15  N   UNL     1      -0.572  10.275  21.050  0.00  0.00    +0.000 N 
ATOM     16  H   UNL     1      -1.045   9.385  21.083  0.00  0.00    +0.000 HD
ENDBRANCH   4   7
BRANCH   1  22
ATOM     17  C   UNL     1       3.127   4.315  19.149  0.00  0.00    +0.000 A 
ATOM     18  N   UNL     1       2.843   2.994  19.259  0.00  0.00    +0.000 NA
ATOM     19  C   UNL     1       1.751   2.658  19.978  0.00  0.00    +0.000 A 
ATOM     20  C   UNL     1       0.946   3.598  20.583  0.00  0.00    +0.000 A 
ATOM     21  N   UNL     1       1.199   4.917  20.499  0.00  0.00    +0.000 NA
ATOM     22  C   UNL     1       2.305   5.287  19.788  0.00  0.00    +0.000 A 
BRANCH  17  28
ATOM     23  C   UNL     1       7.425   4.867  16.346  0.00  0.00    +0.000 C 
ATOM     24  C   UNL     1       6.623   5.799  17.272  0.00  0.00    +0.000 C 
ATOM     25  C   UNL     1       7.333   7.166  17.312  0.00  0.00    +0.000 C 
ATOM     26  C   UNL     1       6.601   5.213  18.715  0.00  0.00    +0.000 C 
ATOM     27  C   UNL     1       5.553   4.111  18.919  0.00  0.00    +0.000 C 
ATOM     28  N   UNL     1       4.284   4.681  18.477  0.00  0.00    +0.000 N 
ATOM     29  C   UNL     1       4.236   4.855  17.031  0.00  0.00    +0.000 C 
ATOM     30  C   UNL     1       5.190   6.005  16.702  0.00  0.00    +0.000 C 
ENDBRANCH  17  28
ENDBRANCH   1  22
TORSDOF 3
ENDMDL
MODEL 2
REMARK VINA RESULT:      -8.8      0.261      1.109
REMARK  Name = 
REMARK  5 active torsions:
REMARK  status: ('A' for Active; 'I' for Inactive)
REMARK    1  A    between atoms: C_1  and  C_2
REMARK    2  A    between atoms: C_2  and  C_3
REMARK    3  A    between atoms: N_6  and  C_7
REMARK    4  A    between atoms: C_12  and  C_13
REMARK    5  A    between atoms: C_16  and  C_18
REMARK                            x       y       z     vdW  Elec       q    Type
REMARK                         _______ _______ _______ _____ _____    ______ ____
ROOT
ATOM      1  C   UNL     1       2.536   6.654  19.979  0.00  0.00    +0.000 C 
ATOM      2  C   UNL     1       2.440   7.483  18.681  0.00  0.00    +0.000 C 
ATOM      3  N   UNL     1       1.827   8.535  19.475  0.00  0.00    +0.000 N 
ATOM      4  C   UNL     1       1.051   9.554  18.964  0.00  0.00    +0.000 C 
ATOM      5  O   UNL     1       0.931   9.728  17.748  0.00  0.00    +0.000 OA
ATOM      6  C   UNL     1       1.471   7.618  20.561  0.00  0.00    +0.000 C 
ENDROOT
BRANCH   4   7
ATOM      7  C   UNL     1       0.435  10.456  19.919  0.00  0.00    +0.000 A 
ATOM      8  N   UNL     1      -0.463  10.133  20.833  0.00  0.00    +0.000 NA
ATOM      9  C   UNL     1      -0.652  11.269  21.583  0.00  0.00    +0.000 A 
ATOM     10  C   UNL     1      -1.462  11.474  22.708  0.00  0.00    +0.000 A 
ATOM     11  C   UNL     1      -1.471  12.742  23.306  0.00  0.00    +0.000 A 
ATOM     12  C   UNL     1      -0.690  13.780  22.792  0.00  0.00    +0.000 A 
ATOM     13  C   UNL     1       0.129  13.593  21.672  0.00  0.00    +0.000 A 
ATOM     14  C   UNL     1       0.121  12.320  21.099  0.00  0.00    +0.000 A 
ATOM     15  N   UNL     1       0.796  11.778  20.037  0.00  0.00    +0.000 N 
ATOM     16  H   UNL     1       1.482  12.232  19.454  0.00  0.00    +0.000 HD
ENDBRANCH   4   7
BRANCH   1  22
ATOM     17  C   UNL     1       3.051   4.156  19.177  0.00  0.00    +0.000 A 
ATOM     18  N   UNL     1       2.747   2.835  19.216  0.00  0.00    +0.000 NA
ATOM     19  C   UNL     1       1.649   2.477  19.915  0.00  0.00    +0.000 A 
ATOM     20  C   UNL     1       0.858   3.396  20.570  0.00  0.00    +0.000 A 
ATOM     21  N   UNL     1       1.131   4.714  20.558  0.00  0.00    +0.000 NA
ATOM     22  C   UNL     1       2.243   5.105  19.868  0.00  0.00    +0.000 A 
BRANCH  17  28
ATOM     23  C   UNL     1       7.448   4.749  16.542  0.00  0.00    +0.000 C 
ATOM     24  C   UNL     1       6.530   5.706  17.323  0.00  0.00    +0.000 C 
ATOM     25  C   UNL     1       7.135   7.122  17.249  0.00  0.00    +0.000 C 
ATOM     26  C   UNL     1       6.470   5.274  18.817  0.00  0.00    +0.000 C 
ATOM     27  C   UNL     1       5.495   4.120  19.088  0.00  0.00    +0.000 C 
ATOM     28  N   UNL     1       4.214   4.539  18.527  0.00  0.00    +0.000 N 
ATOM     29  C   UNL     1       4.235   4.558  17.070  0.00  0.00    +0.000 C 
ATOM     30  C   UNL     1       5.120   5.740  16.666  0.00  0.00    +0.000 C 
ENDBRANCH  17  28
ENDBRANCH   1  22
TORSDOF 3
ENDMDL
MODEL 3
REMARK VINA RESULT:      -8.6      1.026      1.075
REMARK  Name = 
REMARK  5 active torsions:
REMARK  status: ('A' for Active; 'I' for Inactive)
REMARK    1  A    between atoms: C_1  and  C_2
REMARK    2  A    between atoms: C_2  and  C_3
REMARK    3  A    between atoms: N_6  and  C_7
REMARK    4  A    between atoms: C_12  and  C_13
REMARK    5  A    between atoms: C_16  and  C_18
REMARK                            x       y       z     vdW  Elec       q    Type
REMARK                         _______ _______ _______ _____ _____    ______ ____
ROOT
ATOM      1  C   UNL     1       2.447   6.399  19.980  0.00  0.00    +0.000 C 
ATOM      2  C   UNL     1       2.731   7.261  18.732  0.00  0.00    +0.000 C 
ATOM      3  N   UNL     1       1.955   8.316  19.364  0.00  0.00    +0.000 N 
ATOM      4  C   UNL     1       1.376   9.374  18.694  0.00  0.00    +0.000 C 
ATOM      5  O   UNL     1       1.596   9.580  17.498  0.00  0.00    +0.000 OA
ATOM      6  C   UNL     1       1.292   7.387  20.282  0.00  0.00    +0.000 C 
ENDROOT
BRANCH   4   7
ATOM      7  C   UNL     1       0.550  10.275  19.476  0.00  0.00    +0.000 A 
ATOM      8  N   UNL     1       0.911  10.911  20.577  0.00  0.00    +0.000 NA
ATOM      9  C   UNL     1      -0.140  11.740  20.885  0.00  0.00    +0.000 A 
ATOM     10  C   UNL     1      -0.271  12.670  21.926  0.00  0.00    +0.000 A 
ATOM     11  C   UNL     1      -1.457  13.410  22.020  0.00  0.00    +0.000 A 
ATOM     12  C   UNL     1      -2.488  13.227  21.095  0.00  0.00    +0.000 A 
ATOM     13  C   UNL     1      -2.374  12.308  20.045  0.00  0.00    +0.000 A 
ATOM     14  C   UNL     1      -1.181  11.586  19.976  0.00  0.00    +0.000 A 
ATOM     15  N   UNL     1      -0.719  10.642  19.095  0.00  0.00    +0.000 N 
ATOM     16  H   UNL     1      -1.187  10.295  18.272  0.00  0.00    +0.000 HD
ENDBRANCH   4   7
BRANCH   1  22
ATOM     17  C   UNL     1       2.988   3.960  19.028  0.00  0.00    +0.000 A 
ATOM     18  N   UNL     1       2.676   2.643  18.957  0.00  0.00    +0.000 NA
ATOM     19  C   UNL     1       1.543   2.246  19.574  0.00  0.00    +0.000 A 
ATOM     20  C   UNL     1       0.725   3.122  20.253  0.00  0.00    +0.000 A 
ATOM     21  N   UNL     1       1.005   4.435  20.349  0.00  0.00    +0.000 NA
ATOM     22  C   UNL     1       2.152   4.864  19.744  0.00  0.00    +0.000 A 
BRANCH  17  28
ATOM     23  C   UNL     1       7.585   4.678  16.796  0.00  0.00    +0.000 C 
ATOM     24  C   UNL     1       6.528   5.621  17.397  0.00  0.00    +0.000 C 
ATOM     25  C   UNL     1       7.039   7.068  17.261  0.00  0.00    +0.000 C 
ATOM     26  C   UNL     1       6.341   5.304  18.909  0.00  0.00    +0.000 C 
ATOM     27  C   UNL     1       5.425   4.105  19.182  0.00  0.00    +0.000 C 
ATOM     28  N   UNL     1       4.184   4.379  18.464  0.00  0.00    +0.000 N 
ATOM     29  C   UNL     1       4.355   4.284  17.020  0.00  0.00    +0.000 C 
ATOM     30  C   UNL     1       5.195   5.494  16.604  0.00  0.00    +0.000 C 
ENDBRANCH  17  28
ENDBRANCH   1  22
TORSDOF 3
ENDMDL
MODEL 4
REMARK VINA RESULT:      -7.8      2.365      8.793
REMARK  Name = 
REMARK  5 active torsions:
REMARK  status: ('A' for Active; 'I' for Inactive)
REMARK    1  A    between atoms: C_1  and  C_2
REMARK    2  A    between atoms: C_2  and  C_3
REMARK    3  A    between atoms: N_6  and  C_7
REMARK    4  A    between atoms: C_12  and  C_13
REMARK    5  A    between atoms: C_16  and  C_18
REMARK                            x       y       z     vdW  Elec       q    Type
REMARK                         _______ _______ _______ _____ _____    ______ ____
ROOT
ATOM      1  C   UNL     1       1.295   9.744  19.013  0.00  0.00    +0.000 C 
ATOM      2  C   UNL     1       1.124   8.717  20.152  0.00  0.00    +0.000 C 
ATOM      3  N   UNL     1       2.168   7.932  19.515  0.00  0.00    +0.000 N 
ATOM      4  C   UNL     1       2.374   6.585  19.722  0.00  0.00    +0.000 C 
ATOM      5  O   UNL     1       1.756   5.961  20.589  0.00  0.00    +0.000 OA
ATOM      6  C   UNL     1       2.002   8.610  18.227  0.00  0.00    +0.000 C 
ENDROOT
BRANCH   4   7
ATOM      7  C   UNL     1       3.400   5.945  18.920  0.00  0.00    +0.000 A 
ATOM      8  N   UNL     1       3.240   5.423  17.716  0.00  0.00    +0.000 NA
ATOM      9  C   UNL     1       4.498   5.057  17.302  0.00  0.00    +0.000 A 
ATOM     10  C   UNL     1       4.912   4.496  16.086  0.00  0.00    +0.000 A 
ATOM     11  C   UNL     1       6.274   4.219  15.904  0.00  0.00    +0.000 A 
ATOM     12  C   UNL     1       7.201   4.496  16.912  0.00  0.00    +0.000 A 
ATOM     13  C   UNL     1       6.807   5.062  18.131  0.00  0.00    +0.000 A 
ATOM     14  C   UNL     1       5.445   5.329  18.284  0.00  0.00    +0.000 A 
ATOM     15  N   UNL     1       4.719   5.885  19.305  0.00  0.00    +0.000 N 
ATOM     16  H   UNL     1       5.071   6.244  20.179  0.00  0.00    +0.000 HD
ENDBRANCH   4   7
BRANCH   1  22
ATOM     17  C   UNL     1      -0.339  11.803  18.523  0.00  0.00    +0.000 A 
ATOM     18  N   UNL     1      -1.458  12.285  17.929  0.00  0.00    +0.000 NA
ATOM     19  C   UNL     1      -2.247  11.395  17.290  0.00  0.00    +0.000 A 
ATOM     20  C   UNL     1      -1.946  10.052  17.229  0.00  0.00    +0.000 A 
ATOM     21  N   UNL     1      -0.842   9.538  17.802  0.00  0.00    +0.000 NA
ATOM     22  C   UNL     1      -0.018  10.417  18.446  0.00  0.00    +0.000 A 
BRANCH  17  28
ATOM     23  C   UNL     1       2.400  15.776  20.352  0.00  0.00    +0.000 C 
ATOM     24  C   UNL     1       2.489  14.249  20.516  0.00  0.00    +0.000 C 
ATOM     25  C   UNL     1       3.682  13.931  21.438  0.00  0.00    +0.000 C 
ATOM     26  C   UNL     1       2.747  13.585  19.131  0.00  0.00    +0.000 C 
ATOM     27  C   UNL     1       1.481  13.419  18.280  0.00  0.00    +0.000 C 
ATOM     28  N   UNL     1       0.524  12.709  19.122  0.00  0.00    +0.000 N 
ATOM     29  C   UNL     1       0.028  13.542  20.210  0.00  0.00    +0.000 C 
ATOM     30  C   UNL     1       1.192  13.713  21.189  0.00  0.00    +0.000 C 
ENDBRANCH  17  28
ENDBRANCH   1  22
TORSDOF 3
ENDMDL
MODEL 5
REMARK VINA RESULT:      -7.8      0.491      1.236
REMARK  Name = 
REMARK  5 active torsions:
REMARK  status: ('A' for Active; 'I' for Inactive)
REMARK    1  A    between atoms: C_1  and  C_2
REMARK    2  A    between atoms: C_2  and  C_3
REMARK    3  A    between atoms: N_6  and  C_7
REMARK    4  A    between atoms: C_12  and  C_13
REMARK    5  A    between atoms: C_16  and  C_18
REMARK                            x       y       z     vdW  Elec       q    Type
REMARK                         _______ _______ _______ _____ _____    ______ ____
ROOT
ATOM      1  C   UNL     1       2.507   7.173  19.690  0.00  0.00    +0.000 C 
ATOM      2  C   UNL     1       1.930   7.905  18.460  0.00  0.00    +0.000 C 
ATOM      3  N   UNL     1       1.516   8.964  19.365  0.00  0.00    +0.000 N 
ATOM      4  C   UNL     1       0.533   9.892  19.092  0.00  0.00    +0.000 C 
ATOM      5  O   UNL     1       0.015   9.975  17.975  0.00  0.00    +0.000 OA
ATOM      6  C   UNL     1       1.607   8.100  20.545  0.00  0.00    +0.000 C 
ENDROOT
BRANCH   4   7
ATOM      7  C   UNL     1       0.181  10.812  20.157  0.00  0.00    +0.000 A 
ATOM      8  N   UNL     1       0.685  12.019  20.346  0.00  0.00    +0.000 NA
ATOM      9  C   UNL     1      -0.035  12.561  21.383  0.00  0.00    +0.000 A 
ATOM     10  C   UNL     1       0.052  13.835  21.963  0.00  0.00    +0.000 A 
ATOM     11  C   UNL     1      -0.814  14.151  23.018  0.00  0.00    +0.000 A 
ATOM     12  C   UNL     1      -1.745  13.219  23.484  0.00  0.00    +0.000 A 
ATOM     13  C   UNL     1      -1.850  11.944  22.913  0.00  0.00    +0.000 A 
ATOM     14  C   UNL     1      -0.976  11.657  21.863  0.00  0.00    +0.000 A 
ATOM     15  N   UNL     1      -0.812  10.551  21.071  0.00  0.00    +0.000 N 
ATOM     16  H   UNL     1      -1.347   9.696  21.098  0.00  0.00    +0.000 HD
ENDBRANCH   4   7
BRANCH   1  22
ATOM     17  C   UNL     1       3.197   4.648  19.141  0.00  0.00    +0.000 A 
ATOM     18  N   UNL     1       2.991   3.320  19.321  0.00  0.00    +0.000 NA
ATOM     19  C   UNL     1       1.929   2.959  20.073  0.00  0.00    +0.000 A 
ATOM     20  C   UNL     1       1.079   3.881  20.643  0.00  0.00    +0.000 A 
ATOM     21  N   UNL     1       1.254   5.207  20.490  0.00  0.00    +0.000 NA
ATOM     22  C   UNL     1       2.328   5.603  19.744  0.00  0.00    +0.000 A 
BRANCH  17  28
ATOM     23  C   UNL     1       7.310   6.863  16.949  0.00  0.00    +0.000 C 
ATOM     24  C   UNL     1       6.623   5.494  16.797  0.00  0.00    +0.000 C 
ATOM     25  C   UNL     1       7.396   4.680  15.741  0.00  0.00    +0.000 C 
ATOM     26  C   UNL     1       5.163   5.693  16.294  0.00  0.00    +0.000 C 
ATOM     27  C   UNL     1       4.172   6.067  17.403  0.00  0.00    +0.000 C 
ATOM     28  N   UNL     1       4.322   5.045  18.434  0.00  0.00    +0.000 N 
ATOM     29  C   UNL     1       5.593   5.160  19.137  0.00  0.00    +0.000 C 
ATOM     30  C   UNL     1       6.676   4.723  18.148  0.00  0.00    +0.000 C 
ENDBRANCH  17  28
ENDBRANCH   1  22
TORSDOF 3
ENDMDL
MODEL 6
REMARK VINA RESULT:      -7.7      2.360      9.045
REMARK  Name = 
REMARK  5 active torsions:
REMARK  status: ('A' for Active; 'I' for Inactive)
REMARK    1  A    between atoms: C_1  and  C_2
REMARK    2  A    between atoms: C_2  and  C_3
REMARK    3  A    between atoms: N_6  and  C_7
REMARK    4  A    between atoms: C_12  and  C_13
REMARK    5  A    between atoms: C_16  and  C_18
REMARK                            x       y       z     vdW  Elec       q    Type
REMARK                         _______ _______ _______ _____ _____    ______ ____
ROOT
ATOM      1  C   UNL     1       0.645  10.183  18.519  0.00  0.00    +0.000 C 
ATOM      2  C   UNL     1       0.950   9.352  19.783  0.00  0.00    +0.000 C 
ATOM      3  N   UNL     1       1.872   8.575  18.971  0.00  0.00    +0.000 N 
ATOM      4  C   UNL     1       2.317   7.308  19.284  0.00  0.00    +0.000 C 
ATOM      5  O   UNL     1       2.063   6.783  20.372  0.00  0.00    +0.000 OA
ATOM      6  C   UNL     1       1.254   9.006  17.715  0.00  0.00    +0.000 C 
ENDROOT
BRANCH   4   7
ATOM      7  C   UNL     1       3.154   6.643  18.302  0.00  0.00    +0.000 A 
ATOM      8  N   UNL     1       4.039   7.222  17.509  0.00  0.00    +0.000 NA
ATOM      9  C   UNL     1       4.676   6.194  16.856  0.00  0.00    +0.000 A 
ATOM     10  C   UNL     1       5.730   6.237  15.934  0.00  0.00    +0.000 A 
ATOM     11  C   UNL     1       6.215   5.031  15.411  0.00  0.00    +0.000 A 
ATOM     12  C   UNL     1       5.659   3.809  15.800  0.00  0.00    +0.000 A 
ATOM     13  C   UNL     1       4.608   3.745  16.724  0.00  0.00    +0.000 A 
ATOM     14  C   UNL     1       4.148   4.963  17.229  0.00  0.00    +0.000 A 
ATOM     15  N   UNL     1       3.177   5.277  18.144  0.00  0.00    +0.000 N 
ATOM     16  H   UNL     1       2.597   4.637  18.664  0.00  0.00    +0.000 HD
ENDBRANCH   4   7
BRANCH   1  22
ATOM     17  C   UNL     1      -1.442  11.840  18.739  0.00  0.00    +0.000 A 
ATOM     18  N   UNL     1      -2.721  12.150  18.415  0.00  0.00    +0.000 NA
ATOM     19  C   UNL     1      -3.403  11.251  17.674  0.00  0.00    +0.000 A 
ATOM     20  C   UNL     1      -2.843  10.065  17.253  0.00  0.00    +0.000 A 
ATOM     21  N   UNL     1      -1.575   9.725  17.551  0.00  0.00    +0.000 NA
ATOM     22  C   UNL     1      -0.856  10.622  18.290  0.00  0.00    +0.000 A 
BRANCH  17  28
ATOM     23  C   UNL     1       0.603  15.818  21.315  0.00  0.00    +0.000 C 
ATOM     24  C   UNL     1       1.141  14.452  20.850  0.00  0.00    +0.000 C 
ATOM     25  C   UNL     1       2.613  14.339  21.291  0.00  0.00    +0.000 C 
ATOM     26  C   UNL     1       1.083  14.366  19.297  0.00  0.00    +0.000 C 
ATOM     27  C   UNL     1      -0.303  14.005  18.749  0.00  0.00    +0.000 C 
ATOM     28  N   UNL     1      -0.699  12.781  19.438  0.00  0.00    +0.000 N 
ATOM     29  C   UNL     1      -1.001  13.018  20.843  0.00  0.00    +0.000 C 
ATOM     30  C   UNL     1       0.334  13.308  21.530  0.00  0.00    +0.000 C 
ENDBRANCH  17  28
ENDBRANCH   1  22
TORSDOF 3
ENDMDL
MODEL 7
REMARK VINA RESULT:      -7.7      2.377      9.059
REMARK  Name = 
REMARK  5 active torsions:
REMARK  status: ('A' for Active; 'I' for Inactive)
REMARK    1  A    between atoms: C_1  and  C_2
REMARK    2  A    between atoms: C_2  and  C_3
REMARK    3  A    between atoms: N_6  and  C_7
REMARK    4  A    between atoms: C_12  and  C_13
REMARK    5  A    between atoms: C_16  and  C_18
REMARK                            x       y       z     vdW  Elec       q    Type
REMARK                         _______ _______ _______ _____ _____    ______ ____
ROOT
ATOM      1  C   UNL     1       0.706  10.119  18.503  0.00  0.00    +0.000 C 
ATOM      2  C   UNL     1       0.928   9.320  19.804  0.00  0.00    +0.000 C 
ATOM      3  N   UNL     1       1.886   8.512  19.068  0.00  0.00    +0.000 N 
ATOM      4  C   UNL     1       2.298   7.249  19.439  0.00  0.00    +0.000 C 
ATOM      5  O   UNL     1       1.976   6.756  20.524  0.00  0.00    +0.000 OA
ATOM      6  C   UNL     1       1.347   8.915  17.767  0.00  0.00    +0.000 C 
ENDROOT
BRANCH   4   7
ATOM      7  C   UNL     1       3.183   6.550  18.526  0.00  0.00    +0.000 A 
ATOM      8  N   UNL     1       3.313   5.240  18.412  0.00  0.00    +0.000 NA
ATOM      9  C   UNL     1       4.154   5.045  17.343  0.00  0.00    +0.000 A 
ATOM     10  C   UNL     1       4.594   3.849  16.758  0.00  0.00    +0.000 A 
ATOM     11  C   UNL     1       5.455   3.920  15.654  0.00  0.00    +0.000 A 
ATOM     12  C   UNL     1       5.867   5.155  15.147  0.00  0.00    +0.000 A 
ATOM     13  C   UNL     1       5.433   6.359  15.715  0.00  0.00    +0.000 A 
ATOM     14  C   UNL     1       4.575   6.258  16.811  0.00  0.00    +0.000 A 
ATOM     15  N   UNL     1       3.950   7.199  17.587  0.00  0.00    +0.000 N 
ATOM     16  H   UNL     1       3.986   8.201  17.480  0.00  0.00    +0.000 HD
ENDBRANCH   4   7
BRANCH   1  22
ATOM     17  C   UNL     1      -1.382  11.787  18.586  0.00  0.00    +0.000 A 
ATOM     18  N   UNL     1      -2.635  12.104  18.178  0.00  0.00    +0.000 NA
ATOM     19  C   UNL     1      -3.271  11.209  17.392  0.00  0.00    +0.000 A 
ATOM     20  C   UNL     1      -2.691  10.020  17.007  0.00  0.00    +0.000 A 
ATOM     21  N   UNL     1      -1.447   9.674  17.389  0.00  0.00    +0.000 NA
ATOM     22  C   UNL     1      -0.774  10.566  18.175  0.00  0.00    +0.000 A 
BRANCH  17  28
ATOM     23  C   UNL     1       0.486  15.722  21.353  0.00  0.00    +0.000 C 
ATOM     24  C   UNL     1       1.078  14.398  20.839  0.00  0.00    +0.000 C 
ATOM     25  C   UNL     1       2.549  14.319  21.293  0.00  0.00    +0.000 C 
ATOM     26  C   UNL     1       1.042  14.377  19.282  0.00  0.00    +0.000 C 
ATOM     27  C   UNL     1      -0.324  13.990  18.701  0.00  0.00    +0.000 C 
ATOM     28  N   UNL     1      -0.682  12.723  19.333  0.00  0.00    +0.000 N 
ATOM     29  C   UNL     1      -1.009  12.889  20.743  0.00  0.00    +0.000 C 
ATOM     30  C   UNL     1       0.307  13.197  21.459  0.00  0.00    +0.000 C 
ENDBRANCH  17  28
ENDBRANCH   1  22
TORSDOF 3
ENDMDL
MODEL 8
REMARK VINA RESULT:      -7.7      2.271      8.820
REMARK  Name = 
REMARK  5 active torsions:
REMARK  status: ('A' for Active; 'I' for Inactive)
REMARK    1  A    between atoms: C_1  and  C_2
REMARK    2  A    between atoms: C_2  and  C_3
REMARK    3  A    between atoms: N_6  and  C_7
REMARK    4  A    between atoms: C_12  and  C_13
REMARK    5  A    between atoms: C_16  and  C_18
REMARK                            x       y       z     vdW  Elec       q    Type
REMARK                         _______ _______ _______ _____ _____    ______ ____
ROOT
ATOM      1  C   UNL     1       1.397   9.619  19.119  0.00  0.00    +0.000 C 
ATOM      2  C   UNL     1       1.177   8.528  20.188  0.00  0.00    +0.000 C 
ATOM      3  N   UNL     1       2.222   7.762  19.529  0.00  0.00    +0.000 N 
ATOM      4  C   UNL     1       2.397   6.400  19.657  0.00  0.00    +0.000 C 
ATOM      5  O   UNL     1       1.744   5.738  20.469  0.00  0.00    +0.000 OA
ATOM      6  C   UNL     1       2.102   8.521  18.282  0.00  0.00    +0.000 C 
ENDROOT
BRANCH   4   7
ATOM      7  C   UNL     1       3.430   5.790  18.842  0.00  0.00    +0.000 A 
ATOM      8  N   UNL     1       3.272   5.277  17.634  0.00  0.00    +0.000 NA
ATOM      9  C   UNL     1       4.535   4.941  17.209  0.00  0.00    +0.000 A 
ATOM     10  C   UNL     1       4.953   4.401  15.984  0.00  0.00    +0.000 A 
ATOM     11  C   UNL     1       6.318   4.154  15.791  0.00  0.00    +0.000 A 
ATOM     12  C   UNL     1       7.246   4.439  16.796  0.00  0.00    +0.000 A 
ATOM     13  C   UNL     1       6.848   4.984  18.023  0.00  0.00    +0.000 A 
ATOM     14  C   UNL     1       5.482   5.221  18.187  0.00  0.00    +0.000 A 
ATOM     15  N   UNL     1       4.752   5.753  19.218  0.00  0.00    +0.000 N 
ATOM     16  H   UNL     1       5.102   6.110  20.094  0.00  0.00    +0.000 HD
ENDBRANCH   4   7
BRANCH   1  22
ATOM     17  C   UNL     1      -0.173  11.742  18.698  0.00  0.00    +0.000 A 
ATOM     18  N   UNL     1      -1.269  12.281  18.109  0.00  0.00    +0.000 NA
ATOM     19  C   UNL     1      -2.070  11.442  17.419  0.00  0.00    +0.000 A 
ATOM     20  C   UNL     1      -1.805  10.096  17.302  0.00  0.00    +0.000 A 
ATOM     21  N   UNL     1      -0.725   9.526  17.868  0.00  0.00    +0.000 NA
ATOM     22  C   UNL     1       0.112  10.353  18.563  0.00  0.00    +0.000 A 
BRANCH  17  28
ATOM     23  C   UNL     1       3.550  14.208  21.285  0.00  0.00    +0.000 C 
ATOM     24  C   UNL     1       2.248  14.655  20.597  0.00  0.00    +0.000 C 
ATOM     25  C   UNL     1       2.108  16.180  20.772  0.00  0.00    +0.000 C 
ATOM     26  C   UNL     1       1.030  13.967  21.280  0.00  0.00    +0.000 C 
ATOM     27  C   UNL     1       0.786  12.528  20.806  0.00  0.00    +0.000 C 
ATOM     28  N   UNL     1       0.704  12.596  19.350  0.00  0.00    +0.000 N 
ATOM     29  C   UNL     1       1.997  12.881  18.743  0.00  0.00    +0.000 C 
ATOM     30  C   UNL     1       2.320  14.339  19.074  0.00  0.00    +0.000 C 
ENDBRANCH  17  28
ENDBRANCH   1  22
TORSDOF 3
ENDMDL
MODEL 9
REMARK VINA RESULT:      -7.6      0.484      1.640
REMARK  Name = 
REMARK  5 active torsions:
REMARK  status: ('A' for Active; 'I' for Inactive)
REMARK    1  A    between atoms: C_1  and  C_2
REMARK    2  A    between atoms: C_2  and  C_3
REMARK    3  A    between atoms: N_6  and  C_7
REMARK    4  A    between atoms: C_12  and  C_13
REMARK    5  A    between atoms: C_16  and  C_18
REMARK                            x       y       z     vdW  Elec       q    Type
REMARK                         _______ _______ _______ _____ _____    ______ ____
ROOT
ATOM      1  C   UNL     1       2.521   7.147  19.761  0.00  0.00    +0.000 C 
ATOM      2  C   UNL     1       2.072   7.846  18.461  0.00  0.00    +0.000 C 
ATOM      3  N   UNL     1       1.536   8.909  19.294  0.00  0.00    +0.000 N 
ATOM      4  C   UNL     1       0.572   9.810  18.895  0.00  0.00    +0.000 C 
ATOM      5  O   UNL     1       0.183   9.864  17.725  0.00  0.00    +0.000 OA
ATOM      6  C   UNL     1       1.510   8.066  20.492  0.00  0.00    +0.000 C 
ENDROOT
BRANCH   4   7
ATOM      7  C   UNL     1       0.083  10.739  19.896  0.00  0.00    +0.000 A 
ATOM      8  N   UNL     1      -0.789  10.470  20.853  0.00  0.00    +0.000 NA
ATOM      9  C   UNL     1      -0.845  11.603  21.629  0.00  0.00    +0.000 A 
ATOM     10  C   UNL     1      -1.575  11.850  22.800  0.00  0.00    +0.000 A 
ATOM     11  C   UNL     1      -1.450  13.101  23.417  0.00  0.00    +0.000 A 
ATOM     12  C   UNL     1      -0.616  14.084  22.878  0.00  0.00    +0.000 A 
ATOM     13  C   UNL     1       0.125  13.854  21.712  0.00  0.00    +0.000 A 
ATOM     14  C   UNL     1      -0.017  12.598  21.121  0.00  0.00    +0.000 A 
ATOM     15  N   UNL     1       0.555  12.025  20.014  0.00  0.00    +0.000 N 
ATOM     16  H   UNL     1       1.244  12.434  19.403  0.00  0.00    +0.000 HD
ENDBRANCH   4   7
BRANCH   1  22
ATOM     17  C   UNL     1       3.253   4.631  19.224  0.00  0.00    +0.000 A 
ATOM     18  N   UNL     1       3.071   3.301  19.411  0.00  0.00    +0.000 NA
ATOM     19  C   UNL     1       2.017   2.925  20.166  0.00  0.00    +0.000 A 
ATOM     20  C   UNL     1       1.152   3.835  20.733  0.00  0.00    +0.000 A 
ATOM     21  N   UNL     1       1.304   5.163  20.574  0.00  0.00    +0.000 NA
ATOM     22  C   UNL     1       2.370   5.574  19.824  0.00  0.00    +0.000 A 
BRANCH  17  28
ATOM     23  C   UNL     1       7.303   6.917  16.988  0.00  0.00    +0.000 C 
ATOM     24  C   UNL     1       6.669   5.519  16.881  0.00  0.00    +0.000 C 
ATOM     25  C   UNL     1       7.483   4.696  15.863  0.00  0.00    +0.000 C 
ATOM     26  C   UNL     1       5.208   5.644  16.357  0.00  0.00    +0.000 C 
ATOM     27  C   UNL     1       4.192   6.020  17.443  0.00  0.00    +0.000 C 
ATOM     28  N   UNL     1       4.370   5.043  18.513  0.00  0.00    +0.000 N 
ATOM     29  C   UNL     1       5.629   5.233  19.222  0.00  0.00    +0.000 C 
ATOM     30  C   UNL     1       6.737   4.801  18.260  0.00  0.00    +0.000 C 
ENDBRANCH  17  28
ENDBRANCH   1  22
TORSDOF 3
ENDMDL
