MODEL 1
REMARK VINA RESULT:      -8.4      0.000      0.000
REMARK  Name = 
REMARK  5 active torsions:
REMARK  status: ('A' for Active; 'I' for Inactive)
REMARK    1  A    between atoms: O_1  and  C_2
REMARK    2  A    between atoms: C_2  and  C_3
REMARK    3  A    between atoms: C_6  and  C_7
REMARK    4  A    between atoms: N_9  and  C_10
REMARK    5  A    between atoms: C_10  and  C_11
REMARK                            x       y       z     vdW  Elec       q    Type
REMARK                         _______ _______ _______ _____ _____    ______ ____
ROOT
ATOM      1  C   UNL     1       2.866   6.367  19.220  0.00  0.00    +0.000 A 
ATOM      2  N   UNL     1       4.065   6.238  18.634  0.00  0.00    +0.000 NA
ATOM      3  N   UNL     1       4.431   4.968  18.921  0.00  0.00    +0.000 N 
ATOM      4  C   UNL     1       3.479   4.258  19.614  0.00  0.00    +0.000 A 
ATOM      5  C   UNL     1       3.437   2.934  20.074  0.00  0.00    +0.000 A 
ATOM      6  C   UNL     1       2.291   2.523  20.764  0.00  0.00    +0.000 A 
ATOM      7  C   UNL     1       1.240   3.406  21.002  0.00  0.00    +0.000 A 
ATOM      8  C   UNL     1       1.303   4.729  20.552  0.00  0.00    +0.000 A 
ATOM      9  C   UNL     1       2.439   5.161  19.835  0.00  0.00    +0.000 A 
ENDROOT
BRANCH   1  13
ATOM     10  C   UNL     1       1.023   9.449  19.920  0.00  0.00    +0.000 A 
ATOM     11  C   UNL     1       1.242   9.629  18.571  0.00  0.00    +0.000 A 
ATOM     12  C   UNL     1       1.953   8.492  18.126  0.00  0.00    +0.000 A 
ATOM     13  C   UNL     1       2.125   7.668  19.223  0.00  0.00    +0.000 A 
ATOM     14  O   UNL     1       1.540   8.247  20.319  0.00  0.00    +0.000 OA
BRANCH  10  15
ATOM     15  C   UNL     1       0.400  10.285  20.968  0.00  0.00    +0.000 C 
BRANCH  15  16
ATOM     16  O   UNL     1       1.238  10.235  22.120  0.00  0.00    +0.000 OA
ATOM     17  H   UNL     1       2.088  10.622  21.858  0.00  0.00    +0.000 HD
ENDBRANCH  15  16
ENDBRANCH  10  15
ENDBRANCH   1  13
BRANCH   3  18
ATOM     18  C   UNL     1       5.778   4.519  18.576  0.00  0.00    +0.000 C 
BRANCH  18  19
ATOM     19  C   UNL     1       6.013   4.524  17.085  0.00  0.00    +0.000 A 
ATOM     20  C   UNL     1       5.056   3.979  16.210  0.00  0.00    +0.000 A 
ATOM     21  C   UNL     1       5.310   3.904  14.841  0.00  0.00    +0.000 A 
ATOM     22  C   UNL     1       6.509   4.393  14.339  0.00  0.00    +0.000 A 
ATOM     23  F   UNL     1       6.771   4.286  13.030  0.00  0.00    +0.000 F 
ATOM     24  C   UNL     1       7.446   4.985  15.177  0.00  0.00    +0.000 A 
ATOM     25  C   UNL     1       7.198   5.057  16.550  0.00  0.00    +0.000 A 
ENDBRANCH  18  19
ENDBRANCH   3  18
TORSDOF 5
ENDMDL
MODEL 2
REMARK VINA RESULT:      -8.4      0.167      1.002
REMARK  Name = 
REMARK  5 active torsions:
REMARK  status: ('A' for Active; 'I' for Inactive)
REMARK    1  A    between atoms: O_1  and  C_2
REMARK    2  A    between atoms: C_2  and  C_3
REMARK    3  A    between atoms: C_6  and  C_7
REMARK    4  A    between atoms: N_9  and  C_10
REMARK    5  A    between atoms: C_10  and  C_11
REMARK                            x       y       z     vdW  Elec       q    Type
REMARK                         _______ _______ _______ _____ _____    ______ ____
ROOT
ATOM      1  C   UNL     1       2.879   6.407  19.121  0.00  0.00    +0.000 A 
ATOM      2  N   UNL     1       4.092   6.254  18.573  0.00  0.00    +0.000 NA
ATOM      3  N   UNL     1       4.448   4.996  18.919  0.00  0.00    +0.000 N 
ATOM      4  C   UNL     1       3.476   4.315  19.614  0.00  0.00    +0.000 A 
ATOM      5  C   UNL     1       3.419   3.010  20.124  0.00  0.00    +0.000 A 
ATOM      6  C   UNL     1       2.255   2.627  20.799  0.00  0.00    +0.000 A 
ATOM      7  C   UNL     1       1.199   3.520  20.973  0.00  0.00    +0.000 A 
ATOM      8  C   UNL     1       1.277   4.823  20.473  0.00  0.00    +0.000 A 
ATOM      9  C   UNL     1       2.432   5.226  19.771  0.00  0.00    +0.000 A 
ENDROOT
BRANCH   1  13
ATOM     10  C   UNL     1       1.042   9.527  19.651  0.00  0.00    +0.000 A 
ATOM     11  C   UNL     1       1.260   9.631  18.294  0.00  0.00    +0.000 A 
ATOM     12  C   UNL     1       1.968   8.470  17.912  0.00  0.00    +0.000 A 
ATOM     13  C   UNL     1       2.140   7.708  19.053  0.00  0.00    +0.000 A 
ATOM     14  O   UNL     1       1.558   8.348  20.115  0.00  0.00    +0.000 OA
BRANCH  10  15
ATOM     15  C   UNL     1       0.423  10.421  20.652  0.00  0.00    +0.000 C 
BRANCH  15  16
ATOM     16  O   UNL     1       1.171  10.308  21.859  0.00  0.00    +0.000 OA
ATOM     17  H   UNL     1       0.784   9.570  22.355  0.00  0.00    +0.000 HD
ENDBRANCH  15  16
ENDBRANCH  10  15
ENDBRANCH   1  13
BRANCH   3  18
ATOM     18  C   UNL     1       5.804   4.533  18.629  0.00  0.00    +0.000 C 
BRANCH  18  19
ATOM     19  C   UNL     1       6.067   4.445  17.146  0.00  0.00    +0.000 A 
ATOM     20  C   UNL     1       7.262   4.946  16.602  0.00  0.00    +0.000 A 
ATOM     21  C   UNL     1       7.468   4.944  15.223  0.00  0.00    +0.000 A 
ATOM     22  C   UNL     1       6.492   4.421  14.385  0.00  0.00    +0.000 A 
ATOM     23  F   UNL     1       6.672   4.455  13.058  0.00  0.00    +0.000 F 
ATOM     24  C   UNL     1       5.326   3.872  14.903  0.00  0.00    +0.000 A 
ATOM     25  C   UNL     1       5.114   3.877  16.284  0.00  0.00    +0.000 A 
ENDBRANCH  18  19
ENDBRANCH   3  18
TORSDOF 5
ENDMDL
MODEL 3
REMARK VINA RESULT:      -8.3      1.024      1.394
REMARK  Name = 
REMARK  5 active torsions:
REMARK  status: ('A' for Active; 'I' for Inactive)
REMARK    1  A    between atoms: O_1  and  C_2
REMARK    2  A    between atoms: C_2  and  C_3
REMARK    3  A    between atoms: C_6  and  C_7
REMARK    4  A    between atoms: N_9  and  C_10
REMARK    5  A    between atoms: C_10  and  C_11
REMARK                            x       y       z     vdW  Elec       q    Type
REMARK                         _______ _______ _______ _____ _____    ______ ____
ROOT
ATOM      1  C   UNL     1       2.728   6.278  19.607  0.00  0.00    +0.000 A 
ATOM      2  N   UNL     1       3.965   6.232  19.093  0.00  0.00    +0.000 NA
ATOM      3  N   UNL     1       4.288   4.920  19.140  0.00  0.00    +0.000 N 
ATOM      4  C   UNL     1       3.275   4.115  19.605  0.00  0.00    +0.000 A 
ATOM      5  C   UNL     1       3.176   2.727  19.781  0.00  0.00    +0.000 A 
ATOM      6  C   UNL     1       1.976   2.221  20.289  0.00  0.00    +0.000 A 
ATOM      7  C   UNL     1       0.924   3.070  20.628  0.00  0.00    +0.000 A 
ATOM      8  C   UNL     1       1.042   4.454  20.462  0.00  0.00    +0.000 A 
ATOM      9  C   UNL     1       2.236   4.986  19.931  0.00  0.00    +0.000 A 
ENDROOT
BRANCH   1  13
ATOM     10  C   UNL     1       1.098   9.550  19.454  0.00  0.00    +0.000 A 
ATOM     11  C   UNL     1       0.786   9.213  20.754  0.00  0.00    +0.000 A 
ATOM     12  C   UNL     1       1.366   7.946  20.988  0.00  0.00    +0.000 A 
ATOM     13  C   UNL     1       2.011   7.574  19.823  0.00  0.00    +0.000 A 
ATOM     14  O   UNL     1       1.861   8.565  18.888  0.00  0.00    +0.000 OA
BRANCH  10  15
ATOM     15  C   UNL     1       0.747  10.697  18.590  0.00  0.00    +0.000 C 
BRANCH  15  16
ATOM     16  O   UNL     1      -0.331  10.296  17.750  0.00  0.00    +0.000 OA
ATOM     17  H   UNL     1      -1.147  10.566  18.201  0.00  0.00    +0.000 HD
ENDBRANCH  15  16
ENDBRANCH  10  15
ENDBRANCH   1  13
BRANCH   3  18
ATOM     18  C   UNL     1       5.650   4.509  18.807  0.00  0.00    +0.000 C 
BRANCH  18  19
ATOM     19  C   UNL     1       5.906   4.545  17.320  0.00  0.00    +0.000 A 
ATOM     20  C   UNL     1       4.930   4.091  16.417  0.00  0.00    +0.000 A 
ATOM     21  C   UNL     1       5.198   4.043  15.049  0.00  0.00    +0.000 A 
ATOM     22  C   UNL     1       6.433   4.470  14.578  0.00  0.00    +0.000 A 
ATOM     23  F   UNL     1       6.706   4.387  13.269  0.00  0.00    +0.000 F 
ATOM     24  C   UNL     1       7.393   4.974  15.447  0.00  0.00    +0.000 A 
ATOM     25  C   UNL     1       7.130   5.018  16.817  0.00  0.00    +0.000 A 
ENDBRANCH  18  19
ENDBRANCH   3  18
TORSDOF 5
ENDMDL
MODEL 4
REMARK VINA RESULT:      -8.3      1.046      1.696
REMARK  Name = 
REMARK  5 active torsions:
REMARK  status: ('A' for Active; 'I' for Inactive)
REMARK    1  A    between atoms: O_1  and  C_2
REMARK    2  A    between atoms: C_2  and  C_3
REMARK    3  A    between atoms: C_6  and  C_7
REMARK    4  A    between atoms: N_9  and  C_10
REMARK    5  A    between atoms: C_10  and  C_11
REMARK                            x       y       z     vdW  Elec       q    Type
REMARK                         _______ _______ _______ _____ _____    ______ ____
ROOT
ATOM      1  C   UNL     1       2.709   6.313  19.685  0.00  0.00    +0.000 A 
ATOM      2  N   UNL     1       3.965   6.284  19.220  0.00  0.00    +0.000 NA
ATOM      3  N   UNL     1       4.296   4.973  19.262  0.00  0.00    +0.000 N 
ATOM      4  C   UNL     1       3.271   4.155  19.676  0.00  0.00    +0.000 A 
ATOM      5  C   UNL     1       3.175   2.764  19.829  0.00  0.00    +0.000 A 
ATOM      6  C   UNL     1       1.959   2.243  20.282  0.00  0.00    +0.000 A 
ATOM      7  C   UNL     1       0.889   3.080  20.590  0.00  0.00    +0.000 A 
ATOM      8  C   UNL     1       1.003   4.467  20.448  0.00  0.00    +0.000 A 
ATOM      9  C   UNL     1       2.213   5.015  19.972  0.00  0.00    +0.000 A 
ENDROOT
BRANCH   1  13
ATOM     10  C   UNL     1       1.037   9.563  19.504  0.00  0.00    +0.000 A 
ATOM     11  C   UNL     1       0.724   9.230  20.805  0.00  0.00    +0.000 A 
ATOM     12  C   UNL     1       1.319   7.973  21.049  0.00  0.00    +0.000 A 
ATOM     13  C   UNL     1       1.973   7.602  19.890  0.00  0.00    +0.000 A 
ATOM     14  O   UNL     1       1.815   8.585  18.948  0.00  0.00    +0.000 OA
BRANCH  10  15
ATOM     15  C   UNL     1       0.675  10.701  18.631  0.00  0.00    +0.000 C 
BRANCH  15  16
ATOM     16  O   UNL     1       1.820  11.033  17.852  0.00  0.00    +0.000 OA
ATOM     17  H   UNL     1       2.093  10.218  17.402  0.00  0.00    +0.000 HD
ENDBRANCH  15  16
ENDBRANCH  10  15
ENDBRANCH   1  13
BRANCH   3  18
ATOM     18  C   UNL     1       5.673   4.576  18.978  0.00  0.00    +0.000 C 
BRANCH  18  19
ATOM     19  C   UNL     1       5.946   4.500  17.495  0.00  0.00    +0.000 A 
ATOM     20  C   UNL     1       7.211   4.841  16.985  0.00  0.00    +0.000 A 
ATOM     21  C   UNL     1       7.439   4.855  15.609  0.00  0.00    +0.000 A 
ATOM     22  C   UNL     1       6.412   4.507  14.741  0.00  0.00    +0.000 A 
ATOM     23  F   UNL     1       6.618   4.559  13.419  0.00  0.00    +0.000 F 
ATOM     24  C   UNL     1       5.170   4.115  15.225  0.00  0.00    +0.000 A 
ATOM     25  C   UNL     1       4.937   4.104  16.602  0.00  0.00    +0.000 A 
ENDBRANCH  18  19
ENDBRANCH   3  18
TORSDOF 5
ENDMDL
MODEL 5
REMARK VINA RESULT:      -8.3      1.423      1.559
REMARK  Name = 
REMARK  5 active torsions:
REMARK  status: ('A' for Active; 'I' for Inactive)
REMARK    1  A    between atoms: O_1  and  C_2
REMARK    2  A    between atoms: C_2  and  C_3
REMARK    3  A    between atoms: C_6  and  C_7
REMARK    4  A    between atoms: N_9  and  C_10
REMARK    5  A    between atoms: C_10  and  C_11
REMARK                            x       y       z     vdW  Elec       q    Type
REMARK                         _______ _______ _______ _____ _____    ______ ____
ROOT
ATOM      1  C   UNL     1       3.171   6.051  18.148  0.00  0.00    +0.000 A 
ATOM      2  N   UNL     1       4.426   6.084  17.678  0.00  0.00    +0.000 NA
ATOM      3  N   UNL     1       4.742   4.781  17.506  0.00  0.00    +0.000 N 
ATOM      4  C   UNL     1       3.710   3.917  17.787  0.00  0.00    +0.000 A 
ATOM      5  C   UNL     1       3.601   2.521  17.713  0.00  0.00    +0.000 A 
ATOM      6  C   UNL     1       2.381   1.945  18.083  0.00  0.00    +0.000 A 
ATOM      7  C   UNL     1       1.320   2.732  18.528  0.00  0.00    +0.000 A 
ATOM      8  C   UNL     1       1.449   4.122  18.612  0.00  0.00    +0.000 A 
ATOM      9  C   UNL     1       2.663   4.728  18.224  0.00  0.00    +0.000 A 
ENDROOT
BRANCH   1  13
ATOM     10  C   UNL     1       1.432   8.813  19.802  0.00  0.00    +0.000 A 
ATOM     11  C   UNL     1       1.544   9.353  18.539  0.00  0.00    +0.000 A 
ATOM     12  C   UNL     1       2.201   8.385  17.747  0.00  0.00    +0.000 A 
ATOM     13  C   UNL     1       2.450   7.297  18.563  0.00  0.00    +0.000 A 
ATOM     14  O   UNL     1       1.964   7.553  19.818  0.00  0.00    +0.000 OA
BRANCH  10  15
ATOM     15  C   UNL     1       0.908   9.330  21.085  0.00  0.00    +0.000 C 
BRANCH  15  16
ATOM     16  O   UNL     1       1.720   8.804  22.130  0.00  0.00    +0.000 OA
ATOM     17  H   UNL     1       1.638   7.838  22.083  0.00  0.00    +0.000 HD
ENDBRANCH  15  16
ENDBRANCH  10  15
ENDBRANCH   1  13
BRANCH   3  18
ATOM     18  C   UNL     1       6.114   4.421  17.154  0.00  0.00    +0.000 C 
BRANCH  18  19
ATOM     19  C   UNL     1       6.344   4.454  15.662  0.00  0.00    +0.000 A 
ATOM     20  C   UNL     1       5.515   3.720  14.796  0.00  0.00    +0.000 A 
ATOM     21  C   UNL     1       5.780   3.681  13.428  0.00  0.00    +0.000 A 
ATOM     22  C   UNL     1       6.858   4.393  12.918  0.00  0.00    +0.000 A 
ATOM     23  F   UNL     1       7.136   4.324  11.609  0.00  0.00    +0.000 F 
ATOM     24  C   UNL     1       7.658   5.169  13.747  0.00  0.00    +0.000 A 
ATOM     25  C   UNL     1       7.399   5.207  15.119  0.00  0.00    +0.000 A 
ENDBRANCH  18  19
ENDBRANCH   3  18
TORSDOF 5
ENDMDL
MODEL 6
REMARK VINA RESULT:      -8.2      2.159      2.678
REMARK  Name = 
REMARK  5 active torsions:
REMARK  status: ('A' for Active; 'I' for Inactive)
REMARK    1  A    between atoms: O_1  and  C_2
REMARK    2  A    between atoms: C_2  and  C_3
REMARK    3  A    between atoms: C_6  and  C_7
REMARK    4  A    between atoms: N_9  and  C_10
REMARK    5  A    between atoms: C_10  and  C_11
REMARK                            x       y       z     vdW  Elec       q    Type
REMARK                         _______ _______ _______ _____ _____    ______ ____
ROOT
ATOM      1  C   UNL     1       2.298   6.431  19.336  0.00  0.00    +0.000 A 
ATOM      2  N   UNL     1       3.249   6.512  18.396  0.00  0.00    +0.000 NA
ATOM      3  N   UNL     1       3.591   5.224  18.168  0.00  0.00    +0.000 N 
ATOM      4  C   UNL     1       2.845   4.316  18.883  0.00  0.00    +0.000 A 
ATOM      5  C   UNL     1       2.847   2.914  18.922  0.00  0.00    +0.000 A 
ATOM      6  C   UNL     1       1.938   2.288  19.782  0.00  0.00    +0.000 A 
ATOM      7  C   UNL     1       1.077   3.034  20.584  0.00  0.00    +0.000 A 
ATOM      8  C   UNL     1       1.097   4.431  20.546  0.00  0.00    +0.000 A 
ATOM      9  C   UNL     1       1.990   5.086  19.671  0.00  0.00    +0.000 A 
ENDROOT
BRANCH   1  13
ATOM     10  C   UNL     1       0.873   9.062  21.442  0.00  0.00    +0.000 A 
ATOM     11  C   UNL     1       0.910   9.740  20.242  0.00  0.00    +0.000 A 
ATOM     12  C   UNL     1       1.438   8.840  19.291  0.00  0.00    +0.000 A 
ATOM     13  C   UNL     1       1.691   7.653  19.953  0.00  0.00    +0.000 A 
ATOM     14  O   UNL     1       1.328   7.784  21.268  0.00  0.00    +0.000 OA
BRANCH  10  15
ATOM     15  C   UNL     1       0.490   9.450  22.817  0.00  0.00    +0.000 C 
BRANCH  15  16
ATOM     16  O   UNL     1      -0.821   8.949  23.062  0.00  0.00    +0.000 OA
ATOM     17  H   UNL     1      -0.711   8.046  23.401  0.00  0.00    +0.000 HD
ENDBRANCH  15  16
ENDBRANCH  10  15
ENDBRANCH   1  13
BRANCH   3  18
ATOM     18  C   UNL     1       4.733   4.931  17.304  0.00  0.00    +0.000 C 
BRANCH  18  19
ATOM     19  C   UNL     1       5.948   5.746  17.677  0.00  0.00    +0.000 A 
ATOM     20  C   UNL     1       6.783   5.341  18.732  0.00  0.00    +0.000 A 
ATOM     21  C   UNL     1       7.855   6.138  19.133  0.00  0.00    +0.000 A 
ATOM     22  C   UNL     1       8.109   7.329  18.466  0.00  0.00    +0.000 A 
ATOM     23  F   UNL     1       9.115   8.114  18.875  0.00  0.00    +0.000 F 
ATOM     24  C   UNL     1       7.330   7.723  17.385  0.00  0.00    +0.000 A 
ATOM     25  C   UNL     1       6.253   6.930  16.984  0.00  0.00    +0.000 A 
ENDBRANCH  18  19
ENDBRANCH   3  18
TORSDOF 5
ENDMDL
MODEL 7
REMARK VINA RESULT:      -8.1      2.242      2.839
REMARK  Name = 
REMARK  5 active torsions:
REMARK  status: ('A' for Active; 'I' for Inactive)
REMARK    1  A    between atoms: O_1  and  C_2
REMARK    2  A    between atoms: C_2  and  C_3
REMARK    3  A    between atoms: C_6  and  C_7
REMARK    4  A    between atoms: N_9  and  C_10
REMARK    5  A    between atoms: C_10  and  C_11
REMARK                            x       y       z     vdW  Elec       q    Type
REMARK                         _______ _______ _______ _____ _____    ______ ____
ROOT
ATOM      1  C   UNL     1       2.333   6.452  19.287  0.00  0.00    +0.000 A 
ATOM      2  N   UNL     1       3.299   6.509  18.360  0.00  0.00    +0.000 NA
ATOM      3  N   UNL     1       3.645   5.215  18.173  0.00  0.00    +0.000 N 
ATOM      4  C   UNL     1       2.888   4.327  18.901  0.00  0.00    +0.000 A 
ATOM      5  C   UNL     1       2.891   2.926  18.979  0.00  0.00    +0.000 A 
ATOM      6  C   UNL     1       1.969   2.323  19.841  0.00  0.00    +0.000 A 
ATOM      7  C   UNL     1       1.094   3.090  20.608  0.00  0.00    +0.000 A 
ATOM      8  C   UNL     1       1.113   4.486  20.531  0.00  0.00    +0.000 A 
ATOM      9  C   UNL     1       2.020   5.117  19.654  0.00  0.00    +0.000 A 
ENDROOT
BRANCH   1  13
ATOM     10  C   UNL     1       0.852   9.716  20.026  0.00  0.00    +0.000 A 
ATOM     11  C   UNL     1       0.712   9.128  21.265  0.00  0.00    +0.000 A 
ATOM     12  C   UNL     1       1.259   7.830  21.156  0.00  0.00    +0.000 A 
ATOM     13  C   UNL     1       1.714   7.691  19.859  0.00  0.00    +0.000 A 
ATOM     14  O   UNL     1       1.481   8.852  19.171  0.00  0.00    +0.000 OA
BRANCH  10  15
ATOM     15  C   UNL     1       0.437  11.020  19.468  0.00  0.00    +0.000 C 
BRANCH  15  16
ATOM     16  O   UNL     1       0.011  10.804  18.126  0.00  0.00    +0.000 OA
ATOM     17  H   UNL     1       0.092   9.851  17.962  0.00  0.00    +0.000 HD
ENDBRANCH  15  16
ENDBRANCH  10  15
ENDBRANCH   1  13
BRANCH   3  18
ATOM     18  C   UNL     1       4.802   4.900  17.337  0.00  0.00    +0.000 C 
BRANCH  18  19
ATOM     19  C   UNL     1       6.005   5.738  17.696  0.00  0.00    +0.000 A 
ATOM     20  C   UNL     1       6.853   5.355  18.750  0.00  0.00    +0.000 A 
ATOM     21  C   UNL     1       7.913   6.173  19.138  0.00  0.00    +0.000 A 
ATOM     22  C   UNL     1       8.145   7.362  18.460  0.00  0.00    +0.000 A 
ATOM     23  F   UNL     1       9.139   8.168  18.857  0.00  0.00    +0.000 F 
ATOM     24  C   UNL     1       7.353   7.735  17.380  0.00  0.00    +0.000 A 
ATOM     25  C   UNL     1       6.287   6.921  16.992  0.00  0.00    +0.000 A 
ENDBRANCH  18  19
ENDBRANCH   3  18
TORSDOF 5
ENDMDL
MODEL 8
REMARK VINA RESULT:      -8.0      4.105      7.552
REMARK  Name = 
REMARK  5 active torsions:
REMARK  status: ('A' for Active; 'I' for Inactive)
REMARK    1  A    between atoms: O_1  and  C_2
REMARK    2  A    between atoms: C_2  and  C_3
REMARK    3  A    between atoms: C_6  and  C_7
REMARK    4  A    between atoms: N_9  and  C_10
REMARK    5  A    between atoms: C_10  and  C_11
REMARK                            x       y       z     vdW  Elec       q    Type
REMARK                         _______ _______ _______ _____ _____    ______ ____
ROOT
ATOM      1  C   UNL     1       5.677   5.185  15.653  0.00  0.00    +0.000 A 
ATOM      2  N   UNL     1       4.524   5.845  15.826  0.00  0.00    +0.000 NA
ATOM      3  N   UNL     1       4.521   6.154  17.142  0.00  0.00    +0.000 N 
ATOM      4  C   UNL     1       5.664   5.771  17.805  0.00  0.00    +0.000 A 
ATOM      5  C   UNL     1       6.078   5.921  19.137  0.00  0.00    +0.000 A 
ATOM      6  C   UNL     1       7.329   5.402  19.489  0.00  0.00    +0.000 A 
ATOM      7  C   UNL     1       8.122   4.742  18.553  0.00  0.00    +0.000 A 
ATOM      8  C   UNL     1       7.689   4.586  17.233  0.00  0.00    +0.000 A 
ATOM      9  C   UNL     1       6.441   5.119  16.848  0.00  0.00    +0.000 A 
ENDROOT
BRANCH   1  13
ATOM     10  C   UNL     1       5.944   3.420  12.459  0.00  0.00    +0.000 A 
ATOM     11  C   UNL     1       7.138   4.109  12.427  0.00  0.00    +0.000 A 
ATOM     12  C   UNL     1       7.202   4.854  13.625  0.00  0.00    +0.000 A 
ATOM     13  C   UNL     1       6.049   4.577  14.336  0.00  0.00    +0.000 A 
ATOM     14  O   UNL     1       5.286   3.686  13.628  0.00  0.00    +0.000 OA
BRANCH  10  15
ATOM     15  C   UNL     1       5.260   2.527  11.499  0.00  0.00    +0.000 C 
BRANCH  15  16
ATOM     16  O   UNL     1       5.952   1.282  11.495  0.00  0.00    +0.000 OA
ATOM     17  H   UNL     1       6.080   1.041  10.564  0.00  0.00    +0.000 HD
ENDBRANCH  15  16
ENDBRANCH  10  15
ENDBRANCH   1  13
BRANCH   3  18
ATOM     18  C   UNL     1       3.322   6.743  17.734  0.00  0.00    +0.000 C 
BRANCH  18  19
ATOM     19  C   UNL     1       2.529   5.736  18.531  0.00  0.00    +0.000 A 
ATOM     20  C   UNL     1       2.380   5.883  19.921  0.00  0.00    +0.000 A 
ATOM     21  C   UNL     1       1.723   4.908  20.670  0.00  0.00    +0.000 A 
ATOM     22  C   UNL     1       1.193   3.795  20.031  0.00  0.00    +0.000 A 
ATOM     23  F   UNL     1       0.596   2.839  20.755  0.00  0.00    +0.000 F 
ATOM     24  C   UNL     1       1.281   3.654  18.652  0.00  0.00    +0.000 A 
ATOM     25  C   UNL     1       1.943   4.626  17.898  0.00  0.00    +0.000 A 
ENDBRANCH  18  19
ENDBRANCH   3  18
TORSDOF 5
ENDMDL
MODEL 9
REMARK VINA RESULT:      -7.9      1.705      1.953
REMARK  Name = 
REMARK  5 active torsions:
REMARK  status: ('A' for Active; 'I' for Inactive)
REMARK    1  A    between atoms: O_1  and  C_2
REMARK    2  A    between atoms: C_2  and  C_3
REMARK    3  A    between atoms: C_6  and  C_7
REMARK    4  A    between atoms: N_9  and  C_10
REMARK    5  A    between atoms: C_10  and  C_11
REMARK                            x       y       z     vdW  Elec       q    Type
REMARK                         _______ _______ _______ _____ _____    ______ ____
ROOT
ATOM      1  C   UNL     1       3.178   5.982  18.417  0.00  0.00    +0.000 A 
ATOM      2  N   UNL     1       4.434   6.030  17.952  0.00  0.00    +0.000 NA
ATOM      3  N   UNL     1       4.734   4.738  17.692  0.00  0.00    +0.000 N 
ATOM      4  C   UNL     1       3.690   3.870  17.913  0.00  0.00    +0.000 A 
ATOM      5  C   UNL     1       3.563   2.483  17.746  0.00  0.00    +0.000 A 
ATOM      6  C   UNL     1       2.335   1.900  18.075  0.00  0.00    +0.000 A 
ATOM      7  C   UNL     1       1.284   2.669  18.571  0.00  0.00    +0.000 A 
ATOM      8  C   UNL     1       1.430   4.048  18.748  0.00  0.00    +0.000 A 
ATOM      9  C   UNL     1       2.653   4.663  18.403  0.00  0.00    +0.000 A 
ENDROOT
BRANCH   1  13
ATOM     10  C   UNL     1       1.494   9.184  18.966  0.00  0.00    +0.000 A 
ATOM     11  C   UNL     1       1.344   8.641  20.224  0.00  0.00    +0.000 A 
ATOM     12  C   UNL     1       1.965   7.374  20.189  0.00  0.00    +0.000 A 
ATOM     13  C   UNL     1       2.472   7.206  18.914  0.00  0.00    +0.000 A 
ATOM     14  O   UNL     1       2.198   8.323  18.169  0.00  0.00    +0.000 OA
BRANCH  10  15
ATOM     15  C   UNL     1       1.026  10.438  18.338  0.00  0.00    +0.000 C 
BRANCH  15  16
ATOM     16  O   UNL     1       2.070  10.919  17.496  0.00  0.00    +0.000 OA
ATOM     17  H   UNL     1       2.903  10.730  17.956  0.00  0.00    +0.000 HD
ENDBRANCH  15  16
ENDBRANCH  10  15
ENDBRANCH   1  13
BRANCH   3  18
ATOM     18  C   UNL     1       6.101   4.385  17.318  0.00  0.00    +0.000 C 
BRANCH  18  19
ATOM     19  C   UNL     1       6.310   4.431  15.823  0.00  0.00    +0.000 A 
ATOM     20  C   UNL     1       5.449   3.730  14.961  0.00  0.00    +0.000 A 
ATOM     21  C   UNL     1       5.692   3.701  13.588  0.00  0.00    +0.000 A 
ATOM     22  C   UNL     1       6.781   4.390  13.071  0.00  0.00    +0.000 A 
ATOM     23  F   UNL     1       7.038   4.330  11.757  0.00  0.00    +0.000 F 
ATOM     24  C   UNL     1       7.614   5.133  13.897  0.00  0.00    +0.000 A 
ATOM     25  C   UNL     1       7.377   5.161  15.273  0.00  0.00    +0.000 A 
ENDBRANCH  18  19
ENDBRANCH   3  18
TORSDOF 5
ENDMDL
