MODEL 1
REMARK VINA RESULT:      -6.2      0.000      0.000
REMARK  Name = 
REMARK  7 active torsions:
REMARK  status: ('A' for Active; 'I' for Inactive)
REMARK    1  A    between atoms: C_1  and  C_2
REMARK    2  A    between atoms: C_2  and  O_4
REMARK    3  A    between atoms: O_4  and  C_5
REMARK    4  A    between atoms: C_5  and  C_6
REMARK    5  A    between atoms: C_6  and  C_7
REMARK    6  A    between atoms: C_7  and  N_8
REMARK    7  A    between atoms: C_13  and  N_14
REMARK                            x       y       z     vdW  Elec       q    Type
REMARK                         _______ _______ _______ _____ _____    ______ ____
ROOT
ATOM      1  N   UNL     1       5.130   4.632  16.743  0.00  0.00    +0.000 N 
ATOM      2  C   UNL     1       5.400   4.296  15.332  0.00  0.00    +0.000 C 
ATOM      3  C   UNL     1       6.930   4.496  15.192  0.00  0.00    +0.000 C 
ATOM      4  N   UNL     1       7.296   5.090  16.465  0.00  0.00    +0.000 N 
ATOM      5  C   UNL     1       6.279   5.086  17.387  0.00  0.00    +0.000 C 
ATOM      6  C   UNL     1       6.330   5.447  18.677  0.00  0.00    +0.000 C 
ATOM      7  H   UNL     1       8.260   5.188  16.780  0.00  0.00    +0.000 HD
ENDROOT
BRANCH   6   8
ATOM      8  N   UNL     1       7.542   5.881  19.321  0.00  0.00    +0.000 N 
ATOM      9  O   UNL     1       8.230   6.779  18.815  0.00  0.00    +0.000 OA
ATOM     10  O   UNL     1       7.828   5.281  20.367  0.00  0.00    +0.000 OA
ENDBRANCH   6   8
BRANCH   1  11
ATOM     11  C   UNL     1       3.841   4.288  17.317  0.00  0.00    +0.000 C 
BRANCH  11  12
ATOM     12  C   UNL     1       3.806   2.822  17.733  0.00  0.00    +0.000 C 
BRANCH  12  13
ATOM     13  C   UNL     1       3.877   2.681  19.250  0.00  0.00    +0.000 C 
BRANCH  13  14
ATOM     14  O   UNL     1       2.610   2.238  19.763  0.00  0.00    +0.000 OA
BRANCH  14  16
ATOM     15  C   UNL     1       1.186   3.888  20.639  0.00  0.00    +0.000 C 
ATOM     16  C   UNL     1       2.216   2.841  20.916  0.00  0.00    +0.000 C 
ATOM     17  O   UNL     1       2.644   2.579  22.034  0.00  0.00    +0.000 OA
ENDBRANCH  14  16
ENDBRANCH  13  14
ENDBRANCH  12  13
ENDBRANCH  11  12
ENDBRANCH   1  11
TORSDOF 6
ENDMDL
MODEL 2
REMARK VINA RESULT:      -6.1      2.297      3.105
REMARK  Name = 
REMARK  7 active torsions:
REMARK  status: ('A' for Active; 'I' for Inactive)
REMARK    1  A    between atoms: C_1  and  C_2
REMARK    2  A    between atoms: C_2  and  O_4
REMARK    3  A    between atoms: O_4  and  C_5
REMARK    4  A    between atoms: C_5  and  C_6
REMARK    5  A    between atoms: C_6  and  C_7
REMARK    6  A    between atoms: C_7  and  N_8
REMARK    7  A    between atoms: C_13  and  N_14
REMARK                            x       y       z     vdW  Elec       q    Type
REMARK                         _______ _______ _______ _____ _____    ______ ____
ROOT
ATOM      1  N   UNL     1       4.391   4.384  17.674  0.00  0.00    +0.000 N 
ATOM      2  C   UNL     1       3.758   5.542  18.333  0.00  0.00    +0.000 C 
ATOM      3  C   UNL     1       4.179   6.743  17.450  0.00  0.00    +0.000 C 
ATOM      4  N   UNL     1       5.133   6.150  16.531  0.00  0.00    +0.000 N 
ATOM      5  C   UNL     1       5.187   4.781  16.602  0.00  0.00    +0.000 C 
ATOM      6  C   UNL     1       5.869   3.938  15.813  0.00  0.00    +0.000 C 
ATOM      7  H   UNL     1       5.474   6.625  15.697  0.00  0.00    +0.000 HD
ENDROOT
BRANCH   6   8
ATOM      8  N   UNL     1       6.658   4.379  14.692  0.00  0.00    +0.000 N 
ATOM      9  O   UNL     1       6.467   3.897  13.567  0.00  0.00    +0.000 OA
ATOM     10  O   UNL     1       7.520   5.229  14.956  0.00  0.00    +0.000 OA
ENDBRANCH   6   8
BRANCH   1  11
ATOM     11  C   UNL     1       3.986   3.043  18.059  0.00  0.00    +0.000 C 
BRANCH  11  12
ATOM     12  C   UNL     1       2.632   2.690  17.455  0.00  0.00    +0.000 C 
BRANCH  12  13
ATOM     13  C   UNL     1       1.559   2.596  18.535  0.00  0.00    +0.000 C 
BRANCH  13  14
ATOM     14  O   UNL     1       2.146   2.173  19.777  0.00  0.00    +0.000 OA
BRANCH  14  16
ATOM     15  C   UNL     1       0.980   4.089  20.473  0.00  0.00    +0.000 C 
ATOM     16  C   UNL     1       1.715   2.851  20.873  0.00  0.00    +0.000 C 
ATOM     17  O   UNL     1       1.904   2.512  22.035  0.00  0.00    +0.000 OA
ENDBRANCH  14  16
ENDBRANCH  13  14
ENDBRANCH  12  13
ENDBRANCH  11  12
ENDBRANCH   1  11
TORSDOF 6
ENDMDL
MODEL 3
REMARK VINA RESULT:      -6.1      2.357      3.257
REMARK  Name = 
REMARK  7 active torsions:
REMARK  status: ('A' for Active; 'I' for Inactive)
REMARK    1  A    between atoms: C_1  and  C_2
REMARK    2  A    between atoms: C_2  and  O_4
REMARK    3  A    between atoms: O_4  and  C_5
REMARK    4  A    between atoms: C_5  and  C_6
REMARK    5  A    between atoms: C_6  and  C_7
REMARK    6  A    between atoms: C_7  and  N_8
REMARK    7  A    between atoms: C_13  and  N_14
REMARK                            x       y       z     vdW  Elec       q    Type
REMARK                         _______ _______ _______ _____ _____    ______ ____
ROOT
ATOM      1  N   UNL     1       5.504   4.820  17.933  0.00  0.00    +0.000 N 
ATOM      2  C   UNL     1       6.241   5.279  19.126  0.00  0.00    +0.000 C 
ATOM      3  C   UNL     1       7.618   5.710  18.563  0.00  0.00    +0.000 C 
ATOM      4  N   UNL     1       7.554   5.273  17.181  0.00  0.00    +0.000 N 
ATOM      5  C   UNL     1       6.309   4.843  16.797  0.00  0.00    +0.000 C 
ATOM      6  C   UNL     1       5.896   4.494  15.570  0.00  0.00    +0.000 C 
ATOM      7  H   UNL     1       8.229   5.559  16.473  0.00  0.00    +0.000 HD
ENDROOT
BRANCH   6   8
ATOM      8  N   UNL     1       6.745   4.560  14.410  0.00  0.00    +0.000 N 
ATOM      9  O   UNL     1       7.673   5.380  14.362  0.00  0.00    +0.000 OA
ATOM     10  O   UNL     1       6.456   3.771  13.499  0.00  0.00    +0.000 OA
ENDBRANCH   6   8
BRANCH   1  11
ATOM     11  C   UNL     1       4.070   4.602  18.028  0.00  0.00    +0.000 C 
BRANCH  11  12
ATOM     12  C   UNL     1       3.369   5.841  18.573  0.00  0.00    +0.000 C 
BRANCH  12  13
ATOM     13  C   UNL     1       2.637   5.528  19.874  0.00  0.00    +0.000 C 
BRANCH  13  14
ATOM     14  O   UNL     1       3.043   4.242  20.371  0.00  0.00    +0.000 OA
BRANCH  14  16
ATOM     15  C   UNL     1       0.880   3.340  20.217  0.00  0.00    +0.000 C 
ATOM     16  C   UNL     1       2.089   3.569  21.067  0.00  0.00    +0.000 C 
ATOM     17  O   UNL     1       2.188   3.202  22.231  0.00  0.00    +0.000 OA
ENDBRANCH  14  16
ENDBRANCH  13  14
ENDBRANCH  12  13
ENDBRANCH  11  12
ENDBRANCH   1  11
TORSDOF 6
ENDMDL
MODEL 4
REMARK VINA RESULT:      -6.0      2.357      3.231
REMARK  Name = 
REMARK  7 active torsions:
REMARK  status: ('A' for Active; 'I' for Inactive)
REMARK    1  A    between atoms: C_1  and  C_2
REMARK    2  A    between atoms: C_2  and  O_4
REMARK    3  A    between atoms: O_4  and  C_5
REMARK    4  A    between atoms: C_5  and  C_6
REMARK    5  A    between atoms: C_6  and  C_7
REMARK    6  A    between atoms: C_7  and  N_8
REMARK    7  A    between atoms: C_13  and  N_14
REMARK                            x       y       z     vdW  Elec       q    Type
REMARK                         _______ _______ _______ _____ _____    ______ ____
ROOT
ATOM      1  N   UNL     1       5.477   5.366  17.652  0.00  0.00    +0.000 N 
ATOM      2  C   UNL     1       6.243   5.370  18.913  0.00  0.00    +0.000 C 
ATOM      3  C   UNL     1       7.705   5.134  18.455  0.00  0.00    +0.000 C 
ATOM      4  N   UNL     1       7.558   4.844  17.040  0.00  0.00    +0.000 N 
ATOM      5  C   UNL     1       6.290   5.064  16.562  0.00  0.00    +0.000 C 
ATOM      6  C   UNL     1       5.864   5.007  15.292  0.00  0.00    +0.000 C 
ATOM      7  H   UNL     1       8.343   4.815  16.391  0.00  0.00    +0.000 HD
ENDROOT
BRANCH   6   8
ATOM      8  N   UNL     1       6.738   4.724  14.185  0.00  0.00    +0.000 N 
ATOM      9  O   UNL     1       6.469   3.808  13.395  0.00  0.00    +0.000 OA
ATOM     10  O   UNL     1       7.749   5.437  14.116  0.00  0.00    +0.000 OA
ENDBRANCH   6   8
BRANCH   1  11
ATOM     11  C   UNL     1       4.103   5.839  17.659  0.00  0.00    +0.000 C 
BRANCH  11  12
ATOM     12  C   UNL     1       3.131   4.679  17.841  0.00  0.00    +0.000 C 
BRANCH  12  13
ATOM     13  C   UNL     1       2.411   4.773  19.182  0.00  0.00    +0.000 C 
BRANCH  13  14
ATOM     14  O   UNL     1       3.134   4.038  20.183  0.00  0.00    +0.000 OA
BRANCH  14  16
ATOM     15  C   UNL     1       0.954   3.220  20.492  0.00  0.00    +0.000 C 
ATOM     16  C   UNL     1       2.365   3.253  20.983  0.00  0.00    +0.000 C 
ATOM     17  O   UNL     1       2.759   2.655  21.977  0.00  0.00    +0.000 OA
ENDBRANCH  14  16
ENDBRANCH  13  14
ENDBRANCH  12  13
ENDBRANCH  11  12
ENDBRANCH   1  11
TORSDOF 6
ENDMDL
MODEL 5
REMARK VINA RESULT:      -6.0      2.333      3.287
REMARK  Name = 
REMARK  7 active torsions:
REMARK  status: ('A' for Active; 'I' for Inactive)
REMARK    1  A    between atoms: C_1  and  C_2
REMARK    2  A    between atoms: C_2  and  O_4
REMARK    3  A    between atoms: O_4  and  C_5
REMARK    4  A    between atoms: C_5  and  C_6
REMARK    5  A    between atoms: C_6  and  C_7
REMARK    6  A    between atoms: C_7  and  N_8
REMARK    7  A    between atoms: C_13  and  N_14
REMARK                            x       y       z     vdW  Elec       q    Type
REMARK                         _______ _______ _______ _____ _____    ______ ____
ROOT
ATOM      1  N   UNL     1       5.722   4.720  18.239  0.00  0.00    +0.000 N 
ATOM      2  C   UNL     1       6.472   5.340  19.349  0.00  0.00    +0.000 C 
ATOM      3  C   UNL     1       7.722   5.940  18.658  0.00  0.00    +0.000 C 
ATOM      4  N   UNL     1       7.618   5.431  17.302  0.00  0.00    +0.000 N 
ATOM      5  C   UNL     1       6.425   4.805  17.040  0.00  0.00    +0.000 C 
ATOM      6  C   UNL     1       5.977   4.339  15.865  0.00  0.00    +0.000 C 
ATOM      7  H   UNL     1       8.186   5.777  16.530  0.00  0.00    +0.000 HD
ENDROOT
BRANCH   6   8
ATOM      8  N   UNL     1       6.715   4.472  14.637  0.00  0.00    +0.000 N 
ATOM      9  O   UNL     1       7.588   5.344  14.524  0.00  0.00    +0.000 OA
ATOM     10  O   UNL     1       6.390   3.682  13.738  0.00  0.00    +0.000 OA
ENDBRANCH   6   8
BRANCH   1  11
ATOM     11  C   UNL     1       4.349   4.300  18.461  0.00  0.00    +0.000 C 
BRANCH  11  12
ATOM     12  C   UNL     1       4.302   2.951  19.168  0.00  0.00    +0.000 C 
BRANCH  12  13
ATOM     13  C   UNL     1       3.429   1.962  18.403  0.00  0.00    +0.000 C 
BRANCH  13  14
ATOM     14  O   UNL     1       2.161   1.812  19.062  0.00  0.00    +0.000 OA
BRANCH  14  16
ATOM     15  C   UNL     1       0.796   3.323  20.232  0.00  0.00    +0.000 C 
ATOM     16  C   UNL     1       1.308   2.859  18.907  0.00  0.00    +0.000 C 
ATOM     17  O   UNL     1       0.987   3.358  17.835  0.00  0.00    +0.000 OA
ENDBRANCH  14  16
ENDBRANCH  13  14
ENDBRANCH  12  13
ENDBRANCH  11  12
ENDBRANCH   1  11
TORSDOF 6
ENDMDL
MODEL 6
REMARK VINA RESULT:      -5.9      2.561      3.488
REMARK  Name = 
REMARK  7 active torsions:
REMARK  status: ('A' for Active; 'I' for Inactive)
REMARK    1  A    between atoms: C_1  and  C_2
REMARK    2  A    between atoms: C_2  and  O_4
REMARK    3  A    between atoms: O_4  and  C_5
REMARK    4  A    between atoms: C_5  and  C_6
REMARK    5  A    between atoms: C_6  and  C_7
REMARK    6  A    between atoms: C_7  and  N_8
REMARK    7  A    between atoms: C_13  and  N_14
REMARK                            x       y       z     vdW  Elec       q    Type
REMARK                         _______ _______ _______ _____ _____    ______ ____
ROOT
ATOM      1  N   UNL     1       5.327   5.034  17.734  0.00  0.00    +0.000 N 
ATOM      2  C   UNL     1       6.075   5.256  18.986  0.00  0.00    +0.000 C 
ATOM      3  C   UNL     1       7.549   5.364  18.520  0.00  0.00    +0.000 C 
ATOM      4  N   UNL     1       7.470   5.008  17.115  0.00  0.00    +0.000 N 
ATOM      5  C   UNL     1       6.185   4.905  16.645  0.00  0.00    +0.000 C 
ATOM      6  C   UNL     1       5.780   4.712  15.381  0.00  0.00    +0.000 C 
ATOM      7  H   UNL     1       8.237   5.149  16.459  0.00  0.00    +0.000 HD
ENDROOT
BRANCH   6   8
ATOM      8  N   UNL     1       6.692   4.615  14.272  0.00  0.00    +0.000 N 
ATOM      9  O   UNL     1       6.493   3.789  13.370  0.00  0.00    +0.000 OA
ATOM     10  O   UNL     1       7.662   5.385  14.319  0.00  0.00    +0.000 OA
ENDBRANCH   6   8
BRANCH   1  11
ATOM     11  C   UNL     1       3.880   5.164  17.743  0.00  0.00    +0.000 C 
BRANCH  11  12
ATOM     12  C   UNL     1       3.400   5.796  19.044  0.00  0.00    +0.000 C 
BRANCH  12  13
ATOM     13  C   UNL     1       2.353   4.921  19.724  0.00  0.00    +0.000 C 
BRANCH  13  14
ATOM     14  O   UNL     1       1.635   4.157  18.740  0.00  0.00    +0.000 OA
BRANCH  14  16
ATOM     15  C   UNL     1       1.198   2.937  20.698  0.00  0.00    +0.000 C 
ATOM     16  C   UNL     1       0.991   3.062  19.223  0.00  0.00    +0.000 C 
ATOM     17  O   UNL     1       0.335   2.274  18.554  0.00  0.00    +0.000 OA
ENDBRANCH  14  16
ENDBRANCH  13  14
ENDBRANCH  12  13
ENDBRANCH  11  12
ENDBRANCH   1  11
TORSDOF 6
ENDMDL
MODEL 7
REMARK VINA RESULT:      -5.9      0.913      1.291
REMARK  Name = 
REMARK  7 active torsions:
REMARK  status: ('A' for Active; 'I' for Inactive)
REMARK    1  A    between atoms: C_1  and  C_2
REMARK    2  A    between atoms: C_2  and  O_4
REMARK    3  A    between atoms: O_4  and  C_5
REMARK    4  A    between atoms: C_5  and  C_6
REMARK    5  A    between atoms: C_6  and  C_7
REMARK    6  A    between atoms: C_7  and  N_8
REMARK    7  A    between atoms: C_13  and  N_14
REMARK                            x       y       z     vdW  Elec       q    Type
REMARK                         _______ _______ _______ _____ _____    ______ ____
ROOT
ATOM      1  N   UNL     1       4.995   4.660  17.126  0.00  0.00    +0.000 N 
ATOM      2  C   UNL     1       5.163   4.227  15.725  0.00  0.00    +0.000 C 
ATOM      3  C   UNL     1       6.696   4.272  15.508  0.00  0.00    +0.000 C 
ATOM      4  N   UNL     1       7.178   4.893  16.728  0.00  0.00    +0.000 N 
ATOM      5  C   UNL     1       6.211   5.034  17.692  0.00  0.00    +0.000 C 
ATOM      6  C   UNL     1       6.360   5.455  18.957  0.00  0.00    +0.000 C 
ATOM      7  H   UNL     1       8.161   4.914  16.994  0.00  0.00    +0.000 HD
ENDROOT
BRANCH   6   8
ATOM      8  N   UNL     1       7.637   5.803  19.522  0.00  0.00    +0.000 N 
ATOM      9  O   UNL     1       8.025   5.262  20.567  0.00  0.00    +0.000 OA
ATOM     10  O   UNL     1       8.268   6.672  18.903  0.00  0.00    +0.000 OA
ENDBRANCH   6   8
BRANCH   1  11
ATOM     11  C   UNL     1       3.709   4.473  17.774  0.00  0.00    +0.000 C 
BRANCH  11  12
ATOM     12  C   UNL     1       3.175   3.068  17.523  0.00  0.00    +0.000 C 
BRANCH  12  13
ATOM     13  C   UNL     1       3.200   2.235  18.800  0.00  0.00    +0.000 C 
BRANCH  13  14
ATOM     14  O   UNL     1       1.863   2.055  19.298  0.00  0.00    +0.000 OA
BRANCH  14  16
ATOM     15  C   UNL     1       2.197   2.708  21.529  0.00  0.00    +0.000 C 
ATOM     16  C   UNL     1       1.478   2.954  20.242  0.00  0.00    +0.000 C 
ATOM     17  O   UNL     1       0.651   3.843  20.078  0.00  0.00    +0.000 OA
ENDBRANCH  14  16
ENDBRANCH  13  14
ENDBRANCH  12  13
ENDBRANCH  11  12
ENDBRANCH   1  11
TORSDOF 6
ENDMDL
MODEL 8
REMARK VINA RESULT:      -5.9      2.718      3.650
REMARK  Name = 
REMARK  7 active torsions:
REMARK  status: ('A' for Active; 'I' for Inactive)
REMARK    1  A    between atoms: C_1  and  C_2
REMARK    2  A    between atoms: C_2  and  O_4
REMARK    3  A    between atoms: O_4  and  C_5
REMARK    4  A    between atoms: C_5  and  C_6
REMARK    5  A    between atoms: C_6  and  C_7
REMARK    6  A    between atoms: C_7  and  N_8
REMARK    7  A    between atoms: C_13  and  N_14
REMARK                            x       y       z     vdW  Elec       q    Type
REMARK                         _______ _______ _______ _____ _____    ______ ____
ROOT
ATOM      1  N   UNL     1       5.504   5.500  17.531  0.00  0.00    +0.000 N 
ATOM      2  C   UNL     1       6.232   5.408  18.810  0.00  0.00    +0.000 C 
ATOM      3  C   UNL     1       7.674   5.030  18.386  0.00  0.00    +0.000 C 
ATOM      4  N   UNL     1       7.536   4.776  16.963  0.00  0.00    +0.000 N 
ATOM      5  C   UNL     1       6.311   5.131  16.457  0.00  0.00    +0.000 C 
ATOM      6  C   UNL     1       5.915   5.135  15.176  0.00  0.00    +0.000 C 
ATOM      7  H   UNL     1       8.331   4.675  16.334  0.00  0.00    +0.000 HD
ENDROOT
BRANCH   6   8
ATOM      8  N   UNL     1       6.785   4.779  14.086  0.00  0.00    +0.000 N 
ATOM      9  O   UNL     1       6.484   3.848  13.326  0.00  0.00    +0.000 OA
ATOM     10  O   UNL     1       7.825   5.447  14.003  0.00  0.00    +0.000 OA
ENDBRANCH   6   8
BRANCH   1  11
ATOM     11  C   UNL     1       4.186   6.111  17.510  0.00  0.00    +0.000 C 
BRANCH  11  12
ATOM     12  C   UNL     1       3.275   5.472  18.552  0.00  0.00    +0.000 C 
BRANCH  12  13
ATOM     13  C   UNL     1       2.107   4.750  17.889  0.00  0.00    +0.000 C 
BRANCH  13  14
ATOM     14  O   UNL     1       2.573   3.562  17.228  0.00  0.00    +0.000 OA
BRANCH  14  16
ATOM     15  C   UNL     1       1.196   2.343  18.688  0.00  0.00    +0.000 C 
ATOM     16  C   UNL     1       2.506   2.427  17.974  0.00  0.00    +0.000 C 
ATOM     17  O   UNL     1       3.391   1.586  18.064  0.00  0.00    +0.000 OA
ENDBRANCH  14  16
ENDBRANCH  13  14
ENDBRANCH  12  13
ENDBRANCH  11  12
ENDBRANCH   1  11
TORSDOF 6
ENDMDL
MODEL 9
REMARK VINA RESULT:      -5.9      2.471      3.222
REMARK  Name = 
REMARK  7 active torsions:
REMARK  status: ('A' for Active; 'I' for Inactive)
REMARK    1  A    between atoms: C_1  and  C_2
REMARK    2  A    between atoms: C_2  and  O_4
REMARK    3  A    between atoms: O_4  and  C_5
REMARK    4  A    between atoms: C_5  and  C_6
REMARK    5  A    between atoms: C_6  and  C_7
REMARK    6  A    between atoms: C_7  and  N_8
REMARK    7  A    between atoms: C_13  and  N_14
REMARK                            x       y       z     vdW  Elec       q    Type
REMARK                         _______ _______ _______ _____ _____    ______ ____
ROOT
ATOM      1  N   UNL     1       4.394   4.635  17.736  0.00  0.00    +0.000 N 
ATOM      2  C   UNL     1       3.759   5.828  18.328  0.00  0.00    +0.000 C 
ATOM      3  C   UNL     1       4.191   6.979  17.385  0.00  0.00    +0.000 C 
ATOM      4  N   UNL     1       5.149   6.335  16.506  0.00  0.00    +0.000 N 
ATOM      5  C   UNL     1       5.199   4.971  16.651  0.00  0.00    +0.000 C 
ATOM      6  C   UNL     1       5.884   4.086  15.913  0.00  0.00    +0.000 C 
ATOM      7  H   UNL     1       5.498   6.764  15.650  0.00  0.00    +0.000 HD
ENDROOT
BRANCH   6   8
ATOM      8  N   UNL     1       6.682   4.464  14.776  0.00  0.00    +0.000 N 
ATOM      9  O   UNL     1       7.436   5.445  14.842  0.00  0.00    +0.000 OA
ATOM     10  O   UNL     1       6.529   3.761  13.767  0.00  0.00    +0.000 OA
ENDBRANCH   6   8
BRANCH   1  11
ATOM     11  C   UNL     1       3.983   3.317  18.190  0.00  0.00    +0.000 C 
BRANCH  11  12
ATOM     12  C   UNL     1       2.550   3.020  17.764  0.00  0.00    +0.000 C 
BRANCH  12  13
ATOM     13  C   UNL     1       1.856   2.110  18.772  0.00  0.00    +0.000 C 
BRANCH  13  14
ATOM     14  O   UNL     1       0.772   2.811  19.404  0.00  0.00    +0.000 OA
BRANCH  14  16
ATOM     15  C   UNL     1       1.495   2.570  21.625  0.00  0.00    +0.000 C 
ATOM     16  C   UNL     1       1.112   3.504  20.523  0.00  0.00    +0.000 C 
ATOM     17  O   UNL     1       1.104   4.724  20.630  0.00  0.00    +0.000 OA
ENDBRANCH  14  16
ENDBRANCH  13  14
ENDBRANCH  12  13
ENDBRANCH  11  12
ENDBRANCH   1  11
TORSDOF 6
ENDMDL
