MODEL 1
REMARK VINA RESULT:      -7.9      0.000      0.000
REMARK  Name = 
REMARK  9 active torsions:
REMARK  status: ('A' for Active; 'I' for Inactive)
REMARK    1  A    between atoms: C_1  and  C_2
REMARK    2  A    between atoms: C_2  and  N_3
REMARK    3  A    between atoms: N_5  and  C_6
REMARK    4  A    between atoms: C_6  and  C_7
REMARK    5  A    between atoms: N_8  and  N_9
REMARK    6  A    between atoms: C_10  and  C_11
REMARK    7  A    between atoms: C_14  and  C_15
REMARK    8  A    between atoms: C_19  and  C_20
REMARK    9  A    between atoms: N_24  and  C_25
REMARK                            x       y       z     vdW  Elec       q    Type
REMARK                         _______ _______ _______ _____ _____    ______ ____
ROOT
ATOM      1  C   UNL     1       2.350   7.468  18.570  0.00  0.00    +0.000 A 
ATOM      2  C   UNL     1       1.974   8.653  17.929  0.00  0.00    +0.000 A 
ATOM      3  C   UNL     1       1.335   9.672  18.646  0.00  0.00    +0.000 A 
ATOM      4  C   UNL     1       1.092   9.518  20.017  0.00  0.00    +0.000 A 
ATOM      5  C   UNL     1       1.482   8.335  20.654  0.00  0.00    +0.000 A 
ATOM      6  C   UNL     1       2.105   7.310  19.934  0.00  0.00    +0.000 A 
ENDROOT
BRANCH   4   7
ATOM      7  C   UNL     1       0.382  10.600  20.784  0.00  0.00    +0.000 A 
ATOM      8  C   UNL     1      -0.796  10.444  21.498  0.00  0.00    +0.000 A 
ATOM      9  N   UNL     1      -1.086  11.644  22.110  0.00  0.00    +0.000 N 
ATOM     10  C   UNL     1      -2.142  11.926  22.960  0.00  0.00    +0.000 A 
ATOM     11  C   UNL     1      -2.261  13.189  23.426  0.00  0.00    +0.000 A 
ATOM     12  C   UNL     1      -3.360  13.604  24.361  0.00  0.00    +0.000 C 
ATOM     13  C   UNL     1      -1.310  14.239  23.047  0.00  0.00    +0.000 A 
ATOM     14  C   UNL     1      -0.275  13.962  22.239  0.00  0.00    +0.000 A 
ATOM     15  C   UNL     1      -0.167  12.556  21.750  0.00  0.00    +0.000 A 
ATOM     16  N   UNL     1       0.730  11.959  20.947  0.00  0.00    +0.000 N 
ATOM     17  C   UNL     1       1.803  12.660  20.252  0.00  0.00    +0.000 C 
ENDBRANCH   4   7
BRANCH   1  19
ATOM     18  N   UNL     1       4.239   6.106  17.954  0.00  0.00    +0.000 NA
ATOM     19  C   UNL     1       2.980   6.359  17.822  0.00  0.00    +0.000 C 
BRANCH  18  23
ATOM     20  N   UNL     1       5.607   4.406  15.193  0.00  0.00    +0.000 NA
ATOM     21  C   UNL     1       5.676   5.216  16.204  0.00  0.00    +0.000 C 
ATOM     22  N   UNL     1       6.609   6.204  16.388  0.00  0.00    +0.000 N 
ATOM     23  N   UNL     1       4.720   5.073  17.191  0.00  0.00    +0.000 N 
ATOM     24  H   UNL     1       7.232   6.395  15.618  0.00  0.00    +0.000 HD
ATOM     25  H   UNL     1       4.081   4.320  16.941  0.00  0.00    +0.000 HD
BRANCH  20  27
ATOM     26  C   UNL     1       6.207   3.647  12.965  0.00  0.00    +0.000 C 
ATOM     27  C   UNL     1       6.613   4.522  14.142  0.00  0.00    +0.000 C 
ENDBRANCH  20  27
BRANCH  22  28
ATOM     28  C   UNL     1       6.999   6.740  17.675  0.00  0.00    +0.000 C 
ATOM     29  C   UNL     1       7.782   8.030  17.511  0.00  0.00    +0.000 C 
ENDBRANCH  22  28
ENDBRANCH  18  23
ENDBRANCH   1  19
TORSDOF 5
ENDMDL
MODEL 2
REMARK VINA RESULT:      -7.9      0.821      1.924
REMARK  Name = 
REMARK  9 active torsions:
REMARK  status: ('A' for Active; 'I' for Inactive)
REMARK    1  A    between atoms: C_1  and  C_2
REMARK    2  A    between atoms: C_2  and  N_3
REMARK    3  A    between atoms: N_5  and  C_6
REMARK    4  A    between atoms: C_6  and  C_7
REMARK    5  A    between atoms: N_8  and  N_9
REMARK    6  A    between atoms: C_10  and  C_11
REMARK    7  A    between atoms: C_14  and  C_15
REMARK    8  A    between atoms: C_19  and  C_20
REMARK    9  A    between atoms: N_24  and  C_25
REMARK                            x       y       z     vdW  Elec       q    Type
REMARK                         _______ _______ _______ _____ _____    ______ ____
ROOT
ATOM      1  C   UNL     1       2.587   7.029  18.399  0.00  0.00    +0.000 A 
ATOM      2  C   UNL     1       2.362   6.886  19.773  0.00  0.00    +0.000 A 
ATOM      3  C   UNL     1       1.759   7.919  20.502  0.00  0.00    +0.000 A 
ATOM      4  C   UNL     1       1.356   9.092  19.851  0.00  0.00    +0.000 A 
ATOM      5  C   UNL     1       1.574   9.224  18.475  0.00  0.00    +0.000 A 
ATOM      6  C   UNL     1       2.191   8.198  17.751  0.00  0.00    +0.000 A 
ENDROOT
BRANCH   4   7
ATOM      7  C   UNL     1       0.734  10.215  20.636  0.00  0.00    +0.000 A 
ATOM      8  C   UNL     1       0.965  11.566  20.436  0.00  0.00    +0.000 A 
ATOM      9  N   UNL     1       0.162  12.270  21.307  0.00  0.00    +0.000 N 
ATOM     10  C   UNL     1       0.035  13.645  21.416  0.00  0.00    +0.000 A 
ATOM     11  C   UNL     1      -0.791  14.132  22.368  0.00  0.00    +0.000 A 
ATOM     12  C   UNL     1      -1.013  15.604  22.569  0.00  0.00    +0.000 C 
ATOM     13  C   UNL     1      -1.531  13.242  23.270  0.00  0.00    +0.000 A 
ATOM     14  C   UNL     1      -1.423  11.910  23.152  0.00  0.00    +0.000 A 
ATOM     15  C   UNL     1      -0.511  11.405  22.083  0.00  0.00    +0.000 A 
ATOM     16  N   UNL     1      -0.186  10.156  21.707  0.00  0.00    +0.000 N 
ATOM     17  C   UNL     1      -0.617   8.951  22.404  0.00  0.00    +0.000 C 
ENDBRANCH   4   7
BRANCH   1  19
ATOM     18  N   UNL     1       4.472   5.610  17.913  0.00  0.00    +0.000 NA
ATOM     19  C   UNL     1       3.267   5.972  17.621  0.00  0.00    +0.000 C 
BRANCH  18  23
ATOM     20  N   UNL     1       5.870   4.099  15.059  0.00  0.00    +0.000 NA
ATOM     21  C   UNL     1       5.908   4.891  16.085  0.00  0.00    +0.000 C 
ATOM     22  N   UNL     1       6.753   5.958  16.255  0.00  0.00    +0.000 N 
ATOM     23  N   UNL     1       5.012   4.642  17.107  0.00  0.00    +0.000 N 
ATOM     24  H   UNL     1       7.322   6.221  15.464  0.00  0.00    +0.000 HD
ATOM     25  H   UNL     1       4.434   3.838  16.865  0.00  0.00    +0.000 HD
BRANCH  20  27
ATOM     26  C   UNL     1       6.317   3.619  12.720  0.00  0.00    +0.000 C 
ATOM     27  C   UNL     1       6.815   4.328  13.971  0.00  0.00    +0.000 C 
ENDBRANCH  20  27
BRANCH  22  28
ATOM     28  C   UNL     1       7.147   6.502  17.537  0.00  0.00    +0.000 C 
ATOM     29  C   UNL     1       7.597   7.945  17.399  0.00  0.00    +0.000 C 
ENDBRANCH  22  28
ENDBRANCH  18  23
ENDBRANCH   1  19
TORSDOF 5
ENDMDL
MODEL 3
REMARK VINA RESULT:      -7.7      1.167      1.375
REMARK  Name = 
REMARK  9 active torsions:
REMARK  status: ('A' for Active; 'I' for Inactive)
REMARK    1  A    between atoms: C_1  and  C_2
REMARK    2  A    between atoms: C_2  and  N_3
REMARK    3  A    between atoms: N_5  and  C_6
REMARK    4  A    between atoms: C_6  and  C_7
REMARK    5  A    between atoms: N_8  and  N_9
REMARK    6  A    between atoms: C_10  and  C_11
REMARK    7  A    between atoms: C_14  and  C_15
REMARK    8  A    between atoms: C_19  and  C_20
REMARK    9  A    between atoms: N_24  and  C_25
REMARK                            x       y       z     vdW  Elec       q    Type
REMARK                         _______ _______ _______ _____ _____    ______ ____
ROOT
ATOM      1  C   UNL     1       2.589   7.323  18.465  0.00  0.00    +0.000 A 
ATOM      2  C   UNL     1       2.211   8.462  17.745  0.00  0.00    +0.000 A 
ATOM      3  C   UNL     1       1.408   9.441  18.343  0.00  0.00    +0.000 A 
ATOM      4  C   UNL     1       0.998   9.294  19.675  0.00  0.00    +0.000 A 
ATOM      5  C   UNL     1       1.389   8.158  20.392  0.00  0.00    +0.000 A 
ATOM      6  C   UNL     1       2.178   7.172  19.789  0.00  0.00    +0.000 A 
ENDROOT
BRANCH   4   7
ATOM      7  C   UNL     1       0.112  10.331  20.311  0.00  0.00    +0.000 A 
ATOM      8  C   UNL     1       0.244  10.827  21.598  0.00  0.00    +0.000 A 
ATOM      9  N   UNL     1      -0.714  11.801  21.779  0.00  0.00    +0.000 N 
ATOM     10  C   UNL     1      -0.912  12.593  22.898  0.00  0.00    +0.000 A 
ATOM     11  C   UNL     1      -1.939  13.472  22.879  0.00  0.00    +0.000 A 
ATOM     12  C   UNL     1      -2.240  14.387  24.031  0.00  0.00    +0.000 C 
ATOM     13  C   UNL     1      -2.827  13.588  21.718  0.00  0.00    +0.000 A 
ATOM     14  C   UNL     1      -2.623  12.835  20.626  0.00  0.00    +0.000 A 
ATOM     15  C   UNL     1      -1.474  11.883  20.675  0.00  0.00    +0.000 A 
ATOM     16  N   UNL     1      -1.006  11.006  19.771  0.00  0.00    +0.000 N 
ATOM     17  C   UNL     1      -1.653  10.715  18.498  0.00  0.00    +0.000 C 
ENDBRANCH   4   7
BRANCH   1  19
ATOM     18  N   UNL     1       4.500   5.859  18.377  0.00  0.00    +0.000 NA
ATOM     19  C   UNL     1       3.394   6.253  17.838  0.00  0.00    +0.000 C 
BRANCH  18  23
ATOM     20  N   UNL     1       6.103   4.203  15.718  0.00  0.00    +0.000 NA
ATOM     21  C   UNL     1       6.024   5.122  16.629  0.00  0.00    +0.000 C 
ATOM     22  N   UNL     1       6.702   6.315  16.639  0.00  0.00    +0.000 N 
ATOM     23  N   UNL     1       5.177   4.882  17.694  0.00  0.00    +0.000 N 
ATOM     24  H   UNL     1       7.224   6.550  15.809  0.00  0.00    +0.000 HD
ATOM     25  H   UNL     1       4.725   3.977  17.573  0.00  0.00    +0.000 HD
BRANCH  20  27
ATOM     26  C   UNL     1       6.351   3.886  13.322  0.00  0.00    +0.000 C 
ATOM     27  C   UNL     1       7.002   4.421  14.589  0.00  0.00    +0.000 C 
ENDBRANCH  20  27
BRANCH  22  28
ATOM     28  C   UNL     1       7.013   7.077  17.830  0.00  0.00    +0.000 C 
ATOM     29  C   UNL     1       7.865   8.287  17.492  0.00  0.00    +0.000 C 
ENDBRANCH  22  28
ENDBRANCH  18  23
ENDBRANCH   1  19
TORSDOF 5
ENDMDL
MODEL 4
REMARK VINA RESULT:      -7.7      1.149      1.600
REMARK  Name = 
REMARK  9 active torsions:
REMARK  status: ('A' for Active; 'I' for Inactive)
REMARK    1  A    between atoms: C_1  and  C_2
REMARK    2  A    between atoms: C_2  and  N_3
REMARK    3  A    between atoms: N_5  and  C_6
REMARK    4  A    between atoms: C_6  and  C_7
REMARK    5  A    between atoms: N_8  and  N_9
REMARK    6  A    between atoms: C_10  and  C_11
REMARK    7  A    between atoms: C_14  and  C_15
REMARK    8  A    between atoms: C_19  and  C_20
REMARK    9  A    between atoms: N_24  and  C_25
REMARK                            x       y       z     vdW  Elec       q    Type
REMARK                         _______ _______ _______ _____ _____    ______ ____
ROOT
ATOM      1  C   UNL     1       2.507   7.345  18.576  0.00  0.00    +0.000 A 
ATOM      2  C   UNL     1       2.049   8.453  17.853  0.00  0.00    +0.000 A 
ATOM      3  C   UNL     1       1.240   9.414  18.471  0.00  0.00    +0.000 A 
ATOM      4  C   UNL     1       0.906   9.282  19.826  0.00  0.00    +0.000 A 
ATOM      5  C   UNL     1       1.377   8.179  20.545  0.00  0.00    +0.000 A 
ATOM      6  C   UNL     1       2.172   7.210  19.923  0.00  0.00    +0.000 A 
ENDROOT
BRANCH   4   7
ATOM      7  C   UNL     1       0.014  10.299  20.485  0.00  0.00    +0.000 A 
ATOM      8  C   UNL     1      -0.586  11.377  19.854  0.00  0.00    +0.000 A 
ATOM      9  N   UNL     1      -1.372  12.029  20.780  0.00  0.00    +0.000 N 
ATOM     10  C   UNL     1      -2.188  13.129  20.571  0.00  0.00    +0.000 A 
ATOM     11  C   UNL     1      -2.853  13.636  21.632  0.00  0.00    +0.000 A 
ATOM     12  C   UNL     1      -3.772  14.818  21.520  0.00  0.00    +0.000 C 
ATOM     13  C   UNL     1      -2.720  13.052  22.971  0.00  0.00    +0.000 A 
ATOM     14  C   UNL     1      -1.945  11.974  23.170  0.00  0.00    +0.000 A 
ATOM     15  C   UNL     1      -1.233  11.432  21.975  0.00  0.00    +0.000 A 
ATOM     16  N   UNL     1      -0.399  10.388  21.833  0.00  0.00    +0.000 N 
ATOM     17  C   UNL     1       0.096   9.577  22.938  0.00  0.00    +0.000 C 
ENDBRANCH   4   7
BRANCH   1  19
ATOM     18  N   UNL     1       4.494   5.997  18.381  0.00  0.00    +0.000 NA
ATOM     19  C   UNL     1       3.320   6.292  17.930  0.00  0.00    +0.000 C 
BRANCH  18  23
ATOM     20  N   UNL     1       5.944   4.288  15.668  0.00  0.00    +0.000 NA
ATOM     21  C   UNL     1       5.890   5.254  16.531  0.00  0.00    +0.000 C 
ATOM     22  N   UNL     1       6.480   6.486  16.407  0.00  0.00    +0.000 N 
ATOM     23  N   UNL     1       5.168   5.026  17.687  0.00  0.00    +0.000 N 
ATOM     24  H   UNL     1       6.902   6.704  15.517  0.00  0.00    +0.000 HD
ATOM     25  H   UNL     1       4.771   4.088  17.662  0.00  0.00    +0.000 HD
BRANCH  20  27
ATOM     26  C   UNL     1       6.032   3.757  13.299  0.00  0.00    +0.000 C 
ATOM     27  C   UNL     1       6.711   4.494  14.443  0.00  0.00    +0.000 C 
ENDBRANCH  20  27
BRANCH  22  28
ATOM     28  C   UNL     1       6.851   7.338  17.517  0.00  0.00    +0.000 C 
ATOM     29  C   UNL     1       7.970   6.712  18.330  0.00  0.00    +0.000 C 
ENDBRANCH  22  28
ENDBRANCH  18  23
ENDBRANCH   1  19
TORSDOF 5
ENDMDL
MODEL 5
REMARK VINA RESULT:      -7.7      2.598      5.638
REMARK  Name = 
REMARK  9 active torsions:
REMARK  status: ('A' for Active; 'I' for Inactive)
REMARK    1  A    between atoms: C_1  and  C_2
REMARK    2  A    between atoms: C_2  and  N_3
REMARK    3  A    between atoms: N_5  and  C_6
REMARK    4  A    between atoms: C_6  and  C_7
REMARK    5  A    between atoms: N_8  and  N_9
REMARK    6  A    between atoms: C_10  and  C_11
REMARK    7  A    between atoms: C_14  and  C_15
REMARK    8  A    between atoms: C_19  and  C_20
REMARK    9  A    between atoms: N_24  and  C_25
REMARK                            x       y       z     vdW  Elec       q    Type
REMARK                         _______ _______ _______ _____ _____    ______ ____
ROOT
ATOM      1  C   UNL     1       5.153   4.714  15.698  0.00  0.00    +0.000 A 
ATOM      2  C   UNL     1       5.319   6.102  15.768  0.00  0.00    +0.000 A 
ATOM      3  C   UNL     1       4.570   6.857  16.678  0.00  0.00    +0.000 A 
ATOM      4  C   UNL     1       3.668   6.222  17.542  0.00  0.00    +0.000 A 
ATOM      5  C   UNL     1       3.516   4.832  17.474  0.00  0.00    +0.000 A 
ATOM      6  C   UNL     1       4.253   4.080  16.553  0.00  0.00    +0.000 A 
ENDROOT
BRANCH   4   7
ATOM      7  C   UNL     1       2.842   7.034  18.502  0.00  0.00    +0.000 A 
ATOM      8  C   UNL     1       2.407   8.333  18.294  0.00  0.00    +0.000 A 
ATOM      9  N   UNL     1       1.628   8.699  19.370  0.00  0.00    +0.000 N 
ATOM     10  C   UNL     1       0.950   9.892  19.557  0.00  0.00    +0.000 A 
ATOM     11  C   UNL     1       0.265  10.060  20.709  0.00  0.00    +0.000 A 
ATOM     12  C   UNL     1      -0.513  11.308  21.012  0.00  0.00    +0.000 C 
ATOM     13  C   UNL     1       0.238   9.019  21.743  0.00  0.00    +0.000 A 
ATOM     14  C   UNL     1       0.878   7.855  21.555  0.00  0.00    +0.000 A 
ATOM     15  C   UNL     1       1.615   7.698  20.266  0.00  0.00    +0.000 A 
ATOM     16  N   UNL     1       2.342   6.680  19.775  0.00  0.00    +0.000 N 
ATOM     17  C   UNL     1       2.667   5.469  20.519  0.00  0.00    +0.000 C 
ENDBRANCH   4   7
BRANCH   1  19
ATOM     18  N   UNL     1       5.734   4.096  13.443  0.00  0.00    +0.000 NA
ATOM     19  C   UNL     1       5.896   3.903  14.709  0.00  0.00    +0.000 C 
BRANCH  18  23
ATOM     20  N   UNL     1       6.597   1.238  11.581  0.00  0.00    +0.000 NA
ATOM     21  C   UNL     1       5.892   2.303  11.806  0.00  0.00    +0.000 C 
ATOM     22  N   UNL     1       4.639   2.564  11.315  0.00  0.00    +0.000 N 
ATOM     23  N   UNL     1       6.453   3.268  12.620  0.00  0.00    +0.000 N 
ATOM     24  H   UNL     1       4.174   1.815  10.824  0.00  0.00    +0.000 HD
ATOM     25  H   UNL     1       7.373   2.960  12.930  0.00  0.00    +0.000 HD
BRANCH  20  27
ATOM     26  C   UNL     1       6.006  -1.115  11.464  0.00  0.00    +0.000 C 
ATOM     27  C   UNL     1       6.037   0.207  10.712  0.00  0.00    +0.000 C 
ENDBRANCH  20  27
BRANCH  22  28
ATOM     28  C   UNL     1       4.084   3.889  11.134  0.00  0.00    +0.000 C 
ATOM     29  C   UNL     1       3.128   3.921   9.956  0.00  0.00    +0.000 C 
ENDBRANCH  22  28
ENDBRANCH  18  23
ENDBRANCH   1  19
TORSDOF 5
ENDMDL
MODEL 6
REMARK VINA RESULT:      -7.5      1.237      1.842
REMARK  Name = 
REMARK  9 active torsions:
REMARK  status: ('A' for Active; 'I' for Inactive)
REMARK    1  A    between atoms: C_1  and  C_2
REMARK    2  A    between atoms: C_2  and  N_3
REMARK    3  A    between atoms: N_5  and  C_6
REMARK    4  A    between atoms: C_6  and  C_7
REMARK    5  A    between atoms: N_8  and  N_9
REMARK    6  A    between atoms: C_10  and  C_11
REMARK    7  A    between atoms: C_14  and  C_15
REMARK    8  A    between atoms: C_19  and  C_20
REMARK    9  A    between atoms: N_24  and  C_25
REMARK                            x       y       z     vdW  Elec       q    Type
REMARK                         _______ _______ _______ _____ _____    ______ ____
ROOT
ATOM      1  C   UNL     1       2.432   7.453  18.527  0.00  0.00    +0.000 A 
ATOM      2  C   UNL     1       2.035   7.440  19.869  0.00  0.00    +0.000 A 
ATOM      3  C   UNL     1       1.283   8.498  20.393  0.00  0.00    +0.000 A 
ATOM      4  C   UNL     1       0.905   9.565  19.568  0.00  0.00    +0.000 A 
ATOM      5  C   UNL     1       1.295   9.566  18.225  0.00  0.00    +0.000 A 
ATOM      6  C   UNL     1       2.060   8.516  17.705  0.00  0.00    +0.000 A 
ENDROOT
BRANCH   4   7
ATOM      7  C   UNL     1       0.121  10.717  20.136  0.00  0.00    +0.000 A 
ATOM      8  C   UNL     1       0.466  11.455  21.257  0.00  0.00    +0.000 A 
ATOM      9  N   UNL     1      -0.467  12.457  21.411  0.00  0.00    +0.000 N 
ATOM     10  C   UNL     1      -0.483  13.456  22.371  0.00  0.00    +0.000 A 
ATOM     11  C   UNL     1      -1.517  14.326  22.364  0.00  0.00    +0.000 A 
ATOM     12  C   UNL     1      -1.631  15.453  23.349  0.00  0.00    +0.000 C 
ATOM     13  C   UNL     1      -2.598  14.223  21.379  0.00  0.00    +0.000 A 
ATOM     14  C   UNL     1      -2.574  13.267  20.437  0.00  0.00    +0.000 A 
ATOM     15  C   UNL     1      -1.412  12.330  20.466  0.00  0.00    +0.000 A 
ATOM     16  N   UNL     1      -1.090  11.286  19.682  0.00  0.00    +0.000 N 
ATOM     17  C   UNL     1      -1.945  10.758  18.627  0.00  0.00    +0.000 C 
ENDBRANCH   4   7
BRANCH   1  19
ATOM     18  N   UNL     1       4.501   6.236  18.326  0.00  0.00    +0.000 NA
ATOM     19  C   UNL     1       3.269   6.371  17.965  0.00  0.00    +0.000 C 
BRANCH  18  23
ATOM     20  N   UNL     1       6.033   4.349  15.781  0.00  0.00    +0.000 NA
ATOM     21  C   UNL     1       5.959   5.366  16.582  0.00  0.00    +0.000 C 
ATOM     22  N   UNL     1       6.572   6.580  16.409  0.00  0.00    +0.000 N 
ATOM     23  N   UNL     1       5.188   5.216  17.720  0.00  0.00    +0.000 N 
ATOM     24  H   UNL     1       7.032   6.739  15.526  0.00  0.00    +0.000 HD
ATOM     25  H   UNL     1       4.779   4.283  17.733  0.00  0.00    +0.000 HD
BRANCH  20  27
ATOM     26  C   UNL     1       6.143   3.787  13.420  0.00  0.00    +0.000 C 
ATOM     27  C   UNL     1       6.852   4.471  14.579  0.00  0.00    +0.000 C 
ENDBRANCH  20  27
BRANCH  22  28
ATOM     28  C   UNL     1       6.910   7.493  17.481  0.00  0.00    +0.000 C 
ATOM     29  C   UNL     1       8.017   6.922  18.350  0.00  0.00    +0.000 C 
ENDBRANCH  22  28
ENDBRANCH  18  23
ENDBRANCH   1  19
TORSDOF 5
ENDMDL
MODEL 7
REMARK VINA RESULT:      -7.5      1.607     10.534
REMARK  Name = 
REMARK  9 active torsions:
REMARK  status: ('A' for Active; 'I' for Inactive)
REMARK    1  A    between atoms: C_1  and  C_2
REMARK    2  A    between atoms: C_2  and  N_3
REMARK    3  A    between atoms: N_5  and  C_6
REMARK    4  A    between atoms: C_6  and  C_7
REMARK    5  A    between atoms: N_8  and  N_9
REMARK    6  A    between atoms: C_10  and  C_11
REMARK    7  A    between atoms: C_14  and  C_15
REMARK    8  A    between atoms: C_19  and  C_20
REMARK    9  A    between atoms: N_24  and  C_25
REMARK                            x       y       z     vdW  Elec       q    Type
REMARK                         _______ _______ _______ _____ _____    ______ ____
ROOT
ATOM      1  C   UNL     1       0.430   9.663  20.666  0.00  0.00    +0.000 A 
ATOM      2  C   UNL     1       1.037   8.550  21.259  0.00  0.00    +0.000 A 
ATOM      3  C   UNL     1       1.836   7.691  20.496  0.00  0.00    +0.000 A 
ATOM      4  C   UNL     1       2.052   7.956  19.137  0.00  0.00    +0.000 A 
ATOM      5  C   UNL     1       1.451   9.077  18.553  0.00  0.00    +0.000 A 
ATOM      6  C   UNL     1       0.639   9.926  19.313  0.00  0.00    +0.000 A 
ENDROOT
BRANCH   4   7
ATOM      7  C   UNL     1       2.887   7.019  18.308  0.00  0.00    +0.000 A 
ATOM      8  C   UNL     1       3.859   7.396  17.395  0.00  0.00    +0.000 A 
ATOM      9  N   UNL     1       4.441   6.252  16.894  0.00  0.00    +0.000 N 
ATOM     10  C   UNL     1       5.488   6.161  15.992  0.00  0.00    +0.000 A 
ATOM     11  C   UNL     1       5.886   4.929  15.605  0.00  0.00    +0.000 A 
ATOM     12  C   UNL     1       7.017   4.712  14.641  0.00  0.00    +0.000 C 
ATOM     13  C   UNL     1       5.233   3.718  16.111  0.00  0.00    +0.000 A 
ATOM     14  C   UNL     1       4.231   3.804  17.000  0.00  0.00    +0.000 A 
ATOM     15  C   UNL     1       3.823   5.179  17.416  0.00  0.00    +0.000 A 
ATOM     16  N   UNL     1       2.878   5.607  18.269  0.00  0.00    +0.000 N 
ATOM     17  C   UNL     1       1.913   4.736  18.930  0.00  0.00    +0.000 C 
ENDBRANCH   4   7
BRANCH   1  19
ATOM     18  N   UNL     1       0.003  11.628  21.992  0.00  0.00    +0.000 NA
ATOM     19  C   UNL     1      -0.459  10.555  21.441  0.00  0.00    +0.000 C 
BRANCH  18  23
ATOM     20  N   UNL     1      -1.277  14.146  24.091  0.00  0.00    +0.000 NA
ATOM     21  C   UNL     1      -0.774  13.713  22.977  0.00  0.00    +0.000 C 
ATOM     22  N   UNL     1      -0.122  14.467  22.035  0.00  0.00    +0.000 N 
ATOM     23  N   UNL     1      -0.905  12.364  22.709  0.00  0.00    +0.000 N 
ATOM     24  H   UNL     1       0.086  15.424  22.279  0.00  0.00    +0.000 HD
ATOM     25  H   UNL     1      -1.394  11.909  23.479  0.00  0.00    +0.000 HD
BRANCH  20  27
ATOM     26  C   UNL     1      -1.402  15.782  25.882  0.00  0.00    +0.000 C 
ATOM     27  C   UNL     1      -1.168  15.569  24.394  0.00  0.00    +0.000 C 
ENDBRANCH  20  27
BRANCH  22  28
ATOM     28  C   UNL     1      -0.022  14.127  20.631  0.00  0.00    +0.000 C 
ATOM     29  C   UNL     1       1.377  14.395  20.107  0.00  0.00    +0.000 C 
ENDBRANCH  22  28
ENDBRANCH  18  23
ENDBRANCH   1  19
TORSDOF 5
ENDMDL
MODEL 8
REMARK VINA RESULT:      -7.4      1.369      1.390
REMARK  Name = 
REMARK  9 active torsions:
REMARK  status: ('A' for Active; 'I' for Inactive)
REMARK    1  A    between atoms: C_1  and  C_2
REMARK    2  A    between atoms: C_2  and  N_3
REMARK    3  A    between atoms: N_5  and  C_6
REMARK    4  A    between atoms: C_6  and  C_7
REMARK    5  A    between atoms: N_8  and  N_9
REMARK    6  A    between atoms: C_10  and  C_11
REMARK    7  A    between atoms: C_14  and  C_15
REMARK    8  A    between atoms: C_19  and  C_20
REMARK    9  A    between atoms: N_24  and  C_25
REMARK                            x       y       z     vdW  Elec       q    Type
REMARK                         _______ _______ _______ _____ _____    ______ ____
ROOT
ATOM      1  C   UNL     1       2.205   7.864  18.770  0.00  0.00    +0.000 A 
ATOM      2  C   UNL     1       2.023   8.925  17.875  0.00  0.00    +0.000 A 
ATOM      3  C   UNL     1       1.324  10.071  18.272  0.00  0.00    +0.000 A 
ATOM      4  C   UNL     1       0.823  10.170  19.577  0.00  0.00    +0.000 A 
ATOM      5  C   UNL     1       1.018   9.110  20.469  0.00  0.00    +0.000 A 
ATOM      6  C   UNL     1       1.703   7.958  20.067  0.00  0.00    +0.000 A 
ENDROOT
BRANCH   4   7
ATOM      7  C   UNL     1       0.048  11.389  19.997  0.00  0.00    +0.000 A 
ATOM      8  C   UNL     1      -1.331  11.521  19.961  0.00  0.00    +0.000 A 
ATOM      9  N   UNL     1      -1.655  12.753  20.487  0.00  0.00    +0.000 N 
ATOM     10  C   UNL     1      -2.920  13.280  20.687  0.00  0.00    +0.000 A 
ATOM     11  C   UNL     1      -3.014  14.531  21.189  0.00  0.00    +0.000 A 
ATOM     12  C   UNL     1      -4.333  15.198  21.457  0.00  0.00    +0.000 C 
ATOM     13  C   UNL     1      -1.820  15.320  21.510  0.00  0.00    +0.000 A 
ATOM     14  C   UNL     1      -0.594  14.803  21.335  0.00  0.00    +0.000 A 
ATOM     15  C   UNL     1      -0.526  13.414  20.789  0.00  0.00    +0.000 A 
ATOM     16  N   UNL     1       0.520  12.621  20.502  0.00  0.00    +0.000 N 
ATOM     17  C   UNL     1       1.913  13.042  20.573  0.00  0.00    +0.000 C 
ENDBRANCH   4   7
BRANCH   1  19
ATOM     18  N   UNL     1       3.845   6.658  17.482  0.00  0.00    +0.000 NA
ATOM     19  C   UNL     1       2.896   6.624  18.357  0.00  0.00    +0.000 C 
BRANCH  18  23
ATOM     20  N   UNL     1       5.471   4.181  15.585  0.00  0.00    +0.000 NA
ATOM     21  C   UNL     1       5.444   5.281  16.270  0.00  0.00    +0.000 C 
ATOM     22  N   UNL     1       6.358   6.301  16.202  0.00  0.00    +0.000 N 
ATOM     23  N   UNL     1       4.395   5.446  17.154  0.00  0.00    +0.000 N 
ATOM     24  H   UNL     1       7.054   6.244  15.474  0.00  0.00    +0.000 HD
ATOM     25  H   UNL     1       3.781   4.634  17.110  0.00  0.00    +0.000 HD
BRANCH  20  27
ATOM     26  C   UNL     1       6.016   3.756  13.256  0.00  0.00    +0.000 C 
ATOM     27  C   UNL     1       6.576   3.971  14.654  0.00  0.00    +0.000 C 
ENDBRANCH  20  27
BRANCH  22  28
ATOM     28  C   UNL     1       6.621   7.244  17.269  0.00  0.00    +0.000 C 
ATOM     29  C   UNL     1       7.743   6.750  18.164  0.00  0.00    +0.000 C 
ENDBRANCH  22  28
ENDBRANCH  18  23
ENDBRANCH   1  19
TORSDOF 5
ENDMDL
MODEL 9
REMARK VINA RESULT:      -7.3      1.679     10.521
REMARK  Name = 
REMARK  9 active torsions:
REMARK  status: ('A' for Active; 'I' for Inactive)
REMARK    1  A    between atoms: C_1  and  C_2
REMARK    2  A    between atoms: C_2  and  N_3
REMARK    3  A    between atoms: N_5  and  C_6
REMARK    4  A    between atoms: C_6  and  C_7
REMARK    5  A    between atoms: N_8  and  N_9
REMARK    6  A    between atoms: C_10  and  C_11
REMARK    7  A    between atoms: C_14  and  C_15
REMARK    8  A    between atoms: C_19  and  C_20
REMARK    9  A    between atoms: N_24  and  C_25
REMARK                            x       y       z     vdW  Elec       q    Type
REMARK                         _______ _______ _______ _____ _____    ______ ____
ROOT
ATOM      1  C   UNL     1       0.381   9.677  20.716  0.00  0.00    +0.000 A 
ATOM      2  C   UNL     1       0.583   9.932  19.355  0.00  0.00    +0.000 A 
ATOM      3  C   UNL     1       1.372   9.070  18.585  0.00  0.00    +0.000 A 
ATOM      4  C   UNL     1       1.945   7.933  19.170  0.00  0.00    +0.000 A 
ATOM      5  C   UNL     1       1.730   7.679  20.529  0.00  0.00    +0.000 A 
ATOM      6  C   UNL     1       0.954   8.549  21.302  0.00  0.00    +0.000 A 
ENDROOT
BRANCH   4   7
ATOM      7  C   UNL     1       2.817   7.020  18.352  0.00  0.00    +0.000 A 
ATOM      8  C   UNL     1       3.772   7.425  17.433  0.00  0.00    +0.000 A 
ATOM      9  N   UNL     1       4.398   6.298  16.945  0.00  0.00    +0.000 N 
ATOM     10  C   UNL     1       5.447   6.238  16.043  0.00  0.00    +0.000 A 
ATOM     11  C   UNL     1       5.894   5.019  15.669  0.00  0.00    +0.000 A 
ATOM     12  C   UNL     1       7.031   4.836  14.706  0.00  0.00    +0.000 C 
ATOM     13  C   UNL     1       5.289   3.789  16.190  0.00  0.00    +0.000 A 
ATOM     14  C   UNL     1       4.285   3.846  17.079  0.00  0.00    +0.000 A 
ATOM     15  C   UNL     1       3.824   5.208  17.479  0.00  0.00    +0.000 A 
ATOM     16  N   UNL     1       2.863   5.608  18.329  0.00  0.00    +0.000 N 
ATOM     17  C   UNL     1       1.934   4.708  19.001  0.00  0.00    +0.000 C 
ENDBRANCH   4   7
BRANCH   1  19
ATOM     18  N   UNL     1       0.079  11.742  21.921  0.00  0.00    +0.000 NA
ATOM     19  C   UNL     1      -0.407  10.602  21.560  0.00  0.00    +0.000 C 
BRANCH  18  23
ATOM     20  N   UNL     1      -0.969  14.414  23.955  0.00  0.00    +0.000 NA
ATOM     21  C   UNL     1      -0.658  13.881  22.815  0.00  0.00    +0.000 C 
ATOM     22  N   UNL     1      -0.264  14.553  21.686  0.00  0.00    +0.000 N 
ATOM     23  N   UNL     1      -0.729  12.504  22.724  0.00  0.00    +0.000 N 
ATOM     24  H   UNL     1      -0.092  15.543  21.780  0.00  0.00    +0.000 HD
ATOM     25  H   UNL     1      -1.020  12.118  23.620  0.00  0.00    +0.000 HD
BRANCH  20  27
ATOM     26  C   UNL     1      -2.211  16.360  24.712  0.00  0.00    +0.000 C 
ATOM     27  C   UNL     1      -0.919  15.868  24.078  0.00  0.00    +0.000 C 
ENDBRANCH  20  27
BRANCH  22  28
ATOM     28  C   UNL     1      -0.411  14.053  20.336  0.00  0.00    +0.000 C 
ATOM     29  C   UNL     1      -0.432  15.194  19.335  0.00  0.00    +0.000 C 
ENDBRANCH  22  28
ENDBRANCH  18  23
ENDBRANCH   1  19
TORSDOF 5
ENDMDL
