MODEL 1
REMARK VINA RESULT:      -7.6      0.000      0.000
REMARK  Name = 
REMARK  8 active torsions:
REMARK  status: ('A' for Active; 'I' for Inactive)
REMARK    1  A    between atoms: C_1  and  C_2
REMARK    2  A    between atoms: C_2  and  C_3
REMARK    3  A    between atoms: C_2  and  C_4
REMARK    4  A    between atoms: C_4  and  C_5
REMARK    5  A    between atoms: C_5  and  N_6
REMARK    6  A    between atoms: C_7  and  C_9
REMARK    7  A    between atoms: C_9  and  N_10
REMARK    8  A    between atoms: C_13  and  N_14
REMARK                            x       y       z     vdW  Elec       q    Type
REMARK                         _______ _______ _______ _____ _____    ______ ____
ROOT
ATOM      1  N   UNL     1       6.858   5.549  18.420  0.00  0.00    +0.000 N 
ATOM      2  C   UNL     1       5.750   5.685  19.232  0.00  0.00    +0.000 A 
ATOM      3  C   UNL     1       4.640   4.974  19.009  0.00  0.00    +0.000 A 
ATOM      4  C   UNL     1       4.556   4.011  17.921  0.00  0.00    +0.000 A 
ATOM      5  C   UNL     1       5.612   3.926  17.092  0.00  0.00    +0.000 A 
ATOM      6  C   UNL     1       6.858   4.699  17.326  0.00  0.00    +0.000 A 
ATOM      7  O   UNL     1       7.834   4.503  16.605  0.00  0.00    +0.000 OA
ENDROOT
BRANCH   4   8
ATOM      8  N   UNL     1       3.394   3.241  17.794  0.00  0.00    +0.000 N 
ATOM      9  C   UNL     1       2.124   3.768  17.264  0.00  0.00    +0.000 C 
ATOM     10  C   UNL     1       1.035   3.683  18.333  0.00  0.00    +0.000 C 
ATOM     11  C   UNL     1       0.895   2.265  18.880  0.00  0.00    +0.000 C 
ATOM     12  C   UNL     1       2.243   1.728  19.355  0.00  0.00    +0.000 C 
ATOM     13  C   UNL     1       3.296   1.846  18.258  0.00  0.00    +0.000 C 
ENDBRANCH   4   8
BRANCH   1  14
ATOM     14  C   UNL     1       8.075   6.295  18.744  0.00  0.00    +0.000 C 
BRANCH  14  16
ATOM     15  N   UNL     1       8.778   8.661  18.877  0.00  0.00    +0.000 N 
ATOM     16  C   UNL     1       8.076   7.716  18.169  0.00  0.00    +0.000 C 
ATOM     17  O   UNL     1       7.568   7.953  17.071  0.00  0.00    +0.000 OA
ATOM     18  H   UNL     1       9.262   8.373  19.719  0.00  0.00    +0.000 HD
BRANCH  15  19
ATOM     19  C   UNL     1       8.878  10.039  18.452  0.00  0.00    +0.000 C 
BRANCH  19  20
ATOM     20  C   UNL     1       9.595  10.921  19.481  0.00  0.00    +0.000 C 
BRANCH  20  22
ATOM     21  C   UNL     1      11.538  11.658  18.006  0.00  0.00    +0.000 C 
ATOM     22  C   UNL     1      10.368  12.112  18.878  0.00  0.00    +0.000 C 
ATOM     23  C   UNL     1       9.428  12.992  18.048  0.00  0.00    +0.000 C 
ENDBRANCH  20  22
ENDBRANCH  19  20
ENDBRANCH  15  19
ENDBRANCH  14  16
ENDBRANCH   1  14
TORSDOF 6
ENDMDL
MODEL 2
REMARK VINA RESULT:      -7.5      1.359      1.707
REMARK  Name = 
REMARK  8 active torsions:
REMARK  status: ('A' for Active; 'I' for Inactive)
REMARK    1  A    between atoms: C_1  and  C_2
REMARK    2  A    between atoms: C_2  and  C_3
REMARK    3  A    between atoms: C_2  and  C_4
REMARK    4  A    between atoms: C_4  and  C_5
REMARK    5  A    between atoms: C_5  and  N_6
REMARK    6  A    between atoms: C_7  and  C_9
REMARK    7  A    between atoms: C_9  and  N_10
REMARK    8  A    between atoms: C_13  and  N_14
REMARK                            x       y       z     vdW  Elec       q    Type
REMARK                         _______ _______ _______ _____ _____    ______ ____
ROOT
ATOM      1  N   UNL     1       6.188   6.212  17.402  0.00  0.00    +0.000 N 
ATOM      2  C   UNL     1       4.954   6.677  17.808  0.00  0.00    +0.000 A 
ATOM      3  C   UNL     1       4.061   5.858  18.377  0.00  0.00    +0.000 A 
ATOM      4  C   UNL     1       4.357   4.454  18.616  0.00  0.00    +0.000 A 
ATOM      5  C   UNL     1       5.534   3.987  18.161  0.00  0.00    +0.000 A 
ATOM      6  C   UNL     1       6.544   4.879  17.536  0.00  0.00    +0.000 A 
ATOM      7  O   UNL     1       7.647   4.428  17.239  0.00  0.00    +0.000 OA
ENDROOT
BRANCH   4   8
ATOM      8  N   UNL     1       3.410   3.673  19.289  0.00  0.00    +0.000 N 
ATOM      9  C   UNL     1       2.959   2.354  18.813  0.00  0.00    +0.000 C 
ATOM     10  C   UNL     1       1.459   2.389  18.520  0.00  0.00    +0.000 C 
ATOM     11  C   UNL     1       0.662   2.878  19.726  0.00  0.00    +0.000 C 
ATOM     12  C   UNL     1       1.204   4.213  20.232  0.00  0.00    +0.000 C 
ATOM     13  C   UNL     1       2.704   4.129  20.499  0.00  0.00    +0.000 C 
ENDBRANCH   4   8
BRANCH   1  14
ATOM     14  C   UNL     1       7.159   7.158  16.850  0.00  0.00    +0.000 C 
BRANCH  14  16
ATOM     15  N   UNL     1       8.161   9.206  17.804  0.00  0.00    +0.000 N 
ATOM     16  C   UNL     1       8.003   7.846  17.927  0.00  0.00    +0.000 C 
ATOM     17  O   UNL     1       8.413   7.218  18.905  0.00  0.00    +0.000 OA
ATOM     18  H   UNL     1       7.707   9.677  17.031  0.00  0.00    +0.000 HD
BRANCH  15  19
ATOM     19  C   UNL     1       8.921   9.991  18.751  0.00  0.00    +0.000 C 
BRANCH  19  20
ATOM     20  C   UNL     1       9.270  11.383  18.212  0.00  0.00    +0.000 C 
BRANCH  20  22
ATOM     21  C   UNL     1      11.025  12.889  17.140  0.00  0.00    +0.000 C 
ATOM     22  C   UNL     1      10.770  11.603  17.927  0.00  0.00    +0.000 C 
ATOM     23  C   UNL     1      11.561  11.645  19.238  0.00  0.00    +0.000 C 
ENDBRANCH  20  22
ENDBRANCH  19  20
ENDBRANCH  15  19
ENDBRANCH  14  16
ENDBRANCH   1  14
TORSDOF 6
ENDMDL
MODEL 3
REMARK VINA RESULT:      -7.5      4.050      6.871
REMARK  Name = 
REMARK  8 active torsions:
REMARK  status: ('A' for Active; 'I' for Inactive)
REMARK    1  A    between atoms: C_1  and  C_2
REMARK    2  A    between atoms: C_2  and  C_3
REMARK    3  A    between atoms: C_2  and  C_4
REMARK    4  A    between atoms: C_4  and  C_5
REMARK    5  A    between atoms: C_5  and  N_6
REMARK    6  A    between atoms: C_7  and  C_9
REMARK    7  A    between atoms: C_9  and  N_10
REMARK    8  A    between atoms: C_13  and  N_14
REMARK                            x       y       z     vdW  Elec       q    Type
REMARK                         _______ _______ _______ _____ _____    ______ ____
ROOT
ATOM      1  N   UNL     1       6.211   4.813  16.173  0.00  0.00    +0.000 N 
ATOM      2  C   UNL     1       5.499   3.663  16.441  0.00  0.00    +0.000 A 
ATOM      3  C   UNL     1       4.355   3.704  17.134  0.00  0.00    +0.000 A 
ATOM      4  C   UNL     1       3.799   4.960  17.615  0.00  0.00    +0.000 A 
ATOM      5  C   UNL     1       4.528   6.073  17.411  0.00  0.00    +0.000 A 
ATOM      6  C   UNL     1       5.794   6.052  16.635  0.00  0.00    +0.000 A 
ATOM      7  O   UNL     1       6.363   7.110  16.380  0.00  0.00    +0.000 OA
ENDROOT
BRANCH   4   8
ATOM      8  N   UNL     1       2.559   4.941  18.263  0.00  0.00    +0.000 N 
ATOM      9  C   UNL     1       2.228   5.806  19.409  0.00  0.00    +0.000 C 
ATOM     10  C   UNL     1       1.918   4.950  20.637  0.00  0.00    +0.000 C 
ATOM     11  C   UNL     1       0.827   3.923  20.347  0.00  0.00    +0.000 C 
ATOM     12  C   UNL     1       1.175   3.094  19.112  0.00  0.00    +0.000 C 
ATOM     13  C   UNL     1       1.485   3.993  17.919  0.00  0.00    +0.000 C 
ENDBRANCH   4   8
BRANCH   1  14
ATOM     14  C   UNL     1       7.419   4.729  15.351  0.00  0.00    +0.000 C 
BRANCH  14  16
ATOM     15  N   UNL     1       6.192   3.743  13.445  0.00  0.00    +0.000 N 
ATOM     16  C   UNL     1       7.117   4.676  13.849  0.00  0.00    +0.000 C 
ATOM     17  O   UNL     1       7.599   5.508  13.078  0.00  0.00    +0.000 OA
ATOM     18  H   UNL     1       5.754   3.160  14.147  0.00  0.00    +0.000 HD
BRANCH  15  19
ATOM     19  C   UNL     1       5.799   3.585  12.062  0.00  0.00    +0.000 C 
BRANCH  19  20
ATOM     20  C   UNL     1       5.289   2.172  11.755  0.00  0.00    +0.000 C 
BRANCH  20  22
ATOM     21  C   UNL     1       7.701   1.779  11.032  0.00  0.00    +0.000 C 
ATOM     22  C   UNL     1       6.251   1.312  10.909  0.00  0.00    +0.000 C 
ATOM     23  C   UNL     1       6.153  -0.159  11.323  0.00  0.00    +0.000 C 
ENDBRANCH  20  22
ENDBRANCH  19  20
ENDBRANCH  15  19
ENDBRANCH  14  16
ENDBRANCH   1  14
TORSDOF 6
ENDMDL
MODEL 4
REMARK VINA RESULT:      -7.4      1.618      1.922
REMARK  Name = 
REMARK  8 active torsions:
REMARK  status: ('A' for Active; 'I' for Inactive)
REMARK    1  A    between atoms: C_1  and  C_2
REMARK    2  A    between atoms: C_2  and  C_3
REMARK    3  A    between atoms: C_2  and  C_4
REMARK    4  A    between atoms: C_4  and  C_5
REMARK    5  A    between atoms: C_5  and  N_6
REMARK    6  A    between atoms: C_7  and  C_9
REMARK    7  A    between atoms: C_9  and  N_10
REMARK    8  A    between atoms: C_13  and  N_14
REMARK                            x       y       z     vdW  Elec       q    Type
REMARK                         _______ _______ _______ _____ _____    ______ ____
ROOT
ATOM      1  N   UNL     1       5.998   6.180  17.465  0.00  0.00    +0.000 N 
ATOM      2  C   UNL     1       4.799   6.859  17.400  0.00  0.00    +0.000 A 
ATOM      3  C   UNL     1       3.686   6.350  17.942  0.00  0.00    +0.000 A 
ATOM      4  C   UNL     1       3.693   5.074  18.642  0.00  0.00    +0.000 A 
ATOM      5  C   UNL     1       4.847   4.382  18.647  0.00  0.00    +0.000 A 
ATOM      6  C   UNL     1       6.096   4.932  18.062  0.00  0.00    +0.000 A 
ATOM      7  O   UNL     1       7.148   4.311  18.191  0.00  0.00    +0.000 OA
ENDROOT
BRANCH   4   8
ATOM      8  N   UNL     1       2.513   4.638  19.255  0.00  0.00    +0.000 N 
ATOM      9  C   UNL     1       2.150   4.968  20.644  0.00  0.00    +0.000 C 
ATOM     10  C   UNL     1       2.040   3.688  21.473  0.00  0.00    +0.000 C 
ATOM     11  C   UNL     1       1.076   2.689  20.840  0.00  0.00    +0.000 C 
ATOM     12  C   UNL     1       1.443   2.427  19.381  0.00  0.00    +0.000 C 
ATOM     13  C   UNL     1       1.551   3.734  18.601  0.00  0.00    +0.000 C 
ENDBRANCH   4   8
BRANCH   1  14
ATOM     14  C   UNL     1       7.203   6.807  16.922  0.00  0.00    +0.000 C 
BRANCH  14  16
ATOM     15  N   UNL     1       8.011   8.964  17.818  0.00  0.00    +0.000 N 
ATOM     16  C   UNL     1       7.990   7.598  17.971  0.00  0.00    +0.000 C 
ATOM     17  O   UNL     1       8.474   7.035  18.955  0.00  0.00    +0.000 OA
ATOM     18  H   UNL     1       7.502   9.371  17.043  0.00  0.00    +0.000 HD
BRANCH  15  19
ATOM     19  C   UNL     1       8.703   9.841  18.736  0.00  0.00    +0.000 C 
BRANCH  19  20
ATOM     20  C   UNL     1       9.472  10.955  18.017  0.00  0.00    +0.000 C 
BRANCH  20  22
ATOM     21  C   UNL     1      11.712  12.155  17.819  0.00  0.00    +0.000 C 
ATOM     22  C   UNL     1      10.736  11.443  18.756  0.00  0.00    +0.000 C 
ATOM     23  C   UNL     1      10.352  12.385  19.901  0.00  0.00    +0.000 C 
ENDBRANCH  20  22
ENDBRANCH  19  20
ENDBRANCH  15  19
ENDBRANCH  14  16
ENDBRANCH   1  14
TORSDOF 6
ENDMDL
MODEL 5
REMARK VINA RESULT:      -7.3      1.589      1.949
REMARK  Name = 
REMARK  8 active torsions:
REMARK  status: ('A' for Active; 'I' for Inactive)
REMARK    1  A    between atoms: C_1  and  C_2
REMARK    2  A    between atoms: C_2  and  C_3
REMARK    3  A    between atoms: C_2  and  C_4
REMARK    4  A    between atoms: C_4  and  C_5
REMARK    5  A    between atoms: C_5  and  N_6
REMARK    6  A    between atoms: C_7  and  C_9
REMARK    7  A    between atoms: C_9  and  N_10
REMARK    8  A    between atoms: C_13  and  N_14
REMARK                            x       y       z     vdW  Elec       q    Type
REMARK                         _______ _______ _______ _____ _____    ______ ____
ROOT
ATOM      1  N   UNL     1       5.652   6.155  17.061  0.00  0.00    +0.000 N 
ATOM      2  C   UNL     1       4.663   6.937  17.622  0.00  0.00    +0.000 A 
ATOM      3  C   UNL     1       3.572   6.386  18.167  0.00  0.00    +0.000 A 
ATOM      4  C   UNL     1       3.389   4.943  18.215  0.00  0.00    +0.000 A 
ATOM      5  C   UNL     1       4.322   4.185  17.610  0.00  0.00    +0.000 A 
ATOM      6  C   UNL     1       5.544   4.774  17.008  0.00  0.00    +0.000 A 
ATOM      7  O   UNL     1       6.419   4.032  16.568  0.00  0.00    +0.000 OA
ENDROOT
BRANCH   4   8
ATOM      8  N   UNL     1       2.265   4.431  18.872  0.00  0.00    +0.000 N 
ATOM      9  C   UNL     1       1.757   4.964  20.148  0.00  0.00    +0.000 C 
ATOM     10  C   UNL     1       1.816   3.882  21.227  0.00  0.00    +0.000 C 
ATOM     11  C   UNL     1       1.087   2.614  20.792  0.00  0.00    +0.000 C 
ATOM     12  C   UNL     1       1.592   2.133  19.434  0.00  0.00    +0.000 C 
ATOM     13  C   UNL     1       1.523   3.250  18.397  0.00  0.00    +0.000 C 
ENDBRANCH   4   8
BRANCH   1  14
ATOM     14  C   UNL     1       6.859   6.798  16.540  0.00  0.00    +0.000 C 
BRANCH  14  16
ATOM     15  N   UNL     1       7.916   8.809  17.511  0.00  0.00    +0.000 N 
ATOM     16  C   UNL     1       7.704   7.457  17.635  0.00  0.00    +0.000 C 
ATOM     17  O   UNL     1       8.068   6.818  18.624  0.00  0.00    +0.000 OA
ATOM     18  H   UNL     1       7.498   9.295  16.727  0.00  0.00    +0.000 HD
BRANCH  15  19
ATOM     19  C   UNL     1       8.684   9.569  18.473  0.00  0.00    +0.000 C 
BRANCH  19  20
ATOM     20  C   UNL     1       8.866  11.033  18.054  0.00  0.00    +0.000 C 
BRANCH  20  22
ATOM     21  C   UNL     1       9.996  11.344  20.318  0.00  0.00    +0.000 C 
ATOM     22  C   UNL     1       9.931  11.804  18.861  0.00  0.00    +0.000 C 
ATOM     23  C   UNL     1      11.310  11.639  18.214  0.00  0.00    +0.000 C 
ENDBRANCH  20  22
ENDBRANCH  19  20
ENDBRANCH  15  19
ENDBRANCH  14  16
ENDBRANCH   1  14
TORSDOF 6
ENDMDL
MODEL 6
REMARK VINA RESULT:      -7.2      3.777      6.306
REMARK  Name = 
REMARK  8 active torsions:
REMARK  status: ('A' for Active; 'I' for Inactive)
REMARK    1  A    between atoms: C_1  and  C_2
REMARK    2  A    between atoms: C_2  and  C_3
REMARK    3  A    between atoms: C_2  and  C_4
REMARK    4  A    between atoms: C_4  and  C_5
REMARK    5  A    between atoms: C_5  and  N_6
REMARK    6  A    between atoms: C_7  and  C_9
REMARK    7  A    between atoms: C_9  and  N_10
REMARK    8  A    between atoms: C_13  and  N_14
REMARK                            x       y       z     vdW  Elec       q    Type
REMARK                         _______ _______ _______ _____ _____    ______ ____
ROOT
ATOM      1  N   UNL     1       6.070   5.361  17.106  0.00  0.00    +0.000 N 
ATOM      2  C   UNL     1       6.269   4.372  18.048  0.00  0.00    +0.000 A 
ATOM      3  C   UNL     1       5.238   3.827  18.704  0.00  0.00    +0.000 A 
ATOM      4  C   UNL     1       3.866   4.232  18.441  0.00  0.00    +0.000 A 
ATOM      5  C   UNL     1       3.678   5.242  17.571  0.00  0.00    +0.000 A 
ATOM      6  C   UNL     1       4.806   5.853  16.824  0.00  0.00    +0.000 A 
ATOM      7  O   UNL     1       4.571   6.694  15.959  0.00  0.00    +0.000 OA
ENDROOT
BRANCH   4   8
ATOM      8  N   UNL     1       2.830   3.565  19.105  0.00  0.00    +0.000 N 
ATOM      9  C   UNL     1       1.452   4.080  19.187  0.00  0.00    +0.000 C 
ATOM     10  C   UNL     1       1.073   4.328  20.647  0.00  0.00    +0.000 C 
ATOM     11  C   UNL     1       1.280   3.081  21.502  0.00  0.00    +0.000 C 
ATOM     12  C   UNL     1       2.698   2.537  21.335  0.00  0.00    +0.000 C 
ATOM     13  C   UNL     1       3.030   2.317  19.863  0.00  0.00    +0.000 C 
ENDBRANCH   4   8
BRANCH   1  14
ATOM     14  C   UNL     1       7.220   5.877  16.362  0.00  0.00    +0.000 C 
BRANCH  14  16
ATOM     15  N   UNL     1       6.391   4.348  14.606  0.00  0.00    +0.000 N 
ATOM     16  C   UNL     1       7.346   5.270  14.960  0.00  0.00    +0.000 C 
ATOM     17  O   UNL     1       8.194   5.684  14.167  0.00  0.00    +0.000 OA
ATOM     18  H   UNL     1       5.658   4.131  15.270  0.00  0.00    +0.000 HD
BRANCH  15  19
ATOM     19  C   UNL     1       6.375   3.700  13.313  0.00  0.00    +0.000 C 
BRANCH  19  20
ATOM     20  C   UNL     1       4.974   3.663  12.692  0.00  0.00    +0.000 C 
BRANCH  20  22
ATOM     21  C   UNL     1       5.489   1.670  11.188  0.00  0.00    +0.000 C 
ATOM     22  C   UNL     1       4.920   3.087  11.262  0.00  0.00    +0.000 C 
ATOM     23  C   UNL     1       3.479   3.084  10.743  0.00  0.00    +0.000 C 
ENDBRANCH  20  22
ENDBRANCH  19  20
ENDBRANCH  15  19
ENDBRANCH  14  16
ENDBRANCH   1  14
TORSDOF 6
ENDMDL
MODEL 7
REMARK VINA RESULT:      -7.1      3.833      6.131
REMARK  Name = 
REMARK  8 active torsions:
REMARK  status: ('A' for Active; 'I' for Inactive)
REMARK    1  A    between atoms: C_1  and  C_2
REMARK    2  A    between atoms: C_2  and  C_3
REMARK    3  A    between atoms: C_2  and  C_4
REMARK    4  A    between atoms: C_4  and  C_5
REMARK    5  A    between atoms: C_5  and  N_6
REMARK    6  A    between atoms: C_7  and  C_9
REMARK    7  A    between atoms: C_9  and  N_10
REMARK    8  A    between atoms: C_13  and  N_14
REMARK                            x       y       z     vdW  Elec       q    Type
REMARK                         _______ _______ _______ _____ _____    ______ ____
ROOT
ATOM      1  N   UNL     1       5.855   5.543  17.247  0.00  0.00    +0.000 N 
ATOM      2  C   UNL     1       5.907   4.609  18.261  0.00  0.00    +0.000 A 
ATOM      3  C   UNL     1       4.829   4.335  19.004  0.00  0.00    +0.000 A 
ATOM      4  C   UNL     1       3.551   4.987  18.764  0.00  0.00    +0.000 A 
ATOM      5  C   UNL     1       3.517   5.944  17.819  0.00  0.00    +0.000 A 
ATOM      6  C   UNL     1       4.698   6.258  16.975  0.00  0.00    +0.000 A 
ATOM      7  O   UNL     1       4.585   7.060  16.052  0.00  0.00    +0.000 OA
ENDROOT
BRANCH   4   8
ATOM      8  N   UNL     1       2.444   4.594  19.524  0.00  0.00    +0.000 N 
ATOM      9  C   UNL     1       2.301   4.885  20.962  0.00  0.00    +0.000 C 
ATOM     10  C   UNL     1       2.228   3.580  21.754  0.00  0.00    +0.000 C 
ATOM     11  C   UNL     1       1.124   2.665  21.231  0.00  0.00    +0.000 C 
ATOM     12  C   UNL     1       1.266   2.445  19.727  0.00  0.00    +0.000 C 
ATOM     13  C   UNL     1       1.345   3.775  18.984  0.00  0.00    +0.000 C 
ENDBRANCH   4   8
BRANCH   1  14
ATOM     14  C   UNL     1       7.039   5.759  16.414  0.00  0.00    +0.000 C 
BRANCH  14  16
ATOM     15  N   UNL     1       7.648   5.363  14.052  0.00  0.00    +0.000 N 
ATOM     16  C   UNL     1       7.085   4.838  15.191  0.00  0.00    +0.000 C 
ATOM     17  O   UNL     1       6.739   3.658  15.275  0.00  0.00    +0.000 OA
ATOM     18  H   UNL     1       8.010   6.309  14.083  0.00  0.00    +0.000 HD
BRANCH  15  19
ATOM     19  C   UNL     1       7.771   4.609  12.824  0.00  0.00    +0.000 C 
BRANCH  19  20
ATOM     20  C   UNL     1       6.449   4.521  12.054  0.00  0.00    +0.000 C 
BRANCH  20  22
ATOM     21  C   UNL     1       4.390   3.147  11.446  0.00  0.00    +0.000 C 
ATOM     22  C   UNL     1       5.780   3.131  12.082  0.00  0.00    +0.000 C 
ATOM     23  C   UNL     1       6.658   2.105  11.360  0.00  0.00    +0.000 C 
ENDBRANCH  20  22
ENDBRANCH  19  20
ENDBRANCH  15  19
ENDBRANCH  14  16
ENDBRANCH   1  14
TORSDOF 6
ENDMDL
MODEL 8
REMARK VINA RESULT:      -7.1      1.415      1.513
REMARK  Name = 
REMARK  8 active torsions:
REMARK  status: ('A' for Active; 'I' for Inactive)
REMARK    1  A    between atoms: C_1  and  C_2
REMARK    2  A    between atoms: C_2  and  C_3
REMARK    3  A    between atoms: C_2  and  C_4
REMARK    4  A    between atoms: C_4  and  C_5
REMARK    5  A    between atoms: C_5  and  N_6
REMARK    6  A    between atoms: C_7  and  C_9
REMARK    7  A    between atoms: C_9  and  N_10
REMARK    8  A    between atoms: C_13  and  N_14
REMARK                            x       y       z     vdW  Elec       q    Type
REMARK                         _______ _______ _______ _____ _____    ______ ____
ROOT
ATOM      1  N   UNL     1       5.930   6.107  17.182  0.00  0.00    +0.000 N 
ATOM      2  C   UNL     1       4.712   6.619  17.579  0.00  0.00    +0.000 A 
ATOM      3  C   UNL     1       3.769   5.830  18.106  0.00  0.00    +0.000 A 
ATOM      4  C   UNL     1       3.990   4.406  18.306  0.00  0.00    +0.000 A 
ATOM      5  C   UNL     1       5.153   3.895  17.859  0.00  0.00    +0.000 A 
ATOM      6  C   UNL     1       6.217   4.754  17.281  0.00  0.00    +0.000 A 
ATOM      7  O   UNL     1       7.302   4.257  16.991  0.00  0.00    +0.000 OA
ENDROOT
BRANCH   4   8
ATOM      8  N   UNL     1       2.993   3.653  18.937  0.00  0.00    +0.000 N 
ATOM      9  C   UNL     1       1.563   4.004  18.895  0.00  0.00    +0.000 C 
ATOM     10  C   UNL     1       1.050   4.279  20.309  0.00  0.00    +0.000 C 
ATOM     11  C   UNL     1       1.338   3.111  21.249  0.00  0.00    +0.000 C 
ATOM     12  C   UNL     1       2.817   2.733  21.211  0.00  0.00    +0.000 C 
ATOM     13  C   UNL     1       3.281   2.480  19.780  0.00  0.00    +0.000 C 
ENDBRANCH   4   8
BRANCH   1  14
ATOM     14  C   UNL     1       6.956   7.019  16.677  0.00  0.00    +0.000 C 
BRANCH  14  16
ATOM     15  N   UNL     1       8.060   8.984  17.690  0.00  0.00    +0.000 N 
ATOM     16  C   UNL     1       7.807   7.638  17.791  0.00  0.00    +0.000 C 
ATOM     17  O   UNL     1       8.139   6.973  18.776  0.00  0.00    +0.000 OA
ATOM     18  H   UNL     1       7.667   9.493  16.908  0.00  0.00    +0.000 HD
BRANCH  15  19
ATOM     19  C   UNL     1       8.838   9.707  18.672  0.00  0.00    +0.000 C 
BRANCH  19  20
ATOM     20  C   UNL     1       8.685  11.227  18.540  0.00  0.00    +0.000 C 
BRANCH  20  22
ATOM     21  C   UNL     1      11.107  11.430  17.771  0.00  0.00    +0.000 C 
ATOM     22  C   UNL     1      10.005  12.017  18.653  0.00  0.00    +0.000 C 
ATOM     23  C   UNL     1       9.779  13.485  18.277  0.00  0.00    +0.000 C 
ENDBRANCH  20  22
ENDBRANCH  19  20
ENDBRANCH  15  19
ENDBRANCH  14  16
ENDBRANCH   1  14
TORSDOF 6
ENDMDL
MODEL 9
REMARK VINA RESULT:      -7.1      3.933      6.398
REMARK  Name = 
REMARK  8 active torsions:
REMARK  status: ('A' for Active; 'I' for Inactive)
REMARK    1  A    between atoms: C_1  and  C_2
REMARK    2  A    between atoms: C_2  and  C_3
REMARK    3  A    between atoms: C_2  and  C_4
REMARK    4  A    between atoms: C_4  and  C_5
REMARK    5  A    between atoms: C_5  and  N_6
REMARK    6  A    between atoms: C_7  and  C_9
REMARK    7  A    between atoms: C_9  and  N_10
REMARK    8  A    between atoms: C_13  and  N_14
REMARK                            x       y       z     vdW  Elec       q    Type
REMARK                         _______ _______ _______ _____ _____    ______ ____
ROOT
ATOM      1  N   UNL     1       6.053   5.299  17.215  0.00  0.00    +0.000 N 
ATOM      2  C   UNL     1       5.973   4.294  18.157  0.00  0.00    +0.000 A 
ATOM      3  C   UNL     1       4.861   4.110  18.878  0.00  0.00    +0.000 A 
ATOM      4  C   UNL     1       3.682   4.941  18.688  0.00  0.00    +0.000 A 
ATOM      5  C   UNL     1       3.784   5.962  17.817  0.00  0.00    +0.000 A 
ATOM      6  C   UNL     1       5.004   6.178  16.999  0.00  0.00    +0.000 A 
ATOM      7  O   UNL     1       5.006   7.055  16.138  0.00  0.00    +0.000 OA
ENDROOT
BRANCH   4   8
ATOM      8  N   UNL     1       2.526   4.643  19.417  0.00  0.00    +0.000 N 
ATOM      9  C   UNL     1       2.380   4.920  20.857  0.00  0.00    +0.000 C 
ATOM     10  C   UNL     1       2.165   3.614  21.621  0.00  0.00    +0.000 C 
ATOM     11  C   UNL     1       0.990   2.819  21.058  0.00  0.00    +0.000 C 
ATOM     12  C   UNL     1       1.143   2.614  19.553  0.00  0.00    +0.000 C 
ATOM     13  C   UNL     1       1.366   3.943  18.839  0.00  0.00    +0.000 C 
ENDBRANCH   4   8
BRANCH   1  14
ATOM     14  C   UNL     1       7.263   5.418  16.401  0.00  0.00    +0.000 C 
BRANCH  14  16
ATOM     15  N   UNL     1       5.830   4.511  14.603  0.00  0.00    +0.000 N 
ATOM     16  C   UNL     1       7.014   5.135  14.916  0.00  0.00    +0.000 C 
ATOM     17  O   UNL     1       7.790   5.554  14.054  0.00  0.00    +0.000 OA
ATOM     18  H   UNL     1       5.188   4.288  15.353  0.00  0.00    +0.000 HD
BRANCH  15  19
ATOM     19  C   UNL     1       5.453   4.191  13.244  0.00  0.00    +0.000 C 
BRANCH  19  20
ATOM     20  C   UNL     1       6.302   3.061  12.650  0.00  0.00    +0.000 C 
BRANCH  20  22
ATOM     21  C   UNL     1       5.991   0.981  11.209  0.00  0.00    +0.000 C 
ATOM     22  C   UNL     1       5.770   2.490  11.319  0.00  0.00    +0.000 C 
ATOM     23  C   UNL     1       4.276   2.796  11.169  0.00  0.00    +0.000 C 
ENDBRANCH  20  22
ENDBRANCH  19  20
ENDBRANCH  15  19
ENDBRANCH  14  16
ENDBRANCH   1  14
TORSDOF 6
ENDMDL
