MODEL 1
REMARK VINA RESULT:      -6.6      0.000      0.000
REMARK  Name = 
REMARK  2 active torsions:
REMARK  status: ('A' for Active; 'I' for Inactive)
REMARK    1  A    between atoms: S_2  and  C_4
REMARK    2  A    between atoms: S_2  and  N_10
REMARK                            x       y       z     vdW  Elec       q    Type
REMARK                         _______ _______ _______ _____ _____    ______ ____
ROOT
ATOM      1  N   UNL     1       1.021  13.798  20.228  0.00  0.00    +0.000 NA
ATOM      2  C   UNL     1       2.280  13.987  20.988  0.00  0.00    +0.000 C 
ATOM      3  C   UNL     1       3.476  14.260  20.078  0.00  0.00    +0.000 C 
ATOM      4  C   UNL     1       3.248  15.387  19.032  0.00  0.00    +0.000 C 
ATOM      5  C   UNL     1       3.292  16.802  19.669  0.00  0.00    +0.000 C 
ATOM      6  C   UNL     1       4.677  17.192  20.183  0.00  0.00    +0.000 C 
ATOM      7  C   UNL     1       5.741  17.032  19.102  0.00  0.00    +0.000 C 
ATOM      8  N   UNL     1       5.645  15.722  18.473  0.00  0.00    +0.000 N 
ATOM      9  C   UNL     1       6.724  14.866  18.541  0.00  0.00    +0.000 A 
ATOM     10  C   UNL     1       6.991  13.956  17.516  0.00  0.00    +0.000 A 
ATOM     11  C   UNL     1       8.102  13.116  17.588  0.00  0.00    +0.000 A 
ATOM     12  C   UNL     1       8.927  13.184  18.698  0.00  0.00    +0.000 A 
ATOM     13  C   UNL     1       8.606  14.103  19.678  0.00  0.00    +0.000 A 
ATOM     14  N   UNL     1       7.544  14.940  19.613  0.00  0.00    +0.000 NA
ATOM     15  C   UNL     1       4.353  15.305  17.940  0.00  0.00    +0.000 C 
ATOM     16  C   UNL     1       1.871  15.174  18.350  0.00  0.00    +0.000 C 
ATOM     17  C   UNL     1       0.736  14.958  19.349  0.00  0.00    +0.000 C 
ENDROOT
BRANCH   1  19
ATOM     18  O   UNL     1       1.933  11.756  18.983  0.00  0.00    +0.000 OA
ATOM     19  S   UNL     1       0.694  12.267  19.538  0.00  0.00    +0.000 S 
ATOM     20  O   UNL     1      -0.486  12.392  18.710  0.00  0.00    +0.000 OA
BRANCH  19  21
ATOM     21  C   UNL     1       0.251  11.257  20.926  0.00  0.00    +0.000 A 
ATOM     22  C   UNL     1       0.753   9.956  21.011  0.00  0.00    +0.000 A 
ATOM     23  C   UNL     1       0.373   9.144  22.079  0.00  0.00    +0.000 A 
ATOM     24  C   UNL     1      -0.495   9.636  23.057  0.00  0.00    +0.000 A 
ATOM     25  C   UNL     1      -0.965  10.948  22.985  0.00  0.00    +0.000 A 
ATOM     26  C   UNL     1      -0.590  11.766  21.921  0.00  0.00    +0.000 A 
ENDBRANCH  19  21
ENDBRANCH   1  19
TORSDOF 2
ENDMDL
MODEL 2
REMARK VINA RESULT:      -6.3      5.313      8.236
REMARK  Name = 
REMARK  2 active torsions:
REMARK  status: ('A' for Active; 'I' for Inactive)
REMARK    1  A    between atoms: S_2  and  C_4
REMARK    2  A    between atoms: S_2  and  N_10
REMARK                            x       y       z     vdW  Elec       q    Type
REMARK                         _______ _______ _______ _____ _____    ______ ____
ROOT
ATOM      1  N   UNL     1       8.670  15.687  17.875  0.00  0.00    +0.000 NA
ATOM      2  C   UNL     1       7.943  14.482  18.342  0.00  0.00    +0.000 C 
ATOM      3  C   UNL     1       7.670  14.511  19.844  0.00  0.00    +0.000 C 
ATOM      4  C   UNL     1       7.016  15.825  20.357  0.00  0.00    +0.000 C 
ATOM      5  C   UNL     1       5.511  15.919  19.987  0.00  0.00    +0.000 C 
ATOM      6  C   UNL     1       4.643  14.891  20.711  0.00  0.00    +0.000 C 
ATOM      7  C   UNL     1       4.853  14.944  22.220  0.00  0.00    +0.000 C 
ATOM      8  N   UNL     1       6.272  14.918  22.546  0.00  0.00    +0.000 N 
ATOM      9  C   UNL     1       6.762  13.885  23.317  0.00  0.00    +0.000 A 
ATOM     10  C   UNL     1       7.844  14.077  24.180  0.00  0.00    +0.000 A 
ATOM     11  C   UNL     1       8.310  13.029  24.972  0.00  0.00    +0.000 A 
ATOM     12  C   UNL     1       7.696  11.791  24.882  0.00  0.00    +0.000 A 
ATOM     13  C   UNL     1       6.633  11.667  24.008  0.00  0.00    +0.000 A 
ATOM     14  N   UNL     1       6.156  12.679  23.247  0.00  0.00    +0.000 NA
ATOM     15  C   UNL     1       7.146  15.893  21.905  0.00  0.00    +0.000 C 
ATOM     16  C   UNL     1       7.771  17.036  19.749  0.00  0.00    +0.000 C 
ATOM     17  C   UNL     1       7.949  16.932  18.237  0.00  0.00    +0.000 C 
ENDROOT
BRANCH   1  19
ATOM     18  O   UNL     1      10.656  16.555  19.237  0.00  0.00    +0.000 OA
ATOM     19  S   UNL     1      10.370  15.752  18.064  0.00  0.00    +0.000 S 
ATOM     20  O   UNL     1      10.950  16.090  16.782  0.00  0.00    +0.000 OA
BRANCH  19  21
ATOM     21  C   UNL     1      10.826  14.075  18.415  0.00  0.00    +0.000 A 
ATOM     22  C   UNL     1      11.198  13.728  19.716  0.00  0.00    +0.000 A 
ATOM     23  C   UNL     1      11.599  12.419  19.987  0.00  0.00    +0.000 A 
ATOM     24  C   UNL     1      11.616  11.467  18.965  0.00  0.00    +0.000 A 
ATOM     25  C   UNL     1      11.209  11.812  17.676  0.00  0.00    +0.000 A 
ATOM     26  C   UNL     1      10.807  13.118  17.396  0.00  0.00    +0.000 A 
ENDBRANCH  19  21
ENDBRANCH   1  19
TORSDOF 2
ENDMDL
MODEL 3
REMARK VINA RESULT:      -6.3      5.119      8.129
REMARK  Name = 
REMARK  2 active torsions:
REMARK  status: ('A' for Active; 'I' for Inactive)
REMARK    1  A    between atoms: S_2  and  C_4
REMARK    2  A    between atoms: S_2  and  N_10
REMARK                            x       y       z     vdW  Elec       q    Type
REMARK                         _______ _______ _______ _____ _____    ______ ____
ROOT
ATOM      1  N   UNL     1       8.500  15.722  18.175  0.00  0.00    +0.000 NA
ATOM      2  C   UNL     1       7.766  14.501  18.589  0.00  0.00    +0.000 C 
ATOM      3  C   UNL     1       7.408  14.511  20.073  0.00  0.00    +0.000 C 
ATOM      4  C   UNL     1       6.706  15.810  20.561  0.00  0.00    +0.000 C 
ATOM      5  C   UNL     1       5.224  15.886  20.106  0.00  0.00    +0.000 C 
ATOM      6  C   UNL     1       4.332  14.838  20.770  0.00  0.00    +0.000 C 
ATOM      7  C   UNL     1       4.455  14.879  22.290  0.00  0.00    +0.000 C 
ATOM      8  N   UNL     1       5.854  14.869  22.695  0.00  0.00    +0.000 N 
ATOM      9  C   UNL     1       6.315  13.837  23.483  0.00  0.00    +0.000 A 
ATOM     10  C   UNL     1       7.344  14.035  24.407  0.00  0.00    +0.000 A 
ATOM     11  C   UNL     1       7.780  12.986  25.215  0.00  0.00    +0.000 A 
ATOM     12  C   UNL     1       7.192  11.740  25.078  0.00  0.00    +0.000 A 
ATOM     13  C   UNL     1       6.182  11.609  24.145  0.00  0.00    +0.000 A 
ATOM     14  N   UNL     1       5.733  12.622  23.367  0.00  0.00    +0.000 NA
ATOM     15  C   UNL     1       6.748  15.864  22.114  0.00  0.00    +0.000 C 
ATOM     16  C   UNL     1       7.476  17.039  20.008  0.00  0.00    +0.000 C 
ATOM     17  C   UNL     1       7.741  16.952  18.507  0.00  0.00    +0.000 C 
ENDROOT
BRANCH   1  19
ATOM     18  O   UNL     1      10.387  16.487  19.727  0.00  0.00    +0.000 OA
ATOM     19  S   UNL     1      10.185  15.810  18.460  0.00  0.00    +0.000 S 
ATOM     20  O   UNL     1      10.818  16.301  17.255  0.00  0.00    +0.000 OA
BRANCH  19  21
ATOM     21  C   UNL     1      10.676  14.117  18.652  0.00  0.00    +0.000 A 
ATOM     22  C   UNL     1      10.708  13.285  17.530  0.00  0.00    +0.000 A 
ATOM     23  C   UNL     1      11.053  11.942  17.684  0.00  0.00    +0.000 A 
ATOM     24  C   UNL     1      11.373  11.442  18.949  0.00  0.00    +0.000 A 
ATOM     25  C   UNL     1      11.375  12.287  20.059  0.00  0.00    +0.000 A 
ATOM     26  C   UNL     1      11.031  13.631  19.914  0.00  0.00    +0.000 A 
ENDBRANCH  19  21
ENDBRANCH   1  19
TORSDOF 2
ENDMDL
MODEL 4
REMARK VINA RESULT:      -6.3      4.086      5.592
REMARK  Name = 
REMARK  2 active torsions:
REMARK  status: ('A' for Active; 'I' for Inactive)
REMARK    1  A    between atoms: S_2  and  C_4
REMARK    2  A    between atoms: S_2  and  N_10
REMARK                            x       y       z     vdW  Elec       q    Type
REMARK                         _______ _______ _______ _____ _____    ______ ____
ROOT
ATOM      1  N   UNL     1       4.889  15.889  20.110  0.00  0.00    +0.000 NA
ATOM      2  C   UNL     1       5.867  15.139  20.936  0.00  0.00    +0.000 C 
ATOM      3  C   UNL     1       7.203  14.943  20.224  0.00  0.00    +0.000 C 
ATOM      4  C   UNL     1       7.815  16.242  19.629  0.00  0.00    +0.000 C 
ATOM      5  C   UNL     1       8.425  17.162  20.721  0.00  0.00    +0.000 C 
ATOM      6  C   UNL     1       9.663  16.569  21.391  0.00  0.00    +0.000 C 
ATOM      7  C   UNL     1      10.709  16.149  20.364  0.00  0.00    +0.000 C 
ATOM      8  N   UNL     1      10.108  15.339  19.315  0.00  0.00    +0.000 N 
ATOM      9  C   UNL     1      10.560  14.051  19.121  0.00  0.00    +0.000 A 
ATOM     10  C   UNL     1      10.551  13.463  17.854  0.00  0.00    +0.000 A 
ATOM     11  C   UNL     1      11.037  12.169  17.672  0.00  0.00    +0.000 A 
ATOM     12  C   UNL     1      11.513  11.468  18.766  0.00  0.00    +0.000 A 
ATOM     13  C   UNL     1      11.492  12.104  19.992  0.00  0.00    +0.000 A 
ATOM     14  N   UNL     1      11.043  13.367  20.183  0.00  0.00    +0.000 NA
ATOM     15  C   UNL     1       8.938  15.866  18.621  0.00  0.00    +0.000 C 
ATOM     16  C   UNL     1       6.710  17.017  18.863  0.00  0.00    +0.000 C 
ATOM     17  C   UNL     1       5.434  17.200  19.680  0.00  0.00    +0.000 C 
ENDROOT
BRANCH   1  19
ATOM     18  O   UNL     1       3.279  13.972  19.575  0.00  0.00    +0.000 OA
ATOM     19  S   UNL     1       3.997  15.047  18.917  0.00  0.00    +0.000 S 
ATOM     20  O   UNL     1       4.884  14.768  17.808  0.00  0.00    +0.000 OA
BRANCH  19  21
ATOM     21  C   UNL     1       2.813  16.238  18.348  0.00  0.00    +0.000 A 
ATOM     22  C   UNL     1       1.739  16.580  19.173  0.00  0.00    +0.000 A 
ATOM     23  C   UNL     1       0.782  17.484  18.711  0.00  0.00    +0.000 A 
ATOM     24  C   UNL     1       0.908  18.047  17.439  0.00  0.00    +0.000 A 
ATOM     25  C   UNL     1       2.003  17.729  16.634  0.00  0.00    +0.000 A 
ATOM     26  C   UNL     1       2.964  16.825  17.088  0.00  0.00    +0.000 A 
ENDBRANCH  19  21
ENDBRANCH   1  19
TORSDOF 2
ENDMDL
MODEL 5
REMARK VINA RESULT:      -6.3      3.258      4.659
REMARK  Name = 
REMARK  2 active torsions:
REMARK  status: ('A' for Active; 'I' for Inactive)
REMARK    1  A    between atoms: S_2  and  C_4
REMARK    2  A    between atoms: S_2  and  N_10
REMARK                            x       y       z     vdW  Elec       q    Type
REMARK                         _______ _______ _______ _____ _____    ______ ____
ROOT
ATOM      1  N   UNL     1       4.703  16.117  19.797  0.00  0.00    +0.000 NA
ATOM      2  C   UNL     1       5.437  15.006  20.451  0.00  0.00    +0.000 C 
ATOM      3  C   UNL     1       6.884  14.903  19.975  0.00  0.00    +0.000 C 
ATOM      4  C   UNL     1       7.678  16.239  20.026  0.00  0.00    +0.000 C 
ATOM      5  C   UNL     1       8.083  16.630  21.472  0.00  0.00    +0.000 C 
ATOM      6  C   UNL     1       9.113  15.685  22.090  0.00  0.00    +0.000 C 
ATOM      7  C   UNL     1      10.335  15.523  21.191  0.00  0.00    +0.000 C 
ATOM      8  N   UNL     1       9.933  15.218  19.824  0.00  0.00    +0.000 N 
ATOM      9  C   UNL     1      10.349  14.033  19.254  0.00  0.00    +0.000 A 
ATOM     10  C   UNL     1      10.585  13.935  17.881  0.00  0.00    +0.000 A 
ATOM     11  C   UNL     1      11.030  12.736  17.324  0.00  0.00    +0.000 A 
ATOM     12  C   UNL     1      11.219  11.640  18.148  0.00  0.00    +0.000 A 
ATOM     13  C   UNL     1      10.966  11.802  19.496  0.00  0.00    +0.000 A 
ATOM     14  N   UNL     1      10.553  12.964  20.055  0.00  0.00    +0.000 NA
ATOM     15  C   UNL     1       8.972  16.100  19.174  0.00  0.00    +0.000 C 
ATOM     16  C   UNL     1       6.808  17.368  19.413  0.00  0.00    +0.000 C 
ATOM     17  C   UNL     1       5.396  17.415  19.991  0.00  0.00    +0.000 C 
ENDROOT
BRANCH   1  19
ATOM     18  O   UNL     1       5.014  15.111  17.464  0.00  0.00    +0.000 OA
ATOM     19  S   UNL     1       4.049  15.871  18.236  0.00  0.00    +0.000 S 
ATOM     20  O   UNL     1       3.557  17.142  17.750  0.00  0.00    +0.000 OA
BRANCH  19  21
ATOM     21  C   UNL     1       2.634  14.841  18.522  0.00  0.00    +0.000 A 
ATOM     22  C   UNL     1       2.755  13.458  18.373  0.00  0.00    +0.000 A 
ATOM     23  C   UNL     1       1.634  12.649  18.556  0.00  0.00    +0.000 A 
ATOM     24  C   UNL     1       0.406  13.221  18.895  0.00  0.00    +0.000 A 
ATOM     25  C   UNL     1       0.299  14.600  19.079  0.00  0.00    +0.000 A 
ATOM     26  C   UNL     1       1.416  15.417  18.897  0.00  0.00    +0.000 A 
ENDBRANCH  19  21
ENDBRANCH   1  19
TORSDOF 2
ENDMDL
MODEL 6
REMARK VINA RESULT:      -6.2      3.742      5.269
REMARK  Name = 
REMARK  2 active torsions:
REMARK  status: ('A' for Active; 'I' for Inactive)
REMARK    1  A    between atoms: S_2  and  C_4
REMARK    2  A    between atoms: S_2  and  N_10
REMARK                            x       y       z     vdW  Elec       q    Type
REMARK                         _______ _______ _______ _____ _____    ______ ____
ROOT
ATOM      1  N   UNL     1       3.720  16.100  19.724  0.00  0.00    +0.000 NA
ATOM      2  C   UNL     1       4.365  15.154  20.667  0.00  0.00    +0.000 C 
ATOM      3  C   UNL     1       5.748  14.711  20.193  0.00  0.00    +0.000 C 
ATOM      4  C   UNL     1       6.697  15.875  19.791  0.00  0.00    +0.000 C 
ATOM      5  C   UNL     1       7.258  16.633  21.024  0.00  0.00    +0.000 C 
ATOM      6  C   UNL     1       8.214  15.791  21.869  0.00  0.00    +0.000 C 
ATOM      7  C   UNL     1       9.332  15.194  21.021  0.00  0.00    +0.000 C 
ATOM      8  N   UNL     1       8.791  14.542  19.837  0.00  0.00    +0.000 N 
ATOM      9  C   UNL     1       9.017  13.194  19.654  0.00  0.00    +0.000 A 
ATOM     10  C   UNL     1       9.130  12.647  18.374  0.00  0.00    +0.000 A 
ATOM     11  C   UNL     1       9.384  11.286  18.207  0.00  0.00    +0.000 A 
ATOM     12  C   UNL     1       9.507  10.481  19.327  0.00  0.00    +0.000 A 
ATOM     13  C   UNL     1       9.381  11.083  20.564  0.00  0.00    +0.000 A 
ATOM     14  N   UNL     1       9.155  12.405  20.743  0.00  0.00    +0.000 NA
ATOM     15  C   UNL     1       7.893  15.305  18.978  0.00  0.00    +0.000 C 
ATOM     16  C   UNL     1       5.922  16.870  18.887  0.00  0.00    +0.000 C 
ATOM     17  C   UNL     1       4.575  17.286  19.473  0.00  0.00    +0.000 C 
ENDROOT
BRANCH   1  19
ATOM     18  O   UNL     1       2.232  14.263  18.742  0.00  0.00    +0.000 OA
ATOM     19  S   UNL     1       2.919  15.478  18.346  0.00  0.00    +0.000 S 
ATOM     20  O   UNL     1       3.862  15.465  17.248  0.00  0.00    +0.000 OA
BRANCH  19  21
ATOM     21  C   UNL     1       1.698  16.707  17.968  0.00  0.00    +0.000 A 
ATOM     22  C   UNL     1       0.514  16.741  18.707  0.00  0.00    +0.000 A 
ATOM     23  C   UNL     1      -0.467  17.680  18.385  0.00  0.00    +0.000 A 
ATOM     24  C   UNL     1      -0.256  18.580  17.338  0.00  0.00    +0.000 A 
ATOM     25  C   UNL     1       0.944  18.564  16.627  0.00  0.00    +0.000 A 
ATOM     26  C   UNL     1       1.930  17.629  16.943  0.00  0.00    +0.000 A 
ENDBRANCH  19  21
ENDBRANCH   1  19
TORSDOF 2
ENDMDL
MODEL 7
REMARK VINA RESULT:      -6.2      5.408      7.542
REMARK  Name = 
REMARK  2 active torsions:
REMARK  status: ('A' for Active; 'I' for Inactive)
REMARK    1  A    between atoms: S_2  and  C_4
REMARK    2  A    between atoms: S_2  and  N_10
REMARK                            x       y       z     vdW  Elec       q    Type
REMARK                         _______ _______ _______ _____ _____    ______ ____
ROOT
ATOM      1  N   UNL     1      -0.862  11.254  20.845  0.00  0.00    +0.000 NA
ATOM      2  C   UNL     1      -0.912  11.341  22.325  0.00  0.00    +0.000 C 
ATOM      3  C   UNL     1      -1.120  12.772  22.818  0.00  0.00    +0.000 C 
ATOM      4  C   UNL     1      -2.306  13.520  22.147  0.00  0.00    +0.000 C 
ATOM      5  C   UNL     1      -3.684  13.038  22.675  0.00  0.00    +0.000 C 
ATOM      6  C   UNL     1      -3.934  13.402  24.137  0.00  0.00    +0.000 C 
ATOM      7  C   UNL     1      -3.729  14.893  24.386  0.00  0.00    +0.000 C 
ATOM      8  N   UNL     1      -2.460  15.341  23.829  0.00  0.00    +0.000 N 
ATOM      9  C   UNL     1      -1.514  15.883  24.672  0.00  0.00    +0.000 A 
ATOM     10  C   UNL     1      -0.629  16.868  24.228  0.00  0.00    +0.000 A 
ATOM     11  C   UNL     1       0.305  17.425  25.101  0.00  0.00    +0.000 A 
ATOM     12  C   UNL     1       0.353  16.978  26.411  0.00  0.00    +0.000 A 
ATOM     13  C   UNL     1      -0.548  16.001  26.786  0.00  0.00    +0.000 A 
ATOM     14  N   UNL     1      -1.473  15.464  25.957  0.00  0.00    +0.000 NA
ATOM     15  C   UNL     1      -2.177  15.044  22.430  0.00  0.00    +0.000 C 
ATOM     16  C   UNL     1      -2.239  13.301  20.612  0.00  0.00    +0.000 C 
ATOM     17  C   UNL     1      -2.078  11.833  20.225  0.00  0.00    +0.000 C 
ENDROOT
BRANCH   1  19
ATOM     18  O   UNL     1       1.525  12.161  21.026  0.00  0.00    +0.000 OA
ATOM     19  S   UNL     1       0.606  11.618  20.045  0.00  0.00    +0.000 S 
ATOM     20  O   UNL     1       0.288  12.362  18.844  0.00  0.00    +0.000 OA
BRANCH  19  21
ATOM     21  C   UNL     1       1.217  10.036  19.528  0.00  0.00    +0.000 A 
ATOM     22  C   UNL     1       1.287   8.995  20.458  0.00  0.00    +0.000 A 
ATOM     23  C   UNL     1       1.807   7.761  20.066  0.00  0.00    +0.000 A 
ATOM     24  C   UNL     1       2.242   7.571  18.753  0.00  0.00    +0.000 A 
ATOM     25  C   UNL     1       2.136   8.603  17.820  0.00  0.00    +0.000 A 
ATOM     26  C   UNL     1       1.618   9.840  18.203  0.00  0.00    +0.000 A 
ENDBRANCH  19  21
ENDBRANCH   1  19
TORSDOF 2
ENDMDL
MODEL 8
REMARK VINA RESULT:      -6.2      5.072      8.788
REMARK  Name = 
REMARK  2 active torsions:
REMARK  status: ('A' for Active; 'I' for Inactive)
REMARK    1  A    between atoms: S_2  and  C_4
REMARK    2  A    between atoms: S_2  and  N_10
REMARK                            x       y       z     vdW  Elec       q    Type
REMARK                         _______ _______ _______ _____ _____    ______ ____
ROOT
ATOM      1  N   UNL     1       0.041  11.709  20.336  0.00  0.00    +0.000 NA
ATOM      2  C   UNL     1      -1.295  12.044  19.787  0.00  0.00    +0.000 C 
ATOM      3  C   UNL     1      -2.246  12.581  20.854  0.00  0.00    +0.000 C 
ATOM      4  C   UNL     1      -1.663  13.732  21.720  0.00  0.00    +0.000 C 
ATOM      5  C   UNL     1      -1.614  15.081  20.953  0.00  0.00    +0.000 C 
ATOM      6  C   UNL     1      -2.996  15.655  20.645  0.00  0.00    +0.000 C 
ATOM      7  C   UNL     1      -3.853  15.757  21.902  0.00  0.00    +0.000 C 
ATOM      8  N   UNL     1      -3.838  14.502  22.641  0.00  0.00    +0.000 N 
ATOM      9  C   UNL     1      -5.025  13.834  22.850  0.00  0.00    +0.000 A 
ATOM     10  C   UNL     1      -5.230  13.064  23.997  0.00  0.00    +0.000 A 
ATOM     11  C   UNL     1      -6.447  12.416  24.205  0.00  0.00    +0.000 A 
ATOM     12  C   UNL     1      -7.445  12.533  23.252  0.00  0.00    +0.000 A 
ATOM     13  C   UNL     1      -7.178  13.308  22.140  0.00  0.00    +0.000 A 
ATOM     14  N   UNL     1      -6.010  13.959  21.932  0.00  0.00    +0.000 NA
ATOM     15  C   UNL     1      -2.546  13.920  22.986  0.00  0.00    +0.000 C 
ATOM     16  C   UNL     1      -0.231  13.348  22.175  0.00  0.00    +0.000 C 
ATOM     17  C   UNL     1       0.654  12.871  21.026  0.00  0.00    +0.000 C 
ENDROOT
BRANCH   1  19
ATOM     18  O   UNL     1      -1.052   9.621  21.336  0.00  0.00    +0.000 OA
ATOM     19  S   UNL     1       0.259  10.203  21.119  0.00  0.00    +0.000 S 
ATOM     20  O   UNL     1       1.167  10.402  22.228  0.00  0.00    +0.000 OA
BRANCH  19  21
ATOM     21  C   UNL     1       1.112   9.215  19.920  0.00  0.00    +0.000 A 
ATOM     22  C   UNL     1       1.676   7.999  20.314  0.00  0.00    +0.000 A 
ATOM     23  C   UNL     1       2.385   7.240  19.383  0.00  0.00    +0.000 A 
ATOM     24  C   UNL     1       2.517   7.691  18.067  0.00  0.00    +0.000 A 
ATOM     25  C   UNL     1       1.921   8.889  17.671  0.00  0.00    +0.000 A 
ATOM     26  C   UNL     1       1.211   9.654  18.595  0.00  0.00    +0.000 A 
ENDBRANCH  19  21
ENDBRANCH   1  19
TORSDOF 2
ENDMDL
MODEL 9
REMARK VINA RESULT:      -6.2      5.029      8.549
REMARK  Name = 
REMARK  2 active torsions:
REMARK  status: ('A' for Active; 'I' for Inactive)
REMARK    1  A    between atoms: S_2  and  C_4
REMARK    2  A    between atoms: S_2  and  N_10
REMARK                            x       y       z     vdW  Elec       q    Type
REMARK                         _______ _______ _______ _____ _____    ______ ____
ROOT
ATOM      1  N   UNL     1       0.302  11.169  20.096  0.00  0.00    +0.000 NA
ATOM      2  C   UNL     1      -1.075  11.532  19.682  0.00  0.00    +0.000 C 
ATOM      3  C   UNL     1      -1.868  12.190  20.809  0.00  0.00    +0.000 C 
ATOM      4  C   UNL     1      -1.137  13.369  21.511  0.00  0.00    +0.000 C 
ATOM      5  C   UNL     1      -1.124  14.656  20.642  0.00  0.00    +0.000 C 
ATOM      6  C   UNL     1      -2.508  15.275  20.456  0.00  0.00    +0.000 C 
ATOM      7  C   UNL     1      -3.203  15.509  21.793  0.00  0.00    +0.000 C 
ATOM      8  N   UNL     1      -3.151  14.311  22.619  0.00  0.00    +0.000 N 
ATOM      9  C   UNL     1      -4.332  13.720  23.015  0.00  0.00    +0.000 A 
ATOM     10  C   UNL     1      -4.429  13.044  24.234  0.00  0.00    +0.000 A 
ATOM     11  C   UNL     1      -5.638  12.475  24.631  0.00  0.00    +0.000 A 
ATOM     12  C   UNL     1      -6.737  12.575  23.796  0.00  0.00    +0.000 A 
ATOM     13  C   UNL     1      -6.574  13.254  22.604  0.00  0.00    +0.000 A 
ATOM     14  N   UNL     1      -5.414  13.829  22.212  0.00  0.00    +0.000 NA
ATOM     15  C   UNL     1      -1.852  13.690  22.854  0.00  0.00    +0.000 C 
ATOM     16  C   UNL     1       0.322  12.946  21.823  0.00  0.00    +0.000 C 
ATOM     17  C   UNL     1       1.041  12.345  20.618  0.00  0.00    +0.000 C 
ENDROOT
BRANCH   1  19
ATOM     18  O   UNL     1      -0.746   9.095  21.169  0.00  0.00    +0.000 OA
ATOM     19  S   UNL     1       0.550   9.714  20.960  0.00  0.00    +0.000 S 
ATOM     20  O   UNL     1       1.417  10.002  22.083  0.00  0.00    +0.000 OA
BRANCH  19  21
ATOM     21  C   UNL     1       1.474   8.699  19.838  0.00  0.00    +0.000 A 
ATOM     22  C   UNL     1       1.718   9.163  18.543  0.00  0.00    +0.000 A 
ATOM     23  C   UNL     1       2.408   8.350  17.643  0.00  0.00    +0.000 A 
ATOM     24  C   UNL     1       2.857   7.089  18.043  0.00  0.00    +0.000 A 
ATOM     25  C   UNL     1       2.642   6.647  19.348  0.00  0.00    +0.000 A 
ATOM     26  C   UNL     1       1.953   7.453  20.254  0.00  0.00    +0.000 A 
ENDBRANCH  19  21
ENDBRANCH   1  19
TORSDOF 2
ENDMDL
