MODEL 1
REMARK VINA RESULT:      -8.0      0.000      0.000
REMARK  Name = 
REMARK  5 active torsions:
REMARK  status: ('A' for Active; 'I' for Inactive)
REMARK    1  A    between atoms: O_1  and  C_2
REMARK    2  A    between atoms: C_4  and  O_5
REMARK    3  A    between atoms: C_9  and  C_10
REMARK    4  A    between atoms: C_13  and  O_14
REMARK    5  A    between atoms: C_15  and  O_16
REMARK                            x       y       z     vdW  Elec       q    Type
REMARK                         _______ _______ _______ _____ _____    ______ ____
ROOT
ATOM      1  C   UNL     1       0.145  10.170  21.660  0.00  0.00    +0.000 A 
ATOM      2  C   UNL     1      -0.105  10.906  20.510  0.00  0.00    +0.000 A 
ATOM      3  C   UNL     1       0.408  10.442  19.307  0.00  0.00    +0.000 A 
ATOM      4  C   UNL     1       1.144   9.249  19.240  0.00  0.00    +0.000 A 
ATOM      5  C   UNL     1       1.790   8.820  18.098  0.00  0.00    +0.000 A 
ATOM      6  C   UNL     1       2.552   7.683  18.212  0.00  0.00    +0.000 A 
ATOM      7  C   UNL     1       2.585   7.000  19.430  0.00  0.00    +0.000 A 
ATOM      8  O   UNL     1       1.965   7.402  20.453  0.00  0.00    +0.000 OA
ATOM      9  C   UNL     1       1.319   8.492  20.417  0.00  0.00    +0.000 A 
ATOM     10  C   UNL     1       0.800   8.943  21.624  0.00  0.00    +0.000 A 
ENDROOT
BRANCH   7  11
ATOM     11  C   UNL     1       3.212   5.669  19.572  0.00  0.00    +0.000 A 
ATOM     12  C   UNL     1       2.521   4.588  20.161  0.00  0.00    +0.000 A 
ATOM     13  C   UNL     1       3.082   3.300  20.208  0.00  0.00    +0.000 A 
ATOM     14  C   UNL     1       4.338   3.084  19.656  0.00  0.00    +0.000 A 
ATOM     15  C   UNL     1       5.040   4.142  19.096  0.00  0.00    +0.000 A 
ATOM     16  C   UNL     1       4.498   5.420  19.055  0.00  0.00    +0.000 A 
BRANCH  14  17
ATOM     17  O   UNL     1       4.923   1.851  19.622  0.00  0.00    +0.000 OA
ATOM     18  H   UNL     1       5.044   1.587  18.694  0.00  0.00    +0.000 HD
ENDBRANCH  14  17
BRANCH  15  19
ATOM     19  O   UNL     1       6.273   3.939  18.548  0.00  0.00    +0.000 OA
ATOM     20  H   UNL     1       6.100   3.482  17.699  0.00  0.00    +0.000 HD
ENDBRANCH  15  19
ENDBRANCH   7  11
BRANCH   1  21
ATOM     21  O   UNL     1      -0.032  10.772  22.871  0.00  0.00    +0.000 OA
ATOM     22  H   UNL     1       0.900  11.031  23.130  0.00  0.00    +0.000 HD
ENDBRANCH   1  21
BRANCH   3  23
ATOM     23  O   UNL     1       0.322  11.243  18.201  0.00  0.00    +0.000 OA
ATOM     24  H   UNL     1      -0.536  11.005  17.786  0.00  0.00    +0.000 HD
ENDBRANCH   3  23
TORSDOF 5
ENDMDL
MODEL 2
REMARK VINA RESULT:      -8.0      1.192      1.201
REMARK  Name = 
REMARK  5 active torsions:
REMARK  status: ('A' for Active; 'I' for Inactive)
REMARK    1  A    between atoms: O_1  and  C_2
REMARK    2  A    between atoms: C_4  and  O_5
REMARK    3  A    between atoms: C_9  and  C_10
REMARK    4  A    between atoms: C_13  and  O_14
REMARK    5  A    between atoms: C_15  and  O_16
REMARK                            x       y       z     vdW  Elec       q    Type
REMARK                         _______ _______ _______ _____ _____    ______ ____
ROOT
ATOM      1  C   UNL     1       0.495   9.737  22.036  0.00  0.00    +0.000 A 
ATOM      2  C   UNL     1       0.335  10.793  21.150  0.00  0.00    +0.000 A 
ATOM      3  C   UNL     1       0.750  10.619  19.836  0.00  0.00    +0.000 A 
ATOM      4  C   UNL     1       1.300   9.403  19.401  0.00  0.00    +0.000 A 
ATOM      5  C   UNL     1       1.852   9.228  18.148  0.00  0.00    +0.000 A 
ATOM      6  C   UNL     1       2.438   8.011  17.899  0.00  0.00    +0.000 A 
ATOM      7  C   UNL     1       2.392   7.015  18.879  0.00  0.00    +0.000 A 
ATOM      8  O   UNL     1       1.858   7.196  20.008  0.00  0.00    +0.000 OA
ATOM      9  C   UNL     1       1.382   8.330  20.312  0.00  0.00    +0.000 A 
ATOM     10  C   UNL     1       0.959   8.492  21.626  0.00  0.00    +0.000 A 
ENDROOT
BRANCH   7  11
ATOM     11  C   UNL     1       2.816   5.625  18.611  0.00  0.00    +0.000 A 
ATOM     12  C   UNL     1       2.024   4.748  17.839  0.00  0.00    +0.000 A 
ATOM     13  C   UNL     1       2.472   3.459  17.506  0.00  0.00    +0.000 A 
ATOM     14  C   UNL     1       3.724   3.041  17.937  0.00  0.00    +0.000 A 
ATOM     15  C   UNL     1       4.504   3.882  18.718  0.00  0.00    +0.000 A 
ATOM     16  C   UNL     1       4.065   5.153  19.061  0.00  0.00    +0.000 A 
BRANCH  14  17
ATOM     17  O   UNL     1       4.244   1.821  17.610  0.00  0.00    +0.000 OA
ATOM     18  H   UNL     1       4.984   1.952  16.992  0.00  0.00    +0.000 HD
ENDBRANCH  14  17
BRANCH  15  19
ATOM     19  O   UNL     1       5.737   3.482  19.143  0.00  0.00    +0.000 OA
ATOM     20  H   UNL     1       5.602   2.578  19.496  0.00  0.00    +0.000 HD
ENDBRANCH  15  19
ENDBRANCH   7  11
BRANCH   1  21
ATOM     21  O   UNL     1       0.433   9.994  23.374  0.00  0.00    +0.000 OA
ATOM     22  H   UNL     1       1.121   9.372  23.753  0.00  0.00    +0.000 HD
ENDBRANCH   1  21
BRANCH   3  23
ATOM     23  O   UNL     1       0.764  11.703  19.001  0.00  0.00    +0.000 OA
ATOM     24  H   UNL     1       1.263  12.391  19.493  0.00  0.00    +0.000 HD
ENDBRANCH   3  23
TORSDOF 5
ENDMDL
MODEL 3
REMARK VINA RESULT:      -7.8      1.208      1.637
REMARK  Name = 
REMARK  5 active torsions:
REMARK  status: ('A' for Active; 'I' for Inactive)
REMARK    1  A    between atoms: O_1  and  C_2
REMARK    2  A    between atoms: C_4  and  O_5
REMARK    3  A    between atoms: C_9  and  C_10
REMARK    4  A    between atoms: C_13  and  O_14
REMARK    5  A    between atoms: C_15  and  O_16
REMARK                            x       y       z     vdW  Elec       q    Type
REMARK                         _______ _______ _______ _____ _____    ______ ____
ROOT
ATOM      1  C   UNL     1       0.586   9.790  21.672  0.00  0.00    +0.000 A 
ATOM      2  C   UNL     1       0.405  10.731  20.667  0.00  0.00    +0.000 A 
ATOM      3  C   UNL     1       0.839  10.418  19.386  0.00  0.00    +0.000 A 
ATOM      4  C   UNL     1       1.428   9.176  19.100  0.00  0.00    +0.000 A 
ATOM      5  C   UNL     1       2.000   8.873  17.880  0.00  0.00    +0.000 A 
ATOM      6  C   UNL     1       2.623   7.653  17.780  0.00  0.00    +0.000 A 
ATOM      7  C   UNL     1       2.596   6.777  18.869  0.00  0.00    +0.000 A 
ATOM      8  O   UNL     1       2.044   7.073  19.965  0.00  0.00    +0.000 OA
ATOM      9  C   UNL     1       1.531   8.220  20.131  0.00  0.00    +0.000 A 
ATOM     10  C   UNL     1       1.090   8.521  21.414  0.00  0.00    +0.000 A 
ENDROOT
BRANCH   7  11
ATOM     11  C   UNL     1       3.063   5.379  18.770  0.00  0.00    +0.000 A 
ATOM     12  C   UNL     1       4.319   4.983  19.278  0.00  0.00    +0.000 A 
ATOM     13  C   UNL     1       4.721   3.637  19.269  0.00  0.00    +0.000 A 
ATOM     14  C   UNL     1       3.862   2.674  18.757  0.00  0.00    +0.000 A 
ATOM     15  C   UNL     1       2.634   3.050  18.229  0.00  0.00    +0.000 A 
ATOM     16  C   UNL     1       2.234   4.379  18.225  0.00  0.00    +0.000 A 
BRANCH  14  17
ATOM     17  O   UNL     1       4.166   1.343  18.759  0.00  0.00    +0.000 OA
ATOM     18  H   UNL     1       4.398   1.073  17.853  0.00  0.00    +0.000 HD
ENDBRANCH  14  17
BRANCH  15  19
ATOM     19  O   UNL     1       1.782   2.111  17.727  0.00  0.00    +0.000 OA
ATOM     20  H   UNL     1       0.940   2.588  17.578  0.00  0.00    +0.000 HD
ENDBRANCH  15  19
ENDBRANCH   7  11
BRANCH   1  21
ATOM     21  O   UNL     1       0.501  10.200  22.971  0.00  0.00    +0.000 OA
ATOM     22  H   UNL     1       1.359   9.865  23.366  0.00  0.00    +0.000 HD
ENDBRANCH   1  21
BRANCH   3  23
ATOM     23  O   UNL     1       0.830  11.396  18.430  0.00  0.00    +0.000 OA
ATOM     24  H   UNL     1       0.166  12.048  18.745  0.00  0.00    +0.000 HD
ENDBRANCH   3  23
TORSDOF 5
ENDMDL
MODEL 4
REMARK VINA RESULT:      -7.7      0.669      1.489
REMARK  Name = 
REMARK  5 active torsions:
REMARK  status: ('A' for Active; 'I' for Inactive)
REMARK    1  A    between atoms: O_1  and  C_2
REMARK    2  A    between atoms: C_4  and  O_5
REMARK    3  A    between atoms: C_9  and  C_10
REMARK    4  A    between atoms: C_13  and  O_14
REMARK    5  A    between atoms: C_15  and  O_16
REMARK                            x       y       z     vdW  Elec       q    Type
REMARK                         _______ _______ _______ _____ _____    ______ ____
ROOT
ATOM      1  C   UNL     1       0.183  10.096  21.741  0.00  0.00    +0.000 A 
ATOM      2  C   UNL     1      -0.058  10.912  20.644  0.00  0.00    +0.000 A 
ATOM      3  C   UNL     1       0.432  10.514  19.408  0.00  0.00    +0.000 A 
ATOM      4  C   UNL     1       1.138   9.310  19.257  0.00  0.00    +0.000 A 
ATOM      5  C   UNL     1       1.763   8.942  18.082  0.00  0.00    +0.000 A 
ATOM      6  C   UNL     1       2.496   7.781  18.115  0.00  0.00    +0.000 A 
ATOM      7  C   UNL     1       2.522   7.019  19.286  0.00  0.00    +0.000 A 
ATOM      8  O   UNL     1       1.921   7.369  20.338  0.00  0.00    +0.000 OA
ATOM      9  C   UNL     1       1.303   8.474  20.381  0.00  0.00    +0.000 A 
ATOM     10  C   UNL     1       0.806   8.859  21.620  0.00  0.00    +0.000 A 
ENDROOT
BRANCH   7  11
ATOM     11  C   UNL     1       3.116   5.666  19.334  0.00  0.00    +0.000 A 
ATOM     12  C   UNL     1       4.206   5.310  18.511  0.00  0.00    +0.000 A 
ATOM     13  C   UNL     1       4.830   4.056  18.626  0.00  0.00    +0.000 A 
ATOM     14  C   UNL     1       4.372   3.152  19.574  0.00  0.00    +0.000 A 
ATOM     15  C   UNL     1       3.285   3.478  20.374  0.00  0.00    +0.000 A 
ATOM     16  C   UNL     1       2.656   4.710  20.260  0.00  0.00    +0.000 A 
BRANCH  14  17
ATOM     17  O   UNL     1       4.960   1.936  19.775  0.00  0.00    +0.000 OA
ATOM     18  H   UNL     1       4.597   1.303  19.131  0.00  0.00    +0.000 HD
ENDBRANCH  14  17
BRANCH  15  19
ATOM     19  O   UNL     1       2.830   2.598  21.312  0.00  0.00    +0.000 OA
ATOM     20  H   UNL     1       1.955   2.306  20.981  0.00  0.00    +0.000 HD
ENDBRANCH  15  19
ENDBRANCH   7  11
BRANCH   1  21
ATOM     21  O   UNL     1       0.032  10.622  22.991  0.00  0.00    +0.000 OA
ATOM     22  H   UNL     1       0.466   9.935  23.576  0.00  0.00    +0.000 HD
ENDBRANCH   1  21
BRANCH   3  23
ATOM     23  O   UNL     1       0.357  11.388  18.358  0.00  0.00    +0.000 OA
ATOM     24  H   UNL     1      -0.605  11.507  18.200  0.00  0.00    +0.000 HD
ENDBRANCH   3  23
TORSDOF 5
ENDMDL
MODEL 5
REMARK VINA RESULT:      -7.6      1.672      1.981
REMARK  Name = 
REMARK  5 active torsions:
REMARK  status: ('A' for Active; 'I' for Inactive)
REMARK    1  A    between atoms: O_1  and  C_2
REMARK    2  A    between atoms: C_4  and  O_5
REMARK    3  A    between atoms: C_9  and  C_10
REMARK    4  A    between atoms: C_13  and  O_14
REMARK    5  A    between atoms: C_15  and  O_16
REMARK                            x       y       z     vdW  Elec       q    Type
REMARK                         _______ _______ _______ _____ _____    ______ ____
ROOT
ATOM      1  C   UNL     1       0.338   9.507  22.298  0.00  0.00    +0.000 A 
ATOM      2  C   UNL     1      -0.347  10.479  21.583  0.00  0.00    +0.000 A 
ATOM      3  C   UNL     1      -0.165  10.537  20.208  0.00  0.00    +0.000 A 
ATOM      4  C   UNL     1       0.672   9.625  19.545  0.00  0.00    +0.000 A 
ATOM      5  C   UNL     1       0.993   9.728  18.206  0.00  0.00    +0.000 A 
ATOM      6  C   UNL     1       1.901   8.819  17.721  0.00  0.00    +0.000 A 
ATOM      7  C   UNL     1       2.396   7.824  18.568  0.00  0.00    +0.000 A 
ATOM      8  O   UNL     1       2.065   7.740  19.783  0.00  0.00    +0.000 OA
ATOM      9  C   UNL     1       1.297   8.608  20.296  0.00  0.00    +0.000 A 
ATOM     10  C   UNL     1       1.112   8.537  21.671  0.00  0.00    +0.000 A 
ENDROOT
BRANCH   7  11
ATOM     11  C   UNL     1       3.211   6.697  18.070  0.00  0.00    +0.000 A 
ATOM     12  C   UNL     1       2.828   5.356  18.290  0.00  0.00    +0.000 A 
ATOM     13  C   UNL     1       3.552   4.288  17.734  0.00  0.00    +0.000 A 
ATOM     14  C   UNL     1       4.662   4.556  16.945  0.00  0.00    +0.000 A 
ATOM     15  C   UNL     1       5.068   5.868  16.741  0.00  0.00    +0.000 A 
ATOM     16  C   UNL     1       4.364   6.928  17.296  0.00  0.00    +0.000 A 
BRANCH  14  17
ATOM     17  O   UNL     1       5.385   3.571  16.334  0.00  0.00    +0.000 OA
ATOM     18  H   UNL     1       5.161   3.561  15.387  0.00  0.00    +0.000 HD
ENDBRANCH  14  17
BRANCH  15  19
ATOM     19  O   UNL     1       6.155   6.141  15.965  0.00  0.00    +0.000 OA
ATOM     20  H   UNL     1       5.794   6.585  15.171  0.00  0.00    +0.000 HD
ENDBRANCH  15  19
ENDBRANCH   7  11
BRANCH   1  21
ATOM     21  O   UNL     1       0.456   9.653  23.649  0.00  0.00    +0.000 OA
ATOM     22  H   UNL     1       1.015   8.863  23.910  0.00  0.00    +0.000 HD
ENDBRANCH   1  21
BRANCH   3  23
ATOM     23  O   UNL     1      -0.691  11.595  19.517  0.00  0.00    +0.000 OA
ATOM     24  H   UNL     1      -0.812  11.260  18.602  0.00  0.00    +0.000 HD
ENDBRANCH   3  23
TORSDOF 5
ENDMDL
MODEL 6
REMARK VINA RESULT:      -7.6      1.556      2.054
REMARK  Name = 
REMARK  5 active torsions:
REMARK  status: ('A' for Active; 'I' for Inactive)
REMARK    1  A    between atoms: O_1  and  C_2
REMARK    2  A    between atoms: C_4  and  O_5
REMARK    3  A    between atoms: C_9  and  C_10
REMARK    4  A    between atoms: C_13  and  O_14
REMARK    5  A    between atoms: C_15  and  O_16
REMARK                            x       y       z     vdW  Elec       q    Type
REMARK                         _______ _______ _______ _____ _____    ______ ____
ROOT
ATOM      1  C   UNL     1       0.396   9.683  22.167  0.00  0.00    +0.000 A 
ATOM      2  C   UNL     1      -0.005  10.783  21.423  0.00  0.00    +0.000 A 
ATOM      3  C   UNL     1       0.304  10.811  20.070  0.00  0.00    +0.000 A 
ATOM      4  C   UNL     1       0.987   9.748  19.457  0.00  0.00    +0.000 A 
ATOM      5  C   UNL     1       1.438   9.791  18.153  0.00  0.00    +0.000 A 
ATOM      6  C   UNL     1       2.174   8.714  17.722  0.00  0.00    +0.000 A 
ATOM      7  C   UNL     1       2.373   7.631  18.582  0.00  0.00    +0.000 A 
ATOM      8  O   UNL     1       1.928   7.610  19.763  0.00  0.00    +0.000 OA
ATOM      9  C   UNL     1       1.317   8.616  20.231  0.00  0.00    +0.000 A 
ATOM     10  C   UNL     1       1.002   8.576  21.583  0.00  0.00    +0.000 A 
ENDROOT
BRANCH   7  11
ATOM     11  C   UNL     1       2.975   6.361  18.126  0.00  0.00    +0.000 A 
ATOM     12  C   UNL     1       4.362   6.245  17.890  0.00  0.00    +0.000 A 
ATOM     13  C   UNL     1       4.946   5.013  17.549  0.00  0.00    +0.000 A 
ATOM     14  C   UNL     1       4.144   3.884  17.450  0.00  0.00    +0.000 A 
ATOM     15  C   UNL     1       2.774   3.987  17.654  0.00  0.00    +0.000 A 
ATOM     16  C   UNL     1       2.188   5.202  17.981  0.00  0.00    +0.000 A 
BRANCH  14  17
ATOM     17  O   UNL     1       4.648   2.647  17.171  0.00  0.00    +0.000 OA
ATOM     18  H   UNL     1       4.422   2.044  17.901  0.00  0.00    +0.000 HD
ENDBRANCH  14  17
BRANCH  15  19
ATOM     19  O   UNL     1       1.979   2.882  17.563  0.00  0.00    +0.000 OA
ATOM     20  H   UNL     1       1.641   2.739  18.471  0.00  0.00    +0.000 HD
ENDBRANCH  15  19
ENDBRANCH   7  11
BRANCH   1  21
ATOM     21  O   UNL     1       0.424   9.791  23.527  0.00  0.00    +0.000 OA
ATOM     22  H   UNL     1       0.262  10.768  23.677  0.00  0.00    +0.000 HD
ENDBRANCH   1  21
BRANCH   3  23
ATOM     23  O   UNL     1       0.074  11.960  19.365  0.00  0.00    +0.000 OA
ATOM     24  H   UNL     1      -0.574  12.461  19.907  0.00  0.00    +0.000 HD
ENDBRANCH   3  23
TORSDOF 5
ENDMDL
MODEL 7
REMARK VINA RESULT:      -7.4      1.265      2.023
REMARK  Name = 
REMARK  5 active torsions:
REMARK  status: ('A' for Active; 'I' for Inactive)
REMARK    1  A    between atoms: O_1  and  C_2
REMARK    2  A    between atoms: C_4  and  O_5
REMARK    3  A    between atoms: C_9  and  C_10
REMARK    4  A    between atoms: C_13  and  O_14
REMARK    5  A    between atoms: C_15  and  O_16
REMARK                            x       y       z     vdW  Elec       q    Type
REMARK                         _______ _______ _______ _____ _____    ______ ____
ROOT
ATOM      1  C   UNL     1       0.351   9.444  22.208  0.00  0.00    +0.000 A 
ATOM      2  C   UNL     1      -0.354  10.371  21.453  0.00  0.00    +0.000 A 
ATOM      3  C   UNL     1      -0.127  10.413  20.084  0.00  0.00    +0.000 A 
ATOM      4  C   UNL     1       0.774   9.532  19.467  0.00  0.00    +0.000 A 
ATOM      5  C   UNL     1       1.136   9.627  18.138  0.00  0.00    +0.000 A 
ATOM      6  C   UNL     1       2.102   8.754  17.700  0.00  0.00    +0.000 A 
ATOM      7  C   UNL     1       2.613   7.798  18.582  0.00  0.00    +0.000 A 
ATOM      8  O   UNL     1       2.245   7.719  19.786  0.00  0.00    +0.000 OA
ATOM      9  C   UNL     1       1.420   8.558  20.256  0.00  0.00    +0.000 A 
ATOM     10  C   UNL     1       1.191   8.501  21.625  0.00  0.00    +0.000 A 
ENDROOT
BRANCH   7  11
ATOM     11  C   UNL     1       3.497   6.702  18.132  0.00  0.00    +0.000 A 
ATOM     12  C   UNL     1       4.096   6.716  16.854  0.00  0.00    +0.000 A 
ATOM     13  C   UNL     1       5.012   5.723  16.465  0.00  0.00    +0.000 A 
ATOM     14  C   UNL     1       5.340   4.713  17.358  0.00  0.00    +0.000 A 
ATOM     15  C   UNL     1       4.740   4.671  18.609  0.00  0.00    +0.000 A 
ATOM     16  C   UNL     1       3.827   5.641  18.998  0.00  0.00    +0.000 A 
BRANCH  14  17
ATOM     17  O   UNL     1       6.257   3.744  17.066  0.00  0.00    +0.000 OA
ATOM     18  H   UNL     1       5.790   2.899  16.942  0.00  0.00    +0.000 HD
ENDBRANCH  14  17
BRANCH  15  19
ATOM     19  O   UNL     1       5.059   3.684  19.495  0.00  0.00    +0.000 OA
ATOM     20  H   UNL     1       4.804   4.039  20.372  0.00  0.00    +0.000 HD
ENDBRANCH  15  19
ENDBRANCH   7  11
BRANCH   1  21
ATOM     21  O   UNL     1       0.416   9.618  23.559  0.00  0.00    +0.000 OA
ATOM     22  H   UNL     1       0.467  10.614  23.654  0.00  0.00    +0.000 HD
ENDBRANCH   1  21
BRANCH   3  23
ATOM     23  O   UNL     1      -0.678  11.433  19.356  0.00  0.00    +0.000 OA
ATOM     24  H   UNL     1      -0.377  11.273  18.435  0.00  0.00    +0.000 HD
ENDBRANCH   3  23
TORSDOF 5
ENDMDL
MODEL 8
REMARK VINA RESULT:      -7.3      4.120      6.483
REMARK  Name = 
REMARK  5 active torsions:
REMARK  status: ('A' for Active; 'I' for Inactive)
REMARK    1  A    between atoms: O_1  and  C_2
REMARK    2  A    between atoms: C_4  and  O_5
REMARK    3  A    between atoms: C_9  and  C_10
REMARK    4  A    between atoms: C_13  and  O_14
REMARK    5  A    between atoms: C_15  and  O_16
REMARK                            x       y       z     vdW  Elec       q    Type
REMARK                         _______ _______ _______ _____ _____    ______ ____
ROOT
ATOM      1  C   UNL     1       1.253   2.877  18.818  0.00  0.00    +0.000 A 
ATOM      2  C   UNL     1       1.382   3.796  19.850  0.00  0.00    +0.000 A 
ATOM      3  C   UNL     1       2.426   4.709  19.792  0.00  0.00    +0.000 A 
ATOM      4  C   UNL     1       3.320   4.725  18.710  0.00  0.00    +0.000 A 
ATOM      5  C   UNL     1       4.451   5.517  18.674  0.00  0.00    +0.000 A 
ATOM      6  C   UNL     1       5.282   5.353  17.593  0.00  0.00    +0.000 A 
ATOM      7  C   UNL     1       4.921   4.460  16.580  0.00  0.00    +0.000 A 
ATOM      8  O   UNL     1       3.868   3.766  16.629  0.00  0.00    +0.000 OA
ATOM      9  C   UNL     1       3.115   3.822  17.646  0.00  0.00    +0.000 A 
ATOM     10  C   UNL     1       2.067   2.911  17.691  0.00  0.00    +0.000 A 
ENDROOT
BRANCH   7  11
ATOM     11  C   UNL     1       5.655   4.381  15.300  0.00  0.00    +0.000 A 
ATOM     12  C   UNL     1       5.156   3.637  14.209  0.00  0.00    +0.000 A 
ATOM     13  C   UNL     1       5.806   3.641  12.963  0.00  0.00    +0.000 A 
ATOM     14  C   UNL     1       6.958   4.399  12.798  0.00  0.00    +0.000 A 
ATOM     15  C   UNL     1       7.475   5.115  13.869  0.00  0.00    +0.000 A 
ATOM     16  C   UNL     1       6.846   5.108  15.106  0.00  0.00    +0.000 A 
BRANCH  14  17
ATOM     17  O   UNL     1       7.614   4.488  11.604  0.00  0.00    +0.000 OA
ATOM     18  H   UNL     1       7.178   5.165  11.057  0.00  0.00    +0.000 HD
ENDBRANCH  14  17
BRANCH  15  19
ATOM     19  O   UNL     1       8.604   5.865  13.716  0.00  0.00    +0.000 OA
ATOM     20  H   UNL     1       9.344   5.234  13.829  0.00  0.00    +0.000 HD
ENDBRANCH  15  19
ENDBRANCH   7  11
BRANCH   1  21
ATOM     21  O   UNL     1       0.480   1.771  19.022  0.00  0.00    +0.000 OA
ATOM     22  H   UNL     1      -0.277   2.127  19.572  0.00  0.00    +0.000 HD
ENDBRANCH   1  21
BRANCH   3  23
ATOM     23  O   UNL     1       2.671   5.499  20.881  0.00  0.00    +0.000 OA
ATOM     24  H   UNL     1       2.576   6.419  20.550  0.00  0.00    +0.000 HD
ENDBRANCH   3  23
TORSDOF 5
ENDMDL
MODEL 9
REMARK VINA RESULT:      -7.3      2.026      7.183
REMARK  Name = 
REMARK  5 active torsions:
REMARK  status: ('A' for Active; 'I' for Inactive)
REMARK    1  A    between atoms: O_1  and  C_2
REMARK    2  A    between atoms: C_4  and  O_5
REMARK    3  A    between atoms: C_9  and  C_10
REMARK    4  A    between atoms: C_13  and  O_14
REMARK    5  A    between atoms: C_15  and  O_16
REMARK                            x       y       z     vdW  Elec       q    Type
REMARK                         _______ _______ _______ _____ _____    ______ ____
ROOT
ATOM      1  C   UNL     1       6.145   5.496  16.057  0.00  0.00    +0.000 A 
ATOM      2  C   UNL     1       5.839   4.150  16.200  0.00  0.00    +0.000 A 
ATOM      3  C   UNL     1       4.755   3.803  16.996  0.00  0.00    +0.000 A 
ATOM      4  C   UNL     1       3.970   4.782  17.626  0.00  0.00    +0.000 A 
ATOM      5  C   UNL     1       2.974   4.485  18.534  0.00  0.00    +0.000 A 
ATOM      6  C   UNL     1       2.357   5.551  19.140  0.00  0.00    +0.000 A 
ATOM      7  C   UNL     1       2.717   6.851  18.773  0.00  0.00    +0.000 A 
ATOM      8  O   UNL     1       3.616   7.093  17.922  0.00  0.00    +0.000 OA
ATOM      9  C   UNL     1       4.270   6.142  17.400  0.00  0.00    +0.000 A 
ATOM     10  C   UNL     1       5.347   6.498  16.597  0.00  0.00    +0.000 A 
ENDROOT
BRANCH   7  11
ATOM     11  C   UNL     1       1.961   8.037  19.229  0.00  0.00    +0.000 A 
ATOM     12  C   UNL     1       1.483   8.143  20.553  0.00  0.00    +0.000 A 
ATOM     13  C   UNL     1       0.850   9.311  21.010  0.00  0.00    +0.000 A 
ATOM     14  C   UNL     1       0.698  10.386  20.146  0.00  0.00    +0.000 A 
ATOM     15  C   UNL     1       1.140  10.288  18.833  0.00  0.00    +0.000 A 
ATOM     16  C   UNL     1       1.757   9.134  18.370  0.00  0.00    +0.000 A 
BRANCH  14  17
ATOM     17  O   UNL     1       0.137  11.568  20.535  0.00  0.00    +0.000 OA
ATOM     18  H   UNL     1       0.795  12.076  21.041  0.00  0.00    +0.000 HD
ENDBRANCH  14  17
BRANCH  15  19
ATOM     19  O   UNL     1       0.999  11.341  17.977  0.00  0.00    +0.000 OA
ATOM     20  H   UNL     1       0.140  11.190  17.531  0.00  0.00    +0.000 HD
ENDBRANCH  15  19
ENDBRANCH   7  11
BRANCH   1  21
ATOM     21  O   UNL     1       7.381   5.837  15.591  0.00  0.00    +0.000 OA
ATOM     22  H   UNL     1       7.973   5.664  16.381  0.00  0.00    +0.000 HD
ENDBRANCH   1  21
BRANCH   3  23
ATOM     23  O   UNL     1       4.550   2.483  17.290  0.00  0.00    +0.000 OA
ATOM     24  H   UNL     1       3.743   2.474  17.849  0.00  0.00    +0.000 HD
ENDBRANCH   3  23
TORSDOF 5
ENDMDL
