MODEL 1
REMARK VINA RESULT:      -5.0      0.000      0.000
REMARK  Name = 
REMARK  4 active torsions:
REMARK  status: ('A' for Active; 'I' for Inactive)
REMARK    1  A    between atoms: C_2  and  O_3
REMARK    2  A    between atoms: C_2  and  C_4
REMARK    3  A    between atoms: C_6  and  O_7
REMARK    4  A    between atoms: C_6  and  O_8
REMARK                            x       y       z     vdW  Elec       q    Type
REMARK                         _______ _______ _______ _____ _____    ______ ____
ROOT
ATOM      1  C   UNL     1       6.639   5.323  18.060  0.00  0.00    +0.000 C 
ATOM      2  C   UNL     1       7.370   4.524  16.985  0.00  0.00    +0.000 C 
ATOM      3  C   UNL     1       6.748   4.778  15.601  0.00  0.00    +0.000 C 
ATOM      4  C   UNL     1       5.538   5.714  15.705  0.00  0.00    +0.000 C 
ATOM      5  S   UNL     1       5.847   6.703  17.186  0.00  0.00    +0.000 S 
ENDROOT
BRANCH   1   7
ATOM      6  O   UNL     1       7.631   5.306  20.275  0.00  0.00    +0.000 OA
ATOM      7  C   UNL     1       7.573   5.808  19.160  0.00  0.00    +0.000 C 
BRANCH   7   8
ATOM      8  O   UNL     1       8.293   6.907  18.834  0.00  0.00    +0.000 OA
ATOM      9  H   UNL     1       8.712   7.307  19.628  0.00  0.00    +0.000 HD
ENDBRANCH   7   8
ENDBRANCH   1   7
BRANCH   3  10
ATOM     10  O   UNL     1       7.712   5.371  14.742  0.00  0.00    +0.000 OA
ATOM     11  H   UNL     1       7.275   5.592  13.902  0.00  0.00    +0.000 HD
ENDBRANCH   3  10
BRANCH   3  12
ATOM     12  O   UNL     1       6.391   3.529  15.032  0.00  0.00    +0.000 OA
ATOM     13  H   UNL     1       5.730   3.099  15.596  0.00  0.00    +0.000 HD
ENDBRANCH   3  12
TORSDOF 4
ENDMDL
MODEL 2
REMARK VINA RESULT:      -5.0      1.310      4.021
REMARK  Name = 
REMARK  4 active torsions:
REMARK  status: ('A' for Active; 'I' for Inactive)
REMARK    1  A    between atoms: C_2  and  O_3
REMARK    2  A    between atoms: C_2  and  C_4
REMARK    3  A    between atoms: C_6  and  O_7
REMARK    4  A    between atoms: C_6  and  O_8
REMARK                            x       y       z     vdW  Elec       q    Type
REMARK                         _______ _______ _______ _____ _____    ______ ____
ROOT
ATOM      1  C   UNL     1       6.710   5.499  16.319  0.00  0.00    +0.000 C 
ATOM      2  C   UNL     1       7.222   4.703  17.517  0.00  0.00    +0.000 C 
ATOM      3  C   UNL     1       6.246   4.814  18.701  0.00  0.00    +0.000 C 
ATOM      4  C   UNL     1       5.070   5.738  18.360  0.00  0.00    +0.000 C 
ATOM      5  S   UNL     1       4.917   5.643  16.562  0.00  0.00    +0.000 S 
ENDROOT
BRANCH   1   7
ATOM      6  O   UNL     1       7.744   5.361  14.128  0.00  0.00    +0.000 OA
ATOM      7  C   UNL     1       7.053   4.837  14.992  0.00  0.00    +0.000 C 
BRANCH   7   8
ATOM      8  O   UNL     1       6.461   3.635  14.801  0.00  0.00    +0.000 OA
ATOM      9  H   UNL     1       6.987   2.910  15.206  0.00  0.00    +0.000 HD
ENDBRANCH   7   8
ENDBRANCH   1   7
BRANCH   3  10
ATOM     10  O   UNL     1       5.737   3.529  19.028  0.00  0.00    +0.000 OA
ATOM     11  H   UNL     1       4.767   3.568  18.992  0.00  0.00    +0.000 HD
ENDBRANCH   3  10
BRANCH   3  12
ATOM     12  O   UNL     1       6.963   5.281  19.832  0.00  0.00    +0.000 OA
ATOM     13  H   UNL     1       7.575   5.980  19.555  0.00  0.00    +0.000 HD
ENDBRANCH   3  12
TORSDOF 4
ENDMDL
MODEL 3
REMARK VINA RESULT:      -4.9      0.277      1.044
REMARK  Name = 
REMARK  4 active torsions:
REMARK  status: ('A' for Active; 'I' for Inactive)
REMARK    1  A    between atoms: C_2  and  O_3
REMARK    2  A    between atoms: C_2  and  C_4
REMARK    3  A    between atoms: C_6  and  O_7
REMARK    4  A    between atoms: C_6  and  O_8
REMARK                            x       y       z     vdW  Elec       q    Type
REMARK                         _______ _______ _______ _____ _____    ______ ____
ROOT
ATOM      1  C   UNL     1       6.720   5.461  18.136  0.00  0.00    +0.000 C 
ATOM      2  C   UNL     1       7.399   4.558  17.109  0.00  0.00    +0.000 C 
ATOM      3  C   UNL     1       6.653   4.606  15.765  0.00  0.00    +0.000 C 
ATOM      4  C   UNL     1       5.410   5.499  15.856  0.00  0.00    +0.000 C 
ATOM      5  S   UNL     1       5.789   6.682  17.168  0.00  0.00    +0.000 S 
ENDROOT
BRANCH   1   7
ATOM      6  O   UNL     1       8.377   7.109  18.789  0.00  0.00    +0.000 OA
ATOM      7  C   UNL     1       7.715   6.121  19.079  0.00  0.00    +0.000 C 
BRANCH   7   8
ATOM      8  O   UNL     1       7.875   5.476  20.259  0.00  0.00    +0.000 OA
ATOM      9  H   UNL     1       7.119   5.644  20.863  0.00  0.00    +0.000 HD
ENDBRANCH   7   8
ENDBRANCH   1   7
BRANCH   3  10
ATOM     10  O   UNL     1       7.512   5.121  14.757  0.00  0.00    +0.000 OA
ATOM     11  H   UNL     1       7.943   5.920  15.104  0.00  0.00    +0.000 HD
ENDBRANCH   3  10
BRANCH   3  12
ATOM     12  O   UNL     1       6.315   3.281  15.391  0.00  0.00    +0.000 OA
ATOM     13  H   UNL     1       5.584   2.969  15.947  0.00  0.00    +0.000 HD
ENDBRANCH   3  12
TORSDOF 4
ENDMDL
MODEL 4
REMARK VINA RESULT:      -4.9      1.291      3.904
REMARK  Name = 
REMARK  4 active torsions:
REMARK  status: ('A' for Active; 'I' for Inactive)
REMARK    1  A    between atoms: C_2  and  O_3
REMARK    2  A    between atoms: C_2  and  C_4
REMARK    3  A    between atoms: C_6  and  O_7
REMARK    4  A    between atoms: C_6  and  O_8
REMARK                            x       y       z     vdW  Elec       q    Type
REMARK                         _______ _______ _______ _____ _____    ______ ____
ROOT
ATOM      1  C   UNL     1       6.711   5.530  16.303  0.00  0.00    +0.000 C 
ATOM      2  C   UNL     1       7.211   4.698  17.481  0.00  0.00    +0.000 C 
ATOM      3  C   UNL     1       6.274   4.849  18.691  0.00  0.00    +0.000 C 
ATOM      4  C   UNL     1       5.138   5.835  18.388  0.00  0.00    +0.000 C 
ATOM      5  S   UNL     1       4.934   5.765  16.594  0.00  0.00    +0.000 S 
ENDROOT
BRANCH   1   7
ATOM      6  O   UNL     1       6.503   3.790  14.624  0.00  0.00    +0.000 OA
ATOM      7  C   UNL     1       6.984   4.863  14.962  0.00  0.00    +0.000 C 
BRANCH   7   8
ATOM      8  O   UNL     1       7.879   5.520  14.187  0.00  0.00    +0.000 OA
ATOM      9  H   UNL     1       8.555   5.979  14.733  0.00  0.00    +0.000 HD
ENDBRANCH   7   8
ENDBRANCH   1   7
BRANCH   3  10
ATOM     10  O   UNL     1       5.707   3.589  19.021  0.00  0.00    +0.000 OA
ATOM     11  H   UNL     1       6.343   2.896  18.774  0.00  0.00    +0.000 HD
ENDBRANCH   3  10
BRANCH   3  12
ATOM     12  O   UNL     1       7.042   5.269  19.806  0.00  0.00    +0.000 OA
ATOM     13  H   UNL     1       7.945   4.924  19.719  0.00  0.00    +0.000 HD
ENDBRANCH   3  12
TORSDOF 4
ENDMDL
MODEL 5
REMARK VINA RESULT:      -4.9      2.658      3.828
REMARK  Name = 
REMARK  4 active torsions:
REMARK  status: ('A' for Active; 'I' for Inactive)
REMARK    1  A    between atoms: C_2  and  O_3
REMARK    2  A    between atoms: C_2  and  C_4
REMARK    3  A    between atoms: C_6  and  O_7
REMARK    4  A    between atoms: C_6  and  O_8
REMARK                            x       y       z     vdW  Elec       q    Type
REMARK                         _______ _______ _______ _____ _____    ______ ____
ROOT
ATOM      1  C   UNL     1       4.562   4.501  17.353  0.00  0.00    +0.000 C 
ATOM      2  C   UNL     1       5.747   4.331  16.406  0.00  0.00    +0.000 C 
ATOM      3  C   UNL     1       6.991   5.050  16.957  0.00  0.00    +0.000 C 
ATOM      4  C   UNL     1       6.670   5.778  18.268  0.00  0.00    +0.000 C 
ATOM      5  S   UNL     1       5.286   4.859  18.979  0.00  0.00    +0.000 S 
ENDROOT
BRANCH   1   7
ATOM      6  O   UNL     1       2.514   3.257  16.969  0.00  0.00    +0.000 OA
ATOM      7  C   UNL     1       3.664   3.273  17.387  0.00  0.00    +0.000 C 
BRANCH   7   8
ATOM      8  O   UNL     1       4.216   2.198  17.998  0.00  0.00    +0.000 OA
ATOM      9  H   UNL     1       4.397   1.476  17.356  0.00  0.00    +0.000 HD
ENDBRANCH   7   8
ENDBRANCH   1   7
BRANCH   3  10
ATOM     10  O   UNL     1       8.024   4.105  17.201  0.00  0.00    +0.000 OA
ATOM     11  H   UNL     1       8.345   3.778  16.343  0.00  0.00    +0.000 HD
ENDBRANCH   3  10
BRANCH   3  12
ATOM     12  O   UNL     1       7.468   5.946  15.967  0.00  0.00    +0.000 OA
ATOM     13  H   UNL     1       8.333   5.641  15.652  0.00  0.00    +0.000 HD
ENDBRANCH   3  12
TORSDOF 4
ENDMDL
MODEL 6
REMARK VINA RESULT:      -4.8      5.352      5.827
REMARK  Name = 
REMARK  4 active torsions:
REMARK  status: ('A' for Active; 'I' for Inactive)
REMARK    1  A    between atoms: C_2  and  O_3
REMARK    2  A    between atoms: C_2  and  C_4
REMARK    3  A    between atoms: C_6  and  O_7
REMARK    4  A    between atoms: C_6  and  O_8
REMARK                            x       y       z     vdW  Elec       q    Type
REMARK                         _______ _______ _______ _____ _____    ______ ____
ROOT
ATOM      1  C   UNL     1       3.122   2.456  20.289  0.00  0.00    +0.000 C 
ATOM      2  C   UNL     1       2.471   2.053  18.969  0.00  0.00    +0.000 C 
ATOM      3  C   UNL     1       1.260   2.949  18.663  0.00  0.00    +0.000 C 
ATOM      4  C   UNL     1       1.017   3.953  19.797  0.00  0.00    +0.000 C 
ATOM      5  S   UNL     1       2.638   4.185  20.561  0.00  0.00    +0.000 S 
ENDROOT
BRANCH   1   7
ATOM      6  O   UNL     1       5.255   1.616  21.085  0.00  0.00    +0.000 OA
ATOM      7  C   UNL     1       4.634   2.285  20.269  0.00  0.00    +0.000 C 
BRANCH   7   8
ATOM      8  O   UNL     1       5.262   3.006  19.311  0.00  0.00    +0.000 OA
ATOM      9  H   UNL     1       6.161   2.651  19.129  0.00  0.00    +0.000 HD
ENDBRANCH   7   8
ENDBRANCH   1   7
BRANCH   3  10
ATOM     10  O   UNL     1       1.486   3.669  17.458  0.00  0.00    +0.000 OA
ATOM     11  H   UNL     1       1.330   3.067  16.711  0.00  0.00    +0.000 HD
ENDBRANCH   3  10
BRANCH   3  12
ATOM     12  O   UNL     1       0.129   2.121  18.450  0.00  0.00    +0.000 OA
ATOM     13  H   UNL     1       0.320   1.230  18.782  0.00  0.00    +0.000 HD
ENDBRANCH   3  12
TORSDOF 4
ENDMDL
MODEL 7
REMARK VINA RESULT:      -4.8      2.796      3.901
REMARK  Name = 
REMARK  4 active torsions:
REMARK  status: ('A' for Active; 'I' for Inactive)
REMARK    1  A    between atoms: C_2  and  O_3
REMARK    2  A    between atoms: C_2  and  C_4
REMARK    3  A    between atoms: C_6  and  O_7
REMARK    4  A    between atoms: C_6  and  O_8
REMARK                            x       y       z     vdW  Elec       q    Type
REMARK                         _______ _______ _______ _____ _____    ______ ____
ROOT
ATOM      1  C   UNL     1       5.757   5.108  17.403  0.00  0.00    +0.000 C 
ATOM      2  C   UNL     1       5.647   4.679  18.864  0.00  0.00    +0.000 C 
ATOM      3  C   UNL     1       4.466   3.714  19.060  0.00  0.00    +0.000 C 
ATOM      4  C   UNL     1       3.702   3.504  17.747  0.00  0.00    +0.000 C 
ATOM      5  S   UNL     1       4.924   3.806  16.450  0.00  0.00    +0.000 S 
ENDROOT
BRANCH   1   7
ATOM      6  O   UNL     1       7.611   6.308  16.398  0.00  0.00    +0.000 OA
ATOM      7  C   UNL     1       7.200   5.301  16.960  0.00  0.00    +0.000 C 
BRANCH   7   8
ATOM      8  O   UNL     1       7.995   4.225  17.167  0.00  0.00    +0.000 OA
ATOM      9  H   UNL     1       7.553   3.561  17.741  0.00  0.00    +0.000 HD
ENDBRANCH   7   8
ENDBRANCH   1   7
BRANCH   3  10
ATOM     10  O   UNL     1       4.943   2.456  19.516  0.00  0.00    +0.000 OA
ATOM     11  H   UNL     1       5.628   2.616  20.186  0.00  0.00    +0.000 HD
ENDBRANCH   3  10
BRANCH   3  12
ATOM     12  O   UNL     1       3.623   4.235  20.074  0.00  0.00    +0.000 OA
ATOM     13  H   UNL     1       3.232   3.501  20.572  0.00  0.00    +0.000 HD
ENDBRANCH   3  12
TORSDOF 4
ENDMDL
MODEL 8
REMARK VINA RESULT:      -4.8      5.334      5.885
REMARK  Name = 
REMARK  4 active torsions:
REMARK  status: ('A' for Active; 'I' for Inactive)
REMARK    1  A    between atoms: C_2  and  O_3
REMARK    2  A    between atoms: C_2  and  C_4
REMARK    3  A    between atoms: C_6  and  O_7
REMARK    4  A    between atoms: C_6  and  O_8
REMARK                            x       y       z     vdW  Elec       q    Type
REMARK                         _______ _______ _______ _____ _____    ______ ____
ROOT
ATOM      1  C   UNL     1       3.186   2.583  20.069  0.00  0.00    +0.000 C 
ATOM      2  C   UNL     1       2.475   2.259  18.757  0.00  0.00    +0.000 C 
ATOM      3  C   UNL     1       1.140   3.016  18.660  0.00  0.00    +0.000 C 
ATOM      4  C   UNL     1       0.877   3.834  19.930  0.00  0.00    +0.000 C 
ATOM      5  S   UNL     1       2.519   4.187  20.598  0.00  0.00    +0.000 S 
ENDROOT
BRANCH   1   7
ATOM      6  O   UNL     1       5.314   3.563  19.437  0.00  0.00    +0.000 OA
ATOM      7  C   UNL     1       4.700   2.619  19.917  0.00  0.00    +0.000 C 
BRANCH   7   8
ATOM      8  O   UNL     1       5.323   1.475  20.286  0.00  0.00    +0.000 OA
ATOM      9  H   UNL     1       5.242   1.322  21.254  0.00  0.00    +0.000 HD
ENDBRANCH   7   8
ENDBRANCH   1   7
BRANCH   3  10
ATOM     10  O   UNL     1       1.168   3.898  17.546  0.00  0.00    +0.000 OA
ATOM     11  H   UNL     1       0.454   3.643  16.939  0.00  0.00    +0.000 HD
ENDBRANCH   3  10
BRANCH   3  12
ATOM     12  O   UNL     1       0.105   2.076  18.424  0.00  0.00    +0.000 OA
ATOM     13  H   UNL     1      -0.144   1.660  19.264  0.00  0.00    +0.000 HD
ENDBRANCH   3  12
TORSDOF 4
ENDMDL
MODEL 9
REMARK VINA RESULT:      -4.8      4.943      5.837
REMARK  Name = 
REMARK  4 active torsions:
REMARK  status: ('A' for Active; 'I' for Inactive)
REMARK    1  A    between atoms: C_2  and  O_3
REMARK    2  A    between atoms: C_2  and  C_4
REMARK    3  A    between atoms: C_6  and  O_7
REMARK    4  A    between atoms: C_6  and  O_8
REMARK                            x       y       z     vdW  Elec       q    Type
REMARK                         _______ _______ _______ _____ _____    ______ ____
ROOT
ATOM      1  C   UNL     1       2.101   3.651  18.672  0.00  0.00    +0.000 C 
ATOM      2  C   UNL     1       3.302   2.784  18.305  0.00  0.00    +0.000 C 
ATOM      3  C   UNL     1       4.616   3.485  18.691  0.00  0.00    +0.000 C 
ATOM      4  C   UNL     1       4.347   4.875  19.280  0.00  0.00    +0.000 C 
ATOM      5  S   UNL     1       2.686   4.764  19.982  0.00  0.00    +0.000 S 
ENDROOT
BRANCH   1   7
ATOM      6  O   UNL     1       0.314   2.033  18.396  0.00  0.00    +0.000 OA
ATOM      7  C   UNL     1       0.903   2.826  19.119  0.00  0.00    +0.000 C 
BRANCH   7   8
ATOM      8  O   UNL     1       0.480   3.095  20.376  0.00  0.00    +0.000 OA
ATOM      9  H   UNL     1      -0.117   2.390  20.711  0.00  0.00    +0.000 HD
ENDBRANCH   7   8
ENDBRANCH   1   7
BRANCH   3  10
ATOM     10  O   UNL     1       5.310   2.707  19.657  0.00  0.00    +0.000 OA
ATOM     11  H   UNL     1       6.180   2.474  19.291  0.00  0.00    +0.000 HD
ENDBRANCH   3  10
BRANCH   3  12
ATOM     12  O   UNL     1       5.442   3.559  17.541  0.00  0.00    +0.000 OA
ATOM     13  H   UNL     1       5.840   2.689  17.379  0.00  0.00    +0.000 HD
ENDBRANCH   3  12
TORSDOF 4
ENDMDL
