MODEL 1
REMARK VINA RESULT:      -7.5      0.000      0.000
REMARK  Name = 
REMARK  4 active torsions:
REMARK  status: ('A' for Active; 'I' for Inactive)
REMARK    1  A    between atoms: C_1  and  C_2
REMARK    2  A    between atoms: C_2  and  C_3
REMARK    3  A    between atoms: C_3  and  S_4
REMARK    4  A    between atoms: S_4  and  N_7
REMARK                            x       y       z     vdW  Elec       q    Type
REMARK                         _______ _______ _______ _____ _____    ______ ____
ROOT
ATOM      1  N   UNL     1       3.127   3.727  18.595  0.00  0.00    +0.000 NA
ATOM      2  C   UNL     1       2.993   4.297  17.240  0.00  0.00    +0.000 C 
ATOM      3  C   UNL     1       4.005   5.431  17.236  0.00  0.00    +0.000 C 
ATOM      4  C   UNL     1       5.199   4.876  18.036  0.00  0.00    +0.000 C 
ATOM      5  C   UNL     1       5.966   6.005  18.763  0.00  0.00    +0.000 C 
ATOM      6  C   UNL     1       6.734   6.906  17.792  0.00  0.00    +0.000 C 
ATOM      7  C   UNL     1       7.659   6.089  16.888  0.00  0.00    +0.000 C 
ATOM      8  N   UNL     1       6.872   5.046  16.253  0.00  0.00    +0.000 N 
ATOM      9  C   UNL     1       6.995   4.784  14.911  0.00  0.00    +0.000 A 
ATOM     10  N   UNL     1       7.850   5.511  14.171  0.00  0.00    +0.000 NA
ATOM     11  C   UNL     1       7.902   5.264  12.842  0.00  0.00    +0.000 A 
ATOM     12  C   UNL     1       7.125   4.323  12.224  0.00  0.00    +0.000 A 
ATOM     13  F   UNL     1       7.179   4.108  10.906  0.00  0.00    +0.000 F 
ATOM     14  C   UNL     1       6.280   3.626  13.041  0.00  0.00    +0.000 A 
ATOM     15  N   UNL     1       6.202   3.837  14.371  0.00  0.00    +0.000 NA
ATOM     16  C   UNL     1       6.182   4.104  17.126  0.00  0.00    +0.000 C 
ATOM     17  C   UNL     1       4.539   3.908  19.040  0.00  0.00    +0.000 C 
ENDROOT
BRANCH   1  18
ATOM     18  S   UNL     1       2.470   2.193  18.876  0.00  0.00    +0.000 S 
ATOM     19  O   UNL     1       3.514   1.229  18.592  0.00  0.00    +0.000 OA
ATOM     20  O   UNL     1       1.194   2.131  18.198  0.00  0.00    +0.000 OA
BRANCH  18  21
ATOM     21  C   UNL     1       2.194   2.212  20.651  0.00  0.00    +0.000 C 
BRANCH  21  23
ATOM     22  C   UNL     1       1.566   4.636  21.006  0.00  0.00    +0.000 C 
ATOM     23  C   UNL     1       1.083   3.195  21.009  0.00  0.00    +0.000 C 
ENDBRANCH  21  23
ENDBRANCH  18  21
ENDBRANCH   1  18
TORSDOF 3
ENDMDL
MODEL 2
REMARK VINA RESULT:      -7.5      4.138      7.155
REMARK  Name = 
REMARK  4 active torsions:
REMARK  status: ('A' for Active; 'I' for Inactive)
REMARK    1  A    between atoms: C_1  and  C_2
REMARK    2  A    between atoms: C_2  and  C_3
REMARK    3  A    between atoms: C_3  and  S_4
REMARK    4  A    between atoms: S_4  and  N_7
REMARK                            x       y       z     vdW  Elec       q    Type
REMARK                         _______ _______ _______ _____ _____    ______ ____
ROOT
ATOM      1  N   UNL     1       5.462   4.084  16.946  0.00  0.00    +0.000 NA
ATOM      2  C   UNL     1       4.191   4.748  16.595  0.00  0.00    +0.000 C 
ATOM      3  C   UNL     1       3.220   4.219  17.637  0.00  0.00    +0.000 C 
ATOM      4  C   UNL     1       4.053   4.150  18.932  0.00  0.00    +0.000 C 
ATOM      5  C   UNL     1       3.555   3.023  19.864  0.00  0.00    +0.000 C 
ATOM      6  C   UNL     1       2.190   3.339  20.482  0.00  0.00    +0.000 C 
ATOM      7  C   UNL     1       2.201   4.694  21.193  0.00  0.00    +0.000 C 
ATOM      8  N   UNL     1       2.690   5.694  20.260  0.00  0.00    +0.000 N 
ATOM      9  C   UNL     1       2.060   6.906  20.127  0.00  0.00    +0.000 A 
ATOM     10  N   UNL     1       0.966   7.168  20.864  0.00  0.00    +0.000 NA
ATOM     11  C   UNL     1       0.338   8.348  20.664  0.00  0.00    +0.000 A 
ATOM     12  C   UNL     1       0.756   9.274  19.748  0.00  0.00    +0.000 A 
ATOM     13  F   UNL     1       0.110  10.428  19.555  0.00  0.00    +0.000 F 
ATOM     14  C   UNL     1       1.873   8.937  19.036  0.00  0.00    +0.000 A 
ATOM     15  N   UNL     1       2.533   7.773  19.209  0.00  0.00    +0.000 NA
ATOM     16  C   UNL     1       4.021   5.492  19.699  0.00  0.00    +0.000 C 
ATOM     17  C   UNL     1       5.483   3.869  18.423  0.00  0.00    +0.000 C 
ENDROOT
BRANCH   1  18
ATOM     18  S   UNL     1       6.889   4.708  16.286  0.00  0.00    +0.000 S 
ATOM     19  O   UNL     1       6.819   4.496  14.854  0.00  0.00    +0.000 OA
ATOM     20  O   UNL     1       7.994   4.192  17.063  0.00  0.00    +0.000 OA
BRANCH  18  21
ATOM     21  C   UNL     1       6.720   6.469  16.599  0.00  0.00    +0.000 C 
BRANCH  21  23
ATOM     22  C   UNL     1       7.929   8.356  17.770  0.00  0.00    +0.000 C 
ATOM     23  C   UNL     1       7.564   6.882  17.802  0.00  0.00    +0.000 C 
ENDBRANCH  21  23
ENDBRANCH  18  21
ENDBRANCH   1  18
TORSDOF 3
ENDMDL
MODEL 3
REMARK VINA RESULT:      -7.3      4.328      7.069
REMARK  Name = 
REMARK  4 active torsions:
REMARK  status: ('A' for Active; 'I' for Inactive)
REMARK    1  A    between atoms: C_1  and  C_2
REMARK    2  A    between atoms: C_2  and  C_3
REMARK    3  A    between atoms: C_3  and  S_4
REMARK    4  A    between atoms: S_4  and  N_7
REMARK                            x       y       z     vdW  Elec       q    Type
REMARK                         _______ _______ _______ _____ _____    ______ ____
ROOT
ATOM      1  N   UNL     1       5.520   4.376  17.352  0.00  0.00    +0.000 NA
ATOM      2  C   UNL     1       4.417   5.097  16.685  0.00  0.00    +0.000 C 
ATOM      3  C   UNL     1       3.217   4.792  17.566  0.00  0.00    +0.000 C 
ATOM      4  C   UNL     1       3.782   4.818  19.000  0.00  0.00    +0.000 C 
ATOM      5  C   UNL     1       2.999   3.867  19.933  0.00  0.00    +0.000 C 
ATOM      6  C   UNL     1       1.586   4.377  20.230  0.00  0.00    +0.000 C 
ATOM      7  C   UNL     1       1.613   5.805  20.777  0.00  0.00    +0.000 C 
ATOM      8  N   UNL     1       2.374   6.632  19.856  0.00  0.00    +0.000 N 
ATOM      9  C   UNL     1       1.916   7.867  19.469  0.00  0.00    +0.000 A 
ATOM     10  N   UNL     1       0.740   8.314  19.943  0.00  0.00    +0.000 NA
ATOM     11  C   UNL     1       0.293   9.510  19.495  0.00  0.00    +0.000 A 
ATOM     12  C   UNL     1       0.974  10.271  18.584  0.00  0.00    +0.000 A 
ATOM     13  F   UNL     1       0.505  11.441  18.141  0.00  0.00    +0.000 F 
ATOM     14  C   UNL     1       2.159   9.749  18.148  0.00  0.00    +0.000 A 
ATOM     15  N   UNL     1       2.644   8.565  18.574  0.00  0.00    +0.000 NA
ATOM     16  C   UNL     1       3.756   6.244  19.594  0.00  0.00    +0.000 C 
ATOM     17  C   UNL     1       5.241   4.350  18.818  0.00  0.00    +0.000 C 
ENDROOT
BRANCH   1  18
ATOM     18  S   UNL     1       7.105   4.784  16.923  0.00  0.00    +0.000 S 
ATOM     19  O   UNL     1       7.299   4.338  15.558  0.00  0.00    +0.000 OA
ATOM     20  O   UNL     1       7.976   4.334  17.985  0.00  0.00    +0.000 OA
BRANCH  18  21
ATOM     21  C   UNL     1       7.052   6.579  16.922  0.00  0.00    +0.000 C 
BRANCH  21  23
ATOM     22  C   UNL     1       8.135   8.622  17.947  0.00  0.00    +0.000 C 
ATOM     23  C   UNL     1       7.848   7.138  18.099  0.00  0.00    +0.000 C 
ENDBRANCH  21  23
ENDBRANCH  18  21
ENDBRANCH   1  18
TORSDOF 3
ENDMDL
MODEL 4
REMARK VINA RESULT:      -7.1      4.254      7.452
REMARK  Name = 
REMARK  4 active torsions:
REMARK  status: ('A' for Active; 'I' for Inactive)
REMARK    1  A    between atoms: C_1  and  C_2
REMARK    2  A    between atoms: C_2  and  C_3
REMARK    3  A    between atoms: C_3  and  S_4
REMARK    4  A    between atoms: S_4  and  N_7
REMARK                            x       y       z     vdW  Elec       q    Type
REMARK                         _______ _______ _______ _____ _____    ______ ____
ROOT
ATOM      1  N   UNL     1       5.428   4.533  16.882  0.00  0.00    +0.000 NA
ATOM      2  C   UNL     1       4.139   5.195  16.596  0.00  0.00    +0.000 C 
ATOM      3  C   UNL     1       3.178   4.519  17.559  0.00  0.00    +0.000 C 
ATOM      4  C   UNL     1       4.003   4.324  18.846  0.00  0.00    +0.000 C 
ATOM      5  C   UNL     1       3.534   3.081  19.635  0.00  0.00    +0.000 C 
ATOM      6  C   UNL     1       2.155   3.281  20.271  0.00  0.00    +0.000 C 
ATOM      7  C   UNL     1       2.119   4.543  21.135  0.00  0.00    +0.000 C 
ATOM      8  N   UNL     1       2.584   5.660  20.330  0.00  0.00    +0.000 N 
ATOM      9  C   UNL     1       1.917   6.860  20.332  0.00  0.00    +0.000 A 
ATOM     10  N   UNL     1       0.810   7.001  21.084  0.00  0.00    +0.000 NA
ATOM     11  C   UNL     1       0.147   8.177  21.016  0.00  0.00    +0.000 A 
ATOM     12  C   UNL     1       0.543   9.216  20.219  0.00  0.00    +0.000 A 
ATOM     13  F   UNL     1      -0.138  10.364  20.154  0.00  0.00    +0.000 F 
ATOM     14  C   UNL     1       1.675   8.998  19.484  0.00  0.00    +0.000 A 
ATOM     15  N   UNL     1       2.369   7.843  19.527  0.00  0.00    +0.000 NA
ATOM     16  C   UNL     1       3.924   5.565  19.764  0.00  0.00    +0.000 C 
ATOM     17  C   UNL     1       5.444   4.147  18.323  0.00  0.00    +0.000 C 
ENDROOT
BRANCH   1  18
ATOM     18  S   UNL     1       6.840   5.272  16.314  0.00  0.00    +0.000 S 
ATOM     19  O   UNL     1       7.950   4.448  16.747  0.00  0.00    +0.000 OA
ATOM     20  O   UNL     1       6.772   6.673  16.663  0.00  0.00    +0.000 OA
BRANCH  18  21
ATOM     21  C   UNL     1       6.676   5.098  14.534  0.00  0.00    +0.000 C 
BRANCH  21  23
ATOM     22  C   UNL     1       6.084   3.480  12.683  0.00  0.00    +0.000 C 
ATOM     23  C   UNL     1       6.101   3.728  14.182  0.00  0.00    +0.000 C 
ENDBRANCH  21  23
ENDBRANCH  18  21
ENDBRANCH   1  18
TORSDOF 3
ENDMDL
MODEL 5
REMARK VINA RESULT:      -7.1      3.926      7.161
REMARK  Name = 
REMARK  4 active torsions:
REMARK  status: ('A' for Active; 'I' for Inactive)
REMARK    1  A    between atoms: C_1  and  C_2
REMARK    2  A    between atoms: C_2  and  C_3
REMARK    3  A    between atoms: C_3  and  S_4
REMARK    4  A    between atoms: S_4  and  N_7
REMARK                            x       y       z     vdW  Elec       q    Type
REMARK                         _______ _______ _______ _____ _____    ______ ____
ROOT
ATOM      1  N   UNL     1       6.488   5.953  16.202  0.00  0.00    +0.000 NA
ATOM      2  C   UNL     1       6.519   5.618  17.639  0.00  0.00    +0.000 C 
ATOM      3  C   UNL     1       5.445   6.515  18.230  0.00  0.00    +0.000 C 
ATOM      4  C   UNL     1       4.327   6.518  17.170  0.00  0.00    +0.000 C 
ATOM      5  C   UNL     1       3.535   7.846  17.187  0.00  0.00    +0.000 C 
ATOM      6  C   UNL     1       2.668   7.990  18.441  0.00  0.00    +0.000 C 
ATOM      7  C   UNL     1       1.746   6.782  18.622  0.00  0.00    +0.000 C 
ATOM      8  N   UNL     1       2.558   5.579  18.582  0.00  0.00    +0.000 N 
ATOM      9  C   UNL     1       2.382   4.575  19.502  0.00  0.00    +0.000 A 
ATOM     10  N   UNL     1       1.449   4.713  20.461  0.00  0.00    +0.000 NA
ATOM     11  C   UNL     1       1.344   3.730  21.384  0.00  0.00    +0.000 A 
ATOM     12  C   UNL     1       2.142   2.618  21.390  0.00  0.00    +0.000 A 
ATOM     13  F   UNL     1       2.032   1.668  22.323  0.00  0.00    +0.000 F 
ATOM     14  C   UNL     1       3.066   2.550  20.386  0.00  0.00    +0.000 A 
ATOM     15  N   UNL     1       3.200   3.504  19.442  0.00  0.00    +0.000 NA
ATOM     16  C   UNL     1       3.346   5.342  17.377  0.00  0.00    +0.000 C 
ATOM     17  C   UNL     1       5.092   6.338  15.842  0.00  0.00    +0.000 C 
ENDROOT
BRANCH   1  18
ATOM     18  S   UNL     1       7.246   4.889  15.125  0.00  0.00    +0.000 S 
ATOM     19  O   UNL     1       7.864   3.850  15.925  0.00  0.00    +0.000 OA
ATOM     20  O   UNL     1       8.025   5.681  14.201  0.00  0.00    +0.000 OA
BRANCH  18  21
ATOM     21  C   UNL     1       5.851   4.167  14.253  0.00  0.00    +0.000 C 
BRANCH  21  23
ATOM     22  C   UNL     1       5.112   3.330  11.984  0.00  0.00    +0.000 C 
ATOM     23  C   UNL     1       6.291   3.628  12.895  0.00  0.00    +0.000 C 
ENDBRANCH  21  23
ENDBRANCH  18  21
ENDBRANCH   1  18
TORSDOF 3
ENDMDL
MODEL 6
REMARK VINA RESULT:      -7.0      1.418      1.840
REMARK  Name = 
REMARK  4 active torsions:
REMARK  status: ('A' for Active; 'I' for Inactive)
REMARK    1  A    between atoms: C_1  and  C_2
REMARK    2  A    between atoms: C_2  and  C_3
REMARK    3  A    between atoms: C_3  and  S_4
REMARK    4  A    between atoms: S_4  and  N_7
REMARK                            x       y       z     vdW  Elec       q    Type
REMARK                         _______ _______ _______ _____ _____    ______ ____
ROOT
ATOM      1  N   UNL     1       2.708   5.080  19.177  0.00  0.00    +0.000 NA
ATOM      2  C   UNL     1       2.850   5.754  17.871  0.00  0.00    +0.000 C 
ATOM      3  C   UNL     1       4.263   6.311  17.917  0.00  0.00    +0.000 C 
ATOM      4  C   UNL     1       5.078   5.220  18.636  0.00  0.00    +0.000 C 
ATOM      5  C   UNL     1       6.267   5.825  19.417  0.00  0.00    +0.000 C 
ATOM      6  C   UNL     1       7.361   6.360  18.489  0.00  0.00    +0.000 C 
ATOM      7  C   UNL     1       7.825   5.289  17.499  0.00  0.00    +0.000 C 
ATOM      8  N   UNL     1       6.656   4.762  16.817  0.00  0.00    +0.000 N 
ATOM      9  C   UNL     1       6.652   4.580  15.456  0.00  0.00    +0.000 A 
ATOM     10  N   UNL     1       7.746   4.903  14.742  0.00  0.00    +0.000 NA
ATOM     11  C   UNL     1       7.686   4.764  13.399  0.00  0.00    +0.000 A 
ATOM     12  C   UNL     1       6.571   4.323  12.740  0.00  0.00    +0.000 A 
ATOM     13  F   UNL     1       6.528   4.210  11.409  0.00  0.00    +0.000 F 
ATOM     14  C   UNL     1       5.501   4.016  13.532  0.00  0.00    +0.000 A 
ATOM     15  N   UNL     1       5.521   4.133  14.875  0.00  0.00    +0.000 NA
ATOM     16  C   UNL     1       5.613   4.163  17.641  0.00  0.00    +0.000 C 
ATOM     17  C   UNL     1       4.051   4.574  19.588  0.00  0.00    +0.000 C 
ENDROOT
BRANCH   1  18
ATOM     18  S   UNL     1       1.432   3.985  19.368  0.00  0.00    +0.000 S 
ATOM     19  O   UNL     1       0.910   3.713  18.044  0.00  0.00    +0.000 OA
ATOM     20  O   UNL     1       0.576   4.488  20.418  0.00  0.00    +0.000 OA
BRANCH  18  21
ATOM     21  C   UNL     1       2.276   2.510  19.950  0.00  0.00    +0.000 C 
BRANCH  21  23
ATOM     22  C   UNL     1       3.629   1.332  18.169  0.00  0.00    +0.000 C 
ATOM     23  C   UNL     1       2.283   1.436  18.865  0.00  0.00    +0.000 C 
ENDBRANCH  21  23
ENDBRANCH  18  21
ENDBRANCH   1  18
TORSDOF 3
ENDMDL
MODEL 7
REMARK VINA RESULT:      -7.0      4.177      7.157
REMARK  Name = 
REMARK  4 active torsions:
REMARK  status: ('A' for Active; 'I' for Inactive)
REMARK    1  A    between atoms: C_1  and  C_2
REMARK    2  A    between atoms: C_2  and  C_3
REMARK    3  A    between atoms: C_3  and  S_4
REMARK    4  A    between atoms: S_4  and  N_7
REMARK                            x       y       z     vdW  Elec       q    Type
REMARK                         _______ _______ _______ _____ _____    ______ ____
ROOT
ATOM      1  N   UNL     1       4.731   3.952  16.673  0.00  0.00    +0.000 NA
ATOM      2  C   UNL     1       3.443   4.657  16.520  0.00  0.00    +0.000 C 
ATOM      3  C   UNL     1       2.622   4.144  17.691  0.00  0.00    +0.000 C 
ATOM      4  C   UNL     1       3.635   4.034  18.846  0.00  0.00    +0.000 C 
ATOM      5  C   UNL     1       3.247   2.910  19.833  0.00  0.00    +0.000 C 
ATOM      6  C   UNL     1       1.999   3.258  20.650  0.00  0.00    +0.000 C 
ATOM      7  C   UNL     1       2.157   4.602  21.363  0.00  0.00    +0.000 C 
ATOM      8  N   UNL     1       2.533   5.600  20.375  0.00  0.00    +0.000 N 
ATOM      9  C   UNL     1       1.927   6.832  20.347  0.00  0.00    +0.000 A 
ATOM     10  N   UNL     1       0.964   7.115  21.242  0.00  0.00    +0.000 NA
ATOM     11  C   UNL     1       0.349   8.316  21.147  0.00  0.00    +0.000 A 
ATOM     12  C   UNL     1       0.655   9.241  20.187  0.00  0.00    +0.000 A 
ATOM     13  F   UNL     1       0.023  10.415  20.101  0.00  0.00    +0.000 F 
ATOM     14  C   UNL     1       1.643   8.880  19.314  0.00  0.00    +0.000 A 
ATOM     15  N   UNL     1       2.285   7.696  19.377  0.00  0.00    +0.000 NA
ATOM     16  C   UNL     1       3.759   5.366  19.621  0.00  0.00    +0.000 C 
ATOM     17  C   UNL     1       4.964   3.717  18.128  0.00  0.00    +0.000 C 
ENDROOT
BRANCH   1  18
ATOM     18  S   UNL     1       6.063   4.542  15.813  0.00  0.00    +0.000 S 
ATOM     19  O   UNL     1       5.745   5.902  15.425  0.00  0.00    +0.000 OA
ATOM     20  O   UNL     1       6.421   3.550  14.824  0.00  0.00    +0.000 OA
BRANCH  18  21
ATOM     21  C   UNL     1       7.339   4.605  17.076  0.00  0.00    +0.000 C 
BRANCH  21  23
ATOM     22  C   UNL     1       7.816   5.997  19.132  0.00  0.00    +0.000 C 
ATOM     23  C   UNL     1       7.444   6.012  17.660  0.00  0.00    +0.000 C 
ENDBRANCH  21  23
ENDBRANCH  18  21
ENDBRANCH   1  18
TORSDOF 3
ENDMDL
MODEL 8
REMARK VINA RESULT:      -6.9      4.432      7.201
REMARK  Name = 
REMARK  4 active torsions:
REMARK  status: ('A' for Active; 'I' for Inactive)
REMARK    1  A    between atoms: C_1  and  C_2
REMARK    2  A    between atoms: C_2  and  C_3
REMARK    3  A    between atoms: C_3  and  S_4
REMARK    4  A    between atoms: S_4  and  N_7
REMARK                            x       y       z     vdW  Elec       q    Type
REMARK                         _______ _______ _______ _____ _____    ______ ____
ROOT
ATOM      1  N   UNL     1       5.570   4.672  16.997  0.00  0.00    +0.000 NA
ATOM      2  C   UNL     1       4.369   5.320  16.433  0.00  0.00    +0.000 C 
ATOM      3  C   UNL     1       3.275   4.945  17.418  0.00  0.00    +0.000 C 
ATOM      4  C   UNL     1       3.964   5.013  18.795  0.00  0.00    +0.000 C 
ATOM      5  C   UNL     1       3.328   4.020  19.794  0.00  0.00    +0.000 C 
ATOM      6  C   UNL     1       1.919   4.442  20.218  0.00  0.00    +0.000 C 
ATOM      7  C   UNL     1       1.906   5.873  20.761  0.00  0.00    +0.000 C 
ATOM      8  N   UNL     1       2.528   6.740  19.775  0.00  0.00    +0.000 N 
ATOM      9  C   UNL     1       1.960   7.942  19.431  0.00  0.00    +0.000 A 
ATOM     10  N   UNL     1       0.805   8.318  20.010  0.00  0.00    +0.000 NA
ATOM     11  C   UNL     1       0.247   9.481  19.604  0.00  0.00    +0.000 A 
ATOM     12  C   UNL     1       0.793  10.278  18.636  0.00  0.00    +0.000 A 
ATOM     13  F   UNL     1       0.214  11.415  18.238  0.00  0.00    +0.000 F 
ATOM     14  C   UNL     1       1.965   9.829  18.095  0.00  0.00    +0.000 A 
ATOM     15  N   UNL     1       2.559   8.680  18.475  0.00  0.00    +0.000 NA
ATOM     16  C   UNL     1       3.901   6.438  19.390  0.00  0.00    +0.000 C 
ATOM     17  C   UNL     1       5.427   4.637  18.482  0.00  0.00    +0.000 C 
ENDROOT
BRANCH   1  18
ATOM     18  S   UNL     1       7.081   5.176  16.426  0.00  0.00    +0.000 S 
ATOM     19  O   UNL     1       8.049   4.197  16.878  0.00  0.00    +0.000 OA
ATOM     20  O   UNL     1       7.229   6.576  16.754  0.00  0.00    +0.000 OA
BRANCH  18  21
ATOM     21  C   UNL     1       6.898   5.002  14.648  0.00  0.00    +0.000 C 
BRANCH  21  23
ATOM     22  C   UNL     1       5.977   3.523  12.815  0.00  0.00    +0.000 C 
ATOM     23  C   UNL     1       6.212   3.682  14.308  0.00  0.00    +0.000 C 
ENDBRANCH  21  23
ENDBRANCH  18  21
ENDBRANCH   1  18
TORSDOF 3
ENDMDL
MODEL 9
REMARK VINA RESULT:      -6.5      1.268      1.426
REMARK  Name = 
REMARK  4 active torsions:
REMARK  status: ('A' for Active; 'I' for Inactive)
REMARK    1  A    between atoms: C_1  and  C_2
REMARK    2  A    between atoms: C_2  and  C_3
REMARK    3  A    between atoms: C_3  and  S_4
REMARK    4  A    between atoms: S_4  and  N_7
REMARK                            x       y       z     vdW  Elec       q    Type
REMARK                         _______ _______ _______ _____ _____    ______ ____
ROOT
ATOM      1  N   UNL     1       2.662   4.856  19.087  0.00  0.00    +0.000 NA
ATOM      2  C   UNL     1       2.783   5.544  17.787  0.00  0.00    +0.000 C 
ATOM      3  C   UNL     1       4.169   6.164  17.847  0.00  0.00    +0.000 C 
ATOM      4  C   UNL     1       5.027   5.105  18.566  0.00  0.00    +0.000 C 
ATOM      5  C   UNL     1       6.181   5.758  19.360  0.00  0.00    +0.000 C 
ATOM      6  C   UNL     1       7.258   6.348  18.445  0.00  0.00    +0.000 C 
ATOM      7  C   UNL     1       7.777   5.305  17.453  0.00  0.00    +0.000 C 
ATOM      8  N   UNL     1       6.638   4.731  16.757  0.00  0.00    +0.000 N 
ATOM      9  C   UNL     1       6.654   4.557  15.396  0.00  0.00    +0.000 A 
ATOM     10  N   UNL     1       7.737   4.933  14.693  0.00  0.00    +0.000 NA
ATOM     11  C   UNL     1       7.694   4.800  13.348  0.00  0.00    +0.000 A 
ATOM     12  C   UNL     1       6.605   4.314  12.677  0.00  0.00    +0.000 A 
ATOM     13  F   UNL     1       6.578   4.207  11.346  0.00  0.00    +0.000 F 
ATOM     14  C   UNL     1       5.544   3.954  13.459  0.00  0.00    +0.000 A 
ATOM     15  N   UNL     1       5.548   4.064  14.803  0.00  0.00    +0.000 NA
ATOM     16  C   UNL     1       5.616   4.081  17.570  0.00  0.00    +0.000 C 
ATOM     17  C   UNL     1       4.022   4.408  19.506  0.00  0.00    +0.000 C 
ENDROOT
BRANCH   1  18
ATOM     18  S   UNL     1       1.435   3.704  19.261  0.00  0.00    +0.000 S 
ATOM     19  O   UNL     1       1.049   3.295  17.925  0.00  0.00    +0.000 OA
ATOM     20  O   UNL     1       0.461   4.236  20.188  0.00  0.00    +0.000 OA
BRANCH  18  21
ATOM     21  C   UNL     1       2.301   2.334  20.036  0.00  0.00    +0.000 C 
BRANCH  21  23
ATOM     22  C   UNL     1       1.194   2.252  22.309  0.00  0.00    +0.000 C 
ATOM     23  C   UNL     1       2.459   2.582  21.534  0.00  0.00    +0.000 C 
ENDBRANCH  21  23
ENDBRANCH  18  21
ENDBRANCH   1  18
TORSDOF 3
ENDMDL
