MODEL 1
REMARK VINA RESULT:      -7.4      0.000      0.000
REMARK  Name = 
REMARK  5 active torsions:
REMARK  status: ('A' for Active; 'I' for Inactive)
REMARK    1  A    between atoms: C_1  and  N_2
REMARK    2  A    between atoms: C_12  and  S_13
REMARK    3  A    between atoms: S_13  and  C_14
REMARK    4  A    between atoms: C_14  and  C_15
REMARK    5  A    between atoms: N_17  and  C_18
REMARK                            x       y       z     vdW  Elec       q    Type
REMARK                         _______ _______ _______ _____ _____    ______ ____
ROOT
ATOM      1  C   UNL     1       6.822   5.381  19.263  0.00  0.00    +0.000 C 
ATOM      2  N   UNL     1       6.077   4.669  18.251  0.00  0.00    +0.000 N 
ATOM      3  C   UNL     1       6.270   4.731  16.885  0.00  0.00    +0.000 A 
ATOM      4  C   UNL     1       7.197   5.452  16.111  0.00  0.00    +0.000 A 
ATOM      5  C   UNL     1       7.149   5.307  14.722  0.00  0.00    +0.000 A 
ATOM      6  C   UNL     1       6.213   4.481  14.117  0.00  0.00    +0.000 A 
ATOM      7  C   UNL     1       5.288   3.764  14.891  0.00  0.00    +0.000 A 
ATOM      8  C   UNL     1       5.315   3.885  16.297  0.00  0.00    +0.000 A 
ATOM      9  C   UNL     1       4.551   3.319  17.355  0.00  0.00    +0.000 A 
ATOM     10  N   UNL     1       3.509   2.445  17.373  0.00  0.00    +0.000 NA
ATOM     11  N   UNL     1       3.016   2.132  18.581  0.00  0.00    +0.000 NA
ATOM     12  C   UNL     1       3.559   2.651  19.717  0.00  0.00    +0.000 A 
ATOM     13  N   UNL     1       4.587   3.518  19.775  0.00  0.00    +0.000 NA
ATOM     14  C   UNL     1       5.046   3.816  18.546  0.00  0.00    +0.000 A 
ENDROOT
BRANCH  12  15
ATOM     15  S   UNL     1       2.822   2.255  21.290  0.00  0.00    +0.000 S 
BRANCH  15  16
ATOM     16  C   UNL     1       2.289   3.889  21.870  0.00  0.00    +0.000 C 
BRANCH  16  17
ATOM     17  C   UNL     1       1.723   4.727  20.741  0.00  0.00    +0.000 C 
ATOM     18  O   UNL     1       0.672   4.436  20.176  0.00  0.00    +0.000 OA
ATOM     19  N   UNL     1       2.475   5.836  20.412  0.00  0.00    +0.000 N 
ATOM     20  H   UNL     1       3.307   6.054  20.951  0.00  0.00    +0.000 HD
BRANCH  19  21
ATOM     21  C   UNL     1       2.046   6.763  19.390  0.00  0.00    +0.000 C 
ATOM     22  C   UNL     1       1.794   8.170  19.919  0.00  0.00    +0.000 C 
ATOM     23  C   UNL     1       1.699   9.002  18.645  0.00  0.00    +0.000 C 
ATOM     24  C   UNL     1       2.606   8.303  17.628  0.00  0.00    +0.000 C 
ATOM     25  C   UNL     1       3.091   7.025  18.308  0.00  0.00    +0.000 C 
ENDBRANCH  19  21
ENDBRANCH  16  17
ENDBRANCH  15  16
ENDBRANCH  12  15
TORSDOF 4
ENDMDL
MODEL 2
REMARK VINA RESULT:      -7.3      4.776      7.003
REMARK  Name = 
REMARK  5 active torsions:
REMARK  status: ('A' for Active; 'I' for Inactive)
REMARK    1  A    between atoms: C_1  and  N_2
REMARK    2  A    between atoms: C_12  and  S_13
REMARK    3  A    between atoms: S_13  and  C_14
REMARK    4  A    between atoms: C_14  and  C_15
REMARK    5  A    between atoms: N_17  and  C_18
REMARK                            x       y       z     vdW  Elec       q    Type
REMARK                         _______ _______ _______ _____ _____    ______ ____
ROOT
ATOM      1  C   UNL     1       2.090   6.918  18.347  0.00  0.00    +0.000 C 
ATOM      2  N   UNL     1       2.848   5.796  18.851  0.00  0.00    +0.000 N 
ATOM      3  C   UNL     1       2.364   4.738  19.595  0.00  0.00    +0.000 A 
ATOM      4  C   UNL     1       1.068   4.443  20.054  0.00  0.00    +0.000 A 
ATOM      5  C   UNL     1       0.883   3.275  20.798  0.00  0.00    +0.000 A 
ATOM      6  C   UNL     1       1.944   2.428  21.083  0.00  0.00    +0.000 A 
ATOM      7  C   UNL     1       3.237   2.725  20.626  0.00  0.00    +0.000 A 
ATOM      8  C   UNL     1       3.455   3.896  19.867  0.00  0.00    +0.000 A 
ATOM      9  C   UNL     1       4.599   4.484  19.261  0.00  0.00    +0.000 A 
ATOM     10  N   UNL     1       5.906   4.111  19.204  0.00  0.00    +0.000 NA
ATOM     11  N   UNL     1       6.731   4.934  18.539  0.00  0.00    +0.000 NA
ATOM     12  C   UNL     1       6.263   6.063  17.938  0.00  0.00    +0.000 A 
ATOM     13  N   UNL     1       4.987   6.494  17.954  0.00  0.00    +0.000 NA
ATOM     14  C   UNL     1       4.194   5.651  18.638  0.00  0.00    +0.000 A 
ENDROOT
BRANCH  12  15
ATOM     15  S   UNL     1       7.413   7.156  17.127  0.00  0.00    +0.000 S 
BRANCH  15  16
ATOM     16  C   UNL     1       8.398   7.760  18.524  0.00  0.00    +0.000 C 
BRANCH  16  17
ATOM     17  C   UNL     1       8.564   9.266  18.485  0.00  0.00    +0.000 C 
ATOM     18  O   UNL     1       8.057   9.955  17.603  0.00  0.00    +0.000 OA
ATOM     19  N   UNL     1       9.318   9.791  19.514  0.00  0.00    +0.000 N 
ATOM     20  H   UNL     1       9.666   9.177  20.243  0.00  0.00    +0.000 HD
BRANCH  19  21
ATOM     21  C   UNL     1       9.528  11.215  19.645  0.00  0.00    +0.000 C 
ATOM     22  C   UNL     1       9.673  11.673  21.091  0.00  0.00    +0.000 C 
ATOM     23  C   UNL     1      10.214  13.091  20.947  0.00  0.00    +0.000 C 
ATOM     24  C   UNL     1      11.036  13.090  19.657  0.00  0.00    +0.000 C 
ATOM     25  C   UNL     1      10.838  11.709  19.034  0.00  0.00    +0.000 C 
ENDBRANCH  19  21
ENDBRANCH  16  17
ENDBRANCH  15  16
ENDBRANCH  12  15
TORSDOF 4
ENDMDL
MODEL 3
REMARK VINA RESULT:      -7.1      2.520      7.035
REMARK  Name = 
REMARK  5 active torsions:
REMARK  status: ('A' for Active; 'I' for Inactive)
REMARK    1  A    between atoms: C_1  and  N_2
REMARK    2  A    between atoms: C_12  and  S_13
REMARK    3  A    between atoms: S_13  and  C_14
REMARK    4  A    between atoms: C_14  and  C_15
REMARK    5  A    between atoms: N_17  and  C_18
REMARK                            x       y       z     vdW  Elec       q    Type
REMARK                         _______ _______ _______ _____ _____    ______ ____
ROOT
ATOM      1  C   UNL     1       2.531   8.902  17.644  0.00  0.00    +0.000 C 
ATOM      2  N   UNL     1       2.071   8.274  18.861  0.00  0.00    +0.000 N 
ATOM      3  C   UNL     1       1.243   8.829  19.817  0.00  0.00    +0.000 A 
ATOM      4  C   UNL     1       0.627  10.092  19.891  0.00  0.00    +0.000 A 
ATOM      5  C   UNL     1      -0.171  10.372  21.003  0.00  0.00    +0.000 A 
ATOM      6  C   UNL     1      -0.353   9.436  22.011  0.00  0.00    +0.000 A 
ATOM      7  C   UNL     1       0.264   8.178  21.937  0.00  0.00    +0.000 A 
ATOM      8  C   UNL     1       1.073   7.864  20.823  0.00  0.00    +0.000 A 
ATOM      9  C   UNL     1       1.822   6.719  20.434  0.00  0.00    +0.000 A 
ATOM     10  N   UNL     1       2.019   5.506  21.017  0.00  0.00    +0.000 NA
ATOM     11  N   UNL     1       2.815   4.652  20.357  0.00  0.00    +0.000 NA
ATOM     12  C   UNL     1       3.366   4.988  19.158  0.00  0.00    +0.000 A 
ATOM     13  N   UNL     1       3.215   6.166  18.524  0.00  0.00    +0.000 NA
ATOM     14  C   UNL     1       2.421   6.999  19.220  0.00  0.00    +0.000 A 
ENDROOT
BRANCH  12  15
ATOM     15  S   UNL     1       4.470   3.842  18.357  0.00  0.00    +0.000 S 
BRANCH  15  16
ATOM     16  C   UNL     1       6.007   4.800  18.282  0.00  0.00    +0.000 C 
BRANCH  16  17
ATOM     17  C   UNL     1       6.798   4.495  17.026  0.00  0.00    +0.000 C 
ATOM     18  O   UNL     1       8.014   4.322  17.047  0.00  0.00    +0.000 OA
ATOM     19  N   UNL     1       6.044   4.420  15.872  0.00  0.00    +0.000 N 
ATOM     20  H   UNL     1       5.036   4.519  15.927  0.00  0.00    +0.000 HD
BRANCH  19  21
ATOM     21  C   UNL     1       6.644   4.089  14.600  0.00  0.00    +0.000 C 
ATOM     22  C   UNL     1       5.628   3.656  13.549  0.00  0.00    +0.000 C 
ATOM     23  C   UNL     1       6.434   3.702  12.256  0.00  0.00    +0.000 C 
ATOM     24  C   UNL     1       7.476   4.804  12.458  0.00  0.00    +0.000 C 
ATOM     25  C   UNL     1       7.319   5.269  13.904  0.00  0.00    +0.000 C 
ENDBRANCH  19  21
ENDBRANCH  16  17
ENDBRANCH  15  16
ENDBRANCH  12  15
TORSDOF 4
ENDMDL
MODEL 4
REMARK VINA RESULT:      -6.9      4.203      6.480
REMARK  Name = 
REMARK  5 active torsions:
REMARK  status: ('A' for Active; 'I' for Inactive)
REMARK    1  A    between atoms: C_1  and  N_2
REMARK    2  A    between atoms: C_12  and  S_13
REMARK    3  A    between atoms: S_13  and  C_14
REMARK    4  A    between atoms: C_14  and  C_15
REMARK    5  A    between atoms: N_17  and  C_18
REMARK                            x       y       z     vdW  Elec       q    Type
REMARK                         _______ _______ _______ _____ _____    ______ ____
ROOT
ATOM      1  C   UNL     1       4.168   5.340  17.121  0.00  0.00    +0.000 C 
ATOM      2  N   UNL     1       3.441   5.420  18.367  0.00  0.00    +0.000 N 
ATOM      3  C   UNL     1       3.267   4.406  19.289  0.00  0.00    +0.000 A 
ATOM      4  C   UNL     1       3.722   3.075  19.301  0.00  0.00    +0.000 A 
ATOM      5  C   UNL     1       3.381   2.272  20.392  0.00  0.00    +0.000 A 
ATOM      6  C   UNL     1       2.612   2.766  21.436  0.00  0.00    +0.000 A 
ATOM      7  C   UNL     1       2.158   4.094  21.421  0.00  0.00    +0.000 A 
ATOM      8  C   UNL     1       2.490   4.931  20.335  0.00  0.00    +0.000 A 
ATOM      9  C   UNL     1       2.210   6.286  20.007  0.00  0.00    +0.000 A 
ATOM     10  N   UNL     1       1.509   7.262  20.644  0.00  0.00    +0.000 NA
ATOM     11  N   UNL     1       1.441   8.449  20.021  0.00  0.00    +0.000 NA
ATOM     12  C   UNL     1       2.067   8.654  18.830  0.00  0.00    +0.000 A 
ATOM     13  N   UNL     1       2.776   7.738  18.143  0.00  0.00    +0.000 NA
ATOM     14  C   UNL     1       2.812   6.561  18.792  0.00  0.00    +0.000 A 
ENDROOT
BRANCH  12  15
ATOM     15  S   UNL     1       1.888  10.228  18.014  0.00  0.00    +0.000 S 
BRANCH  15  16
ATOM     16  C   UNL     1       0.974  11.185  19.254  0.00  0.00    +0.000 C 
BRANCH  16  17
ATOM     17  C   UNL     1      -0.308  11.760  18.687  0.00  0.00    +0.000 C 
ATOM     18  O   UNL     1      -0.676  12.905  18.935  0.00  0.00    +0.000 OA
ATOM     19  N   UNL     1      -1.015  10.899  17.872  0.00  0.00    +0.000 N 
ATOM     20  H   UNL     1      -0.633   9.983  17.661  0.00  0.00    +0.000 HD
BRANCH  19  21
ATOM     21  C   UNL     1      -2.234  11.313  17.215  0.00  0.00    +0.000 C 
ATOM     22  C   UNL     1      -2.564  10.486  15.979  0.00  0.00    +0.000 C 
ATOM     23  C   UNL     1      -4.010  10.871  15.686  0.00  0.00    +0.000 C 
ATOM     24  C   UNL     1      -4.632  11.200  17.045  0.00  0.00    +0.000 C 
ATOM     25  C   UNL     1      -3.493  11.118  18.058  0.00  0.00    +0.000 C 
ENDBRANCH  19  21
ENDBRANCH  16  17
ENDBRANCH  15  16
ENDBRANCH  12  15
TORSDOF 4
ENDMDL
MODEL 5
REMARK VINA RESULT:      -6.8      4.636      6.056
REMARK  Name = 
REMARK  5 active torsions:
REMARK  status: ('A' for Active; 'I' for Inactive)
REMARK    1  A    between atoms: C_1  and  N_2
REMARK    2  A    between atoms: C_12  and  S_13
REMARK    3  A    between atoms: S_13  and  C_14
REMARK    4  A    between atoms: C_14  and  C_15
REMARK    5  A    between atoms: N_17  and  C_18
REMARK                            x       y       z     vdW  Elec       q    Type
REMARK                         _______ _______ _______ _____ _____    ______ ____
ROOT
ATOM      1  C   UNL     1       2.683   5.150  20.436  0.00  0.00    +0.000 C 
ATOM      2  N   UNL     1       3.077   5.891  19.260  0.00  0.00    +0.000 N 
ATOM      3  C   UNL     1       3.987   5.494  18.300  0.00  0.00    +0.000 A 
ATOM      4  C   UNL     1       4.752   4.320  18.176  0.00  0.00    +0.000 A 
ATOM      5  C   UNL     1       5.601   4.200  17.072  0.00  0.00    +0.000 A 
ATOM      6  C   UNL     1       5.694   5.209  16.124  0.00  0.00    +0.000 A 
ATOM      7  C   UNL     1       4.932   6.380  16.251  0.00  0.00    +0.000 A 
ATOM      8  C   UNL     1       4.061   6.528  17.352  0.00  0.00    +0.000 A 
ATOM      9  C   UNL     1       3.167   7.549  17.778  0.00  0.00    +0.000 A 
ATOM     10  N   UNL     1       2.838   8.761  17.256  0.00  0.00    +0.000 NA
ATOM     11  N   UNL     1       1.943   9.483  17.948  0.00  0.00    +0.000 NA
ATOM     12  C   UNL     1       1.387   9.002  19.094  0.00  0.00    +0.000 A 
ATOM     13  N   UNL     1       1.665   7.815  19.668  0.00  0.00    +0.000 NA
ATOM     14  C   UNL     1       2.572   7.127  18.953  0.00  0.00    +0.000 A 
ENDROOT
BRANCH  12  15
ATOM     15  S   UNL     1       0.256  10.030  20.009  0.00  0.00    +0.000 S 
BRANCH  15  16
ATOM     16  C   UNL     1       0.126   9.131  21.579  0.00  0.00    +0.000 C 
BRANCH  16  17
ATOM     17  C   UNL     1      -0.272  10.046  22.719  0.00  0.00    +0.000 C 
ATOM     18  O   UNL     1       0.173   9.904  23.855  0.00  0.00    +0.000 OA
ATOM     19  N   UNL     1      -1.159  11.045  22.374  0.00  0.00    +0.000 N 
ATOM     20  H   UNL     1      -1.450  11.145  21.407  0.00  0.00    +0.000 HD
BRANCH  19  21
ATOM     21  C   UNL     1      -1.598  12.029  23.338  0.00  0.00    +0.000 C 
ATOM     22  C   UNL     1      -1.123  13.441  23.016  0.00  0.00    +0.000 C 
ATOM     23  C   UNL     1      -1.972  14.306  23.941  0.00  0.00    +0.000 C 
ATOM     24  C   UNL     1      -3.293  13.552  24.113  0.00  0.00    +0.000 C 
ATOM     25  C   UNL     1      -3.112  12.220  23.387  0.00  0.00    +0.000 C 
ENDBRANCH  19  21
ENDBRANCH  16  17
ENDBRANCH  15  16
ENDBRANCH  12  15
TORSDOF 4
ENDMDL
MODEL 6
REMARK VINA RESULT:      -6.7      4.133      5.940
REMARK  Name = 
REMARK  5 active torsions:
REMARK  status: ('A' for Active; 'I' for Inactive)
REMARK    1  A    between atoms: C_1  and  N_2
REMARK    2  A    between atoms: C_12  and  S_13
REMARK    3  A    between atoms: S_13  and  C_14
REMARK    4  A    between atoms: C_14  and  C_15
REMARK    5  A    between atoms: N_17  and  C_18
REMARK                            x       y       z     vdW  Elec       q    Type
REMARK                         _______ _______ _______ _____ _____    ______ ____
ROOT
ATOM      1  C   UNL     1       2.213   4.711  21.172  0.00  0.00    +0.000 C 
ATOM      2  N   UNL     1       2.623   5.414  19.979  0.00  0.00    +0.000 N 
ATOM      3  C   UNL     1       3.430   4.928  18.968  0.00  0.00    +0.000 A 
ATOM      4  C   UNL     1       4.052   3.677  18.798  0.00  0.00    +0.000 A 
ATOM      5  C   UNL     1       4.820   3.476  17.649  0.00  0.00    +0.000 A 
ATOM      6  C   UNL     1       4.973   4.477  16.700  0.00  0.00    +0.000 A 
ATOM      7  C   UNL     1       4.353   5.724  16.873  0.00  0.00    +0.000 A 
ATOM      8  C   UNL     1       3.566   5.957  18.022  0.00  0.00    +0.000 A 
ATOM      9  C   UNL     1       2.815   7.066  18.500  0.00  0.00    +0.000 A 
ATOM     10  N   UNL     1       2.595   8.312  18.001  0.00  0.00    +0.000 NA
ATOM     11  N   UNL     1       1.825   9.122  18.744  0.00  0.00    +0.000 NA
ATOM     12  C   UNL     1       1.282   8.695  19.917  0.00  0.00    +0.000 A 
ATOM     13  N   UNL     1       1.458   7.479  20.470  0.00  0.00    +0.000 NA
ATOM     14  C   UNL     1       2.242   6.701  19.704  0.00  0.00    +0.000 A 
ENDROOT
BRANCH  12  15
ATOM     15  S   UNL     1       0.324   9.833  20.897  0.00  0.00    +0.000 S 
BRANCH  15  16
ATOM     16  C   UNL     1       0.753  11.424  20.140  0.00  0.00    +0.000 C 
BRANCH  16  17
ATOM     17  C   UNL     1      -0.366  11.948  19.263  0.00  0.00    +0.000 C 
ATOM     18  O   UNL     1      -0.674  13.137  19.239  0.00  0.00    +0.000 OA
ATOM     19  N   UNL     1      -0.997  10.989  18.498  0.00  0.00    +0.000 N 
ATOM     20  H   UNL     1      -0.663  10.031  18.520  0.00  0.00    +0.000 HD
BRANCH  19  21
ATOM     21  C   UNL     1      -2.052  11.336  17.573  0.00  0.00    +0.000 C 
ATOM     22  C   UNL     1      -2.314  10.261  16.525  0.00  0.00    +0.000 C 
ATOM     23  C   UNL     1      -3.645  10.691  15.920  0.00  0.00    +0.000 C 
ATOM     24  C   UNL     1      -4.399  11.404  17.045  0.00  0.00    +0.000 C 
ATOM     25  C   UNL     1      -3.428  11.472  18.222  0.00  0.00    +0.000 C 
ENDBRANCH  19  21
ENDBRANCH  16  17
ENDBRANCH  15  16
ENDBRANCH  12  15
TORSDOF 4
ENDMDL
MODEL 7
REMARK VINA RESULT:      -6.7      4.972      7.087
REMARK  Name = 
REMARK  5 active torsions:
REMARK  status: ('A' for Active; 'I' for Inactive)
REMARK    1  A    between atoms: C_1  and  N_2
REMARK    2  A    between atoms: C_12  and  S_13
REMARK    3  A    between atoms: S_13  and  C_14
REMARK    4  A    between atoms: C_14  and  C_15
REMARK    5  A    between atoms: N_17  and  C_18
REMARK                            x       y       z     vdW  Elec       q    Type
REMARK                         _______ _______ _______ _____ _____    ______ ____
ROOT
ATOM      1  C   UNL     1       2.398   7.131  18.125  0.00  0.00    +0.000 C 
ATOM      2  N   UNL     1       3.063   5.972  18.674  0.00  0.00    +0.000 N 
ATOM      3  C   UNL     1       2.482   4.952  19.401  0.00  0.00    +0.000 A 
ATOM      4  C   UNL     1       1.150   4.738  19.798  0.00  0.00    +0.000 A 
ATOM      5  C   UNL     1       0.860   3.591  20.541  0.00  0.00    +0.000 A 
ATOM      6  C   UNL     1       1.854   2.686  20.884  0.00  0.00    +0.000 A 
ATOM      7  C   UNL     1       3.183   2.903  20.489  0.00  0.00    +0.000 A 
ATOM      8  C   UNL     1       3.507   4.050  19.733  0.00  0.00    +0.000 A 
ATOM      9  C   UNL     1       4.711   4.565  19.180  0.00  0.00    +0.000 A 
ATOM     10  N   UNL     1       5.995   4.116  19.190  0.00  0.00    +0.000 NA
ATOM     11  N   UNL     1       6.899   4.882  18.561  0.00  0.00    +0.000 NA
ATOM     12  C   UNL     1       6.528   6.030  17.929  0.00  0.00    +0.000 A 
ATOM     13  N   UNL     1       5.281   6.535  17.879  0.00  0.00    +0.000 NA
ATOM     14  C   UNL     1       4.407   5.746  18.529  0.00  0.00    +0.000 A 
ENDROOT
BRANCH  12  15
ATOM     15  S   UNL     1       7.779   7.045  17.167  0.00  0.00    +0.000 S 
BRANCH  15  16
ATOM     16  C   UNL     1       7.234   8.712  17.628  0.00  0.00    +0.000 C 
BRANCH  16  17
ATOM     17  C   UNL     1       8.349   9.508  18.276  0.00  0.00    +0.000 C 
ATOM     18  O   UNL     1       9.113   9.009  19.098  0.00  0.00    +0.000 OA
ATOM     19  N   UNL     1       8.435  10.822  17.864  0.00  0.00    +0.000 N 
ATOM     20  H   UNL     1       7.808  11.162  17.142  0.00  0.00    +0.000 HD
BRANCH  19  21
ATOM     21  C   UNL     1       9.475  11.698  18.353  0.00  0.00    +0.000 C 
ATOM     22  C   UNL     1      10.779  11.581  17.573  0.00  0.00    +0.000 C 
ATOM     23  C   UNL     1      11.564  12.803  18.035  0.00  0.00    +0.000 C 
ATOM     24  C   UNL     1      10.515  13.868  18.362  0.00  0.00    +0.000 C 
ATOM     25  C   UNL     1       9.159  13.185  18.200  0.00  0.00    +0.000 C 
ENDBRANCH  19  21
ENDBRANCH  16  17
ENDBRANCH  15  16
ENDBRANCH  12  15
TORSDOF 4
ENDMDL
MODEL 8
REMARK VINA RESULT:      -6.6      2.711      7.144
REMARK  Name = 
REMARK  5 active torsions:
REMARK  status: ('A' for Active; 'I' for Inactive)
REMARK    1  A    between atoms: C_1  and  N_2
REMARK    2  A    between atoms: C_12  and  S_13
REMARK    3  A    between atoms: S_13  and  C_14
REMARK    4  A    between atoms: C_14  and  C_15
REMARK    5  A    between atoms: N_17  and  C_18
REMARK                            x       y       z     vdW  Elec       q    Type
REMARK                         _______ _______ _______ _____ _____    ______ ____
ROOT
ATOM      1  C   UNL     1      -0.227   9.424  22.839  0.00  0.00    +0.000 C 
ATOM      2  N   UNL     1       0.334   9.657  21.528  0.00  0.00    +0.000 N 
ATOM      3  C   UNL     1       0.308  10.840  20.816  0.00  0.00    +0.000 A 
ATOM      4  C   UNL     1      -0.230  12.101  21.131  0.00  0.00    +0.000 A 
ATOM      5  C   UNL     1      -0.098  13.127  20.192  0.00  0.00    +0.000 A 
ATOM      6  C   UNL     1       0.541  12.914  18.978  0.00  0.00    +0.000 A 
ATOM      7  C   UNL     1       1.074  11.654  18.665  0.00  0.00    +0.000 A 
ATOM      8  C   UNL     1       0.961  10.599  19.596  0.00  0.00    +0.000 A 
ATOM      9  C   UNL     1       1.377   9.239  19.607  0.00  0.00    +0.000 A 
ATOM     10  N   UNL     1       2.042   8.472  18.702  0.00  0.00    +0.000 NA
ATOM     11  N   UNL     1       2.260   7.195  19.050  0.00  0.00    +0.000 NA
ATOM     12  C   UNL     1       1.852   6.716  20.258  0.00  0.00    +0.000 A 
ATOM     13  N   UNL     1       1.190   7.415  21.200  0.00  0.00    +0.000 NA
ATOM     14  C   UNL     1       0.982   8.685  20.811  0.00  0.00    +0.000 A 
ENDROOT
BRANCH  12  15
ATOM     15  S   UNL     1       2.106   4.995  20.642  0.00  0.00    +0.000 S 
BRANCH  15  16
ATOM     16  C   UNL     1       1.706   4.201  19.061  0.00  0.00    +0.000 C 
BRANCH  16  17
ATOM     17  C   UNL     1       2.941   3.638  18.387  0.00  0.00    +0.000 C 
ATOM     18  O   UNL     1       3.068   2.439  18.155  0.00  0.00    +0.000 OA
ATOM     19  N   UNL     1       3.896   4.577  18.055  0.00  0.00    +0.000 N 
ATOM     20  H   UNL     1       3.711   5.560  18.225  0.00  0.00    +0.000 HD
BRANCH  19  21
ATOM     21  C   UNL     1       5.110   4.206  17.365  0.00  0.00    +0.000 C 
ATOM     22  C   UNL     1       5.250   4.864  15.997  0.00  0.00    +0.000 C 
ATOM     23  C   UNL     1       6.709   4.603  15.640  0.00  0.00    +0.000 C 
ATOM     24  C   UNL     1       7.458   4.561  16.975  0.00  0.00    +0.000 C 
ATOM     25  C   UNL     1       6.389   4.670  18.059  0.00  0.00    +0.000 C 
ENDBRANCH  19  21
ENDBRANCH  16  17
ENDBRANCH  15  16
ENDBRANCH  12  15
TORSDOF 4
ENDMDL
MODEL 9
REMARK VINA RESULT:      -6.6      2.239      6.028
REMARK  Name = 
REMARK  5 active torsions:
REMARK  status: ('A' for Active; 'I' for Inactive)
REMARK    1  A    between atoms: C_1  and  N_2
REMARK    2  A    between atoms: C_12  and  S_13
REMARK    3  A    between atoms: S_13  and  C_14
REMARK    4  A    between atoms: C_14  and  C_15
REMARK    5  A    between atoms: N_17  and  C_18
REMARK                            x       y       z     vdW  Elec       q    Type
REMARK                         _______ _______ _______ _____ _____    ______ ____
ROOT
ATOM      1  C   UNL     1       3.049   7.923  17.564  0.00  0.00    +0.000 C 
ATOM      2  N   UNL     1       2.400   7.564  18.803  0.00  0.00    +0.000 N 
ATOM      3  C   UNL     1       1.610   8.379  19.590  0.00  0.00    +0.000 A 
ATOM      4  C   UNL     1       1.215   9.720  19.432  0.00  0.00    +0.000 A 
ATOM      5  C   UNL     1       0.395  10.285  20.413  0.00  0.00    +0.000 A 
ATOM      6  C   UNL     1      -0.018   9.551  21.516  0.00  0.00    +0.000 A 
ATOM      7  C   UNL     1       0.380   8.214  21.672  0.00  0.00    +0.000 A 
ATOM      8  C   UNL     1       1.204   7.614  20.695  0.00  0.00    +0.000 A 
ATOM      9  C   UNL     1       1.774   6.320  20.540  0.00  0.00    +0.000 A 
ATOM     10  N   UNL     1       1.718   5.192  21.297  0.00  0.00    +0.000 NA
ATOM     11  N   UNL     1       2.404   4.134  20.839  0.00  0.00    +0.000 NA
ATOM     12  C   UNL     1       3.091   4.196  19.665  0.00  0.00    +0.000 A 
ATOM     13  N   UNL     1       3.190   5.276  18.866  0.00  0.00    +0.000 NA
ATOM     14  C   UNL     1       2.501   6.317  19.364  0.00  0.00    +0.000 A 
ENDROOT
BRANCH  12  15
ATOM     15  S   UNL     1       4.040   2.783  19.138  0.00  0.00    +0.000 S 
BRANCH  15  16
ATOM     16  C   UNL     1       4.090   3.022  17.341  0.00  0.00    +0.000 C 
BRANCH  16  17
ATOM     17  C   UNL     1       5.136   4.042  16.939  0.00  0.00    +0.000 C 
ATOM     18  O   UNL     1       5.234   4.457  15.787  0.00  0.00    +0.000 OA
ATOM     19  N   UNL     1       5.954   4.465  17.967  0.00  0.00    +0.000 N 
ATOM     20  H   UNL     1       5.790   4.126  18.909  0.00  0.00    +0.000 HD
BRANCH  19  21
ATOM     21  C   UNL     1       6.970   5.471  17.756  0.00  0.00    +0.000 C 
ATOM     22  C   UNL     1       6.407   6.805  17.277  0.00  0.00    +0.000 C 
ATOM     23  C   UNL     1       7.583   7.757  17.461  0.00  0.00    +0.000 C 
ATOM     24  C   UNL     1       8.377   7.207  18.648  0.00  0.00    +0.000 C 
ATOM     25  C   UNL     1       7.705   5.889  19.027  0.00  0.00    +0.000 C 
ENDBRANCH  19  21
ENDBRANCH  16  17
ENDBRANCH  15  16
ENDBRANCH  12  15
TORSDOF 4
ENDMDL
