MODEL 1
REMARK VINA RESULT:      -7.4      0.000      0.000
REMARK  Name = 
REMARK  12 active torsions:
REMARK  status: ('A' for Active; 'I' for Inactive)
REMARK    1  A    between atoms: C_1  and  O_2
REMARK    2  A    between atoms: O_2  and  C_3
REMARK    3  A    between atoms: C_3  and  C_5
REMARK    4  A    between atoms: C_5  and  C_6
REMARK    5  A    between atoms: C_5  and  C_25
REMARK    6  A    between atoms: C_6  and  C_7
REMARK    7  A    between atoms: C_8  and  C_9
REMARK    8  A    between atoms: C_17  and  C_18
REMARK    9  A    between atoms: C_17  and  C_19
REMARK   10  A    between atoms: C_22  and  C_23
REMARK   11  A    between atoms: C_25  and  O_27
REMARK   12  A    between atoms: O_27  and  C_28
REMARK                            x       y       z     vdW  Elec       q    Type
REMARK                         _______ _______ _______ _____ _____    ______ ____
ROOT
ATOM      1  C   UNL     1       3.172   4.748  18.391  0.00  0.00    +0.000 C 
ATOM      2  C   UNL     1       2.344   5.518  19.157  0.00  0.00    +0.000 C 
ATOM      3  C   UNL     1       1.456   4.861  20.193  0.00  0.00    +0.000 C 
ATOM      4  C   UNL     1       1.588   3.345  20.340  0.00  0.00    +0.000 C 
ATOM      5  C   UNL     1       0.379   2.622  19.730  0.00  0.00    +0.000 C 
ATOM      6  C   UNL     1       1.645   3.003  21.839  0.00  0.00    +0.000 C 
ATOM      7  O   UNL     1       2.837   2.859  19.858  0.00  0.00    +0.000 OA
ATOM      8  N   UNL     1       3.236   3.355  18.587  0.00  0.00    +0.000 N 
ATOM      9  C   UNL     1       4.024   2.423  17.889  0.00  0.00    +0.000 C 
ATOM     10  C   UNL     1       4.088   1.013  18.451  0.00  0.00    +0.000 C 
ATOM     11  O   UNL     1       4.676   2.661  16.869  0.00  0.00    +0.000 OA
ENDROOT
BRANCH   2  12
ATOM     12  C   UNL     1       2.131   7.013  19.092  0.00  0.00    +0.000 A 
ATOM     13  C   UNL     1       1.757   7.731  20.249  0.00  0.00    +0.000 A 
ATOM     14  C   UNL     1       1.546   9.117  20.237  0.00  0.00    +0.000 A 
ATOM     15  C   UNL     1       1.672   9.820  19.050  0.00  0.00    +0.000 A 
ATOM     16 CL   UNL     1       1.324  11.502  19.008  0.00  0.00    +0.000 Cl
ATOM     17  C   UNL     1       2.080   9.157  17.900  0.00  0.00    +0.000 A 
ATOM     18  C   UNL     1       2.352   7.779  17.937  0.00  0.00    +0.000 A 
ENDBRANCH   2  12
BRANCH   1  19
ATOM     19  C   UNL     1       4.096   5.324  17.313  0.00  0.00    +0.000 C 
BRANCH  19  20
ATOM     20  C   UNL     1       5.362   6.057  17.779  0.00  0.00    +0.000 C 
BRANCH  20  21
ATOM     21  C   UNL     1       5.967   6.778  16.592  0.00  0.00    +0.000 C 
ATOM     22  O   UNL     1       5.370   7.053  15.557  0.00  0.00    +0.000 OA
BRANCH  21  24
ATOM     23  C   UNL     1       7.524   8.294  17.506  0.00  0.00    +0.000 C 
ATOM     24  O   UNL     1       7.279   7.060  16.823  0.00  0.00    +0.000 OA
ENDBRANCH  21  24
ENDBRANCH  20  21
BRANCH  20  25
ATOM     25  C   UNL     1       6.329   5.099  18.426  0.00  0.00    +0.000 C 
ATOM     26  O   UNL     1       6.873   4.187  17.822  0.00  0.00    +0.000 OA
BRANCH  25  27
ATOM     27  O   UNL     1       6.567   5.420  19.730  0.00  0.00    +0.000 OA
ATOM     28  C   UNL     1       7.947   5.592  20.033  0.00  0.00    +0.000 C 
ENDBRANCH  25  27
ENDBRANCH  20  25
ENDBRANCH  19  20
ENDBRANCH   1  19
TORSDOF 7
ENDMDL
MODEL 2
REMARK VINA RESULT:      -7.4      0.677      1.178
REMARK  Name = 
REMARK  12 active torsions:
REMARK  status: ('A' for Active; 'I' for Inactive)
REMARK    1  A    between atoms: C_1  and  O_2
REMARK    2  A    between atoms: O_2  and  C_3
REMARK    3  A    between atoms: C_3  and  C_5
REMARK    4  A    between atoms: C_5  and  C_6
REMARK    5  A    between atoms: C_5  and  C_25
REMARK    6  A    between atoms: C_6  and  C_7
REMARK    7  A    between atoms: C_8  and  C_9
REMARK    8  A    between atoms: C_17  and  C_18
REMARK    9  A    between atoms: C_17  and  C_19
REMARK   10  A    between atoms: C_22  and  C_23
REMARK   11  A    between atoms: C_25  and  O_27
REMARK   12  A    between atoms: O_27  and  C_28
REMARK                            x       y       z     vdW  Elec       q    Type
REMARK                         _______ _______ _______ _____ _____    ______ ____
ROOT
ATOM      1  C   UNL     1       3.110   4.930  18.314  0.00  0.00    +0.000 C 
ATOM      2  C   UNL     1       2.234   5.640  19.083  0.00  0.00    +0.000 C 
ATOM      3  C   UNL     1       1.331   4.913  20.057  0.00  0.00    +0.000 C 
ATOM      4  C   UNL     1       1.503   3.397  20.143  0.00  0.00    +0.000 C 
ATOM      5  C   UNL     1       0.339   2.667  19.459  0.00  0.00    +0.000 C 
ATOM      6  C   UNL     1       1.519   2.990  21.626  0.00  0.00    +0.000 C 
ATOM      7  O   UNL     1       2.782   2.968  19.684  0.00  0.00    +0.000 OA
ATOM      8  N   UNL     1       3.209   3.531  18.451  0.00  0.00    +0.000 N 
ATOM      9  C   UNL     1       4.049   2.654  17.742  0.00  0.00    +0.000 C 
ATOM     10  C   UNL     1       4.136   1.223  18.245  0.00  0.00    +0.000 C 
ATOM     11  O   UNL     1       4.728   2.956  16.757  0.00  0.00    +0.000 OA
ENDROOT
BRANCH   2  12
ATOM     12  C   UNL     1       1.978   7.130  19.075  0.00  0.00    +0.000 A 
ATOM     13  C   UNL     1       1.649   7.803  20.272  0.00  0.00    +0.000 A 
ATOM     14  C   UNL     1       1.401   9.183  20.314  0.00  0.00    +0.000 A 
ATOM     15  C   UNL     1       1.444   9.923  19.143  0.00  0.00    +0.000 A 
ATOM     16 CL   UNL     1       1.050  11.596  19.172  0.00  0.00    +0.000 Cl
ATOM     17  C   UNL     1       1.806   9.306  17.954  0.00  0.00    +0.000 A 
ATOM     18  C   UNL     1       2.115   7.936  17.934  0.00  0.00    +0.000 A 
ENDBRANCH   2  12
BRANCH   1  19
ATOM     19  C   UNL     1       4.053   5.579  17.295  0.00  0.00    +0.000 C 
BRANCH  19  20
ATOM     20  C   UNL     1       5.297   6.297  17.835  0.00  0.00    +0.000 C 
BRANCH  20  21
ATOM     21  C   UNL     1       6.209   6.626  16.671  0.00  0.00    +0.000 C 
ATOM     22  O   UNL     1       7.125   7.441  16.705  0.00  0.00    +0.000 OA
BRANCH  21  24
ATOM     23  C   UNL     1       6.892   5.085  15.024  0.00  0.00    +0.000 C 
ATOM     24  O   UNL     1       5.856   5.908  15.570  0.00  0.00    +0.000 OA
ENDBRANCH  21  24
ENDBRANCH  20  21
BRANCH  20  25
ATOM     25  C   UNL     1       5.984   5.464  18.887  0.00  0.00    +0.000 C 
ATOM     26  O   UNL     1       5.495   5.233  19.982  0.00  0.00    +0.000 OA
BRANCH  25  27
ATOM     27  O   UNL     1       7.167   4.953  18.439  0.00  0.00    +0.000 OA
ATOM     28  C   UNL     1       8.283   5.297  19.253  0.00  0.00    +0.000 C 
ENDBRANCH  25  27
ENDBRANCH  20  25
ENDBRANCH  19  20
ENDBRANCH   1  19
TORSDOF 7
ENDMDL
MODEL 3
REMARK VINA RESULT:      -6.7      1.015      1.990
REMARK  Name = 
REMARK  12 active torsions:
REMARK  status: ('A' for Active; 'I' for Inactive)
REMARK    1  A    between atoms: C_1  and  O_2
REMARK    2  A    between atoms: O_2  and  C_3
REMARK    3  A    between atoms: C_3  and  C_5
REMARK    4  A    between atoms: C_5  and  C_6
REMARK    5  A    between atoms: C_5  and  C_25
REMARK    6  A    between atoms: C_6  and  C_7
REMARK    7  A    between atoms: C_8  and  C_9
REMARK    8  A    between atoms: C_17  and  C_18
REMARK    9  A    between atoms: C_17  and  C_19
REMARK   10  A    between atoms: C_22  and  C_23
REMARK   11  A    between atoms: C_25  and  O_27
REMARK   12  A    between atoms: O_27  and  C_28
REMARK                            x       y       z     vdW  Elec       q    Type
REMARK                         _______ _______ _______ _____ _____    ______ ____
ROOT
ATOM      1  C   UNL     1       3.019   4.977  18.375  0.00  0.00    +0.000 C 
ATOM      2  C   UNL     1       2.319   5.742  19.262  0.00  0.00    +0.000 C 
ATOM      3  C   UNL     1       1.645   5.086  20.450  0.00  0.00    +0.000 C 
ATOM      4  C   UNL     1       1.843   3.577  20.596  0.00  0.00    +0.000 C 
ATOM      5  C   UNL     1       0.567   2.812  20.221  0.00  0.00    +0.000 C 
ATOM      6  C   UNL     1       2.173   3.268  22.066  0.00  0.00    +0.000 C 
ATOM      7  O   UNL     1       3.001   3.111  19.908  0.00  0.00    +0.000 OA
ATOM      8  N   UNL     1       3.155   3.590  18.579  0.00  0.00    +0.000 N 
ATOM      9  C   UNL     1       3.834   2.663  17.768  0.00  0.00    +0.000 C 
ATOM     10  C   UNL     1       4.036   1.268  18.334  0.00  0.00    +0.000 C 
ATOM     11  O   UNL     1       4.289   2.896  16.645  0.00  0.00    +0.000 OA
ENDROOT
BRANCH   2  12
ATOM     12  C   UNL     1       2.055   7.230  19.211  0.00  0.00    +0.000 A 
ATOM     13  C   UNL     1       1.619   7.916  20.366  0.00  0.00    +0.000 A 
ATOM     14  C   UNL     1       1.360   9.295  20.366  0.00  0.00    +0.000 A 
ATOM     15  C   UNL     1       1.500  10.020  19.194  0.00  0.00    +0.000 A 
ATOM     16 CL   UNL     1       1.096  11.689  19.165  0.00  0.00    +0.000 Cl
ATOM     17  C   UNL     1       1.969   9.389  18.049  0.00  0.00    +0.000 A 
ATOM     18  C   UNL     1       2.287   8.021  18.076  0.00  0.00    +0.000 A 
ENDBRANCH   2  12
BRANCH   1  19
ATOM     19  C   UNL     1       3.723   5.552  17.141  0.00  0.00    +0.000 C 
BRANCH  19  20
ATOM     20  C   UNL     1       5.216   5.245  16.967  0.00  0.00    +0.000 C 
BRANCH  20  21
ATOM     21  C   UNL     1       5.956   5.723  18.199  0.00  0.00    +0.000 C 
ATOM     22  O   UNL     1       6.104   5.071  19.227  0.00  0.00    +0.000 OA
BRANCH  21  24
ATOM     23  C   UNL     1       7.827   7.158  18.192  0.00  0.00    +0.000 C 
ATOM     24  O   UNL     1       6.416   6.992  18.018  0.00  0.00    +0.000 OA
ENDBRANCH  21  24
ENDBRANCH  20  21
BRANCH  20  25
ATOM     25  C   UNL     1       5.747   5.865  15.700  0.00  0.00    +0.000 C 
ATOM     26  O   UNL     1       5.235   6.835  15.163  0.00  0.00    +0.000 OA
BRANCH  25  27
ATOM     27  O   UNL     1       6.893   5.256  15.276  0.00  0.00    +0.000 OA
ATOM     28  C   UNL     1       6.674   4.237  14.308  0.00  0.00    +0.000 C 
ENDBRANCH  25  27
ENDBRANCH  20  25
ENDBRANCH  19  20
ENDBRANCH   1  19
TORSDOF 7
ENDMDL
MODEL 4
REMARK VINA RESULT:      -6.7      1.096      2.038
REMARK  Name = 
REMARK  12 active torsions:
REMARK  status: ('A' for Active; 'I' for Inactive)
REMARK    1  A    between atoms: C_1  and  O_2
REMARK    2  A    between atoms: O_2  and  C_3
REMARK    3  A    between atoms: C_3  and  C_5
REMARK    4  A    between atoms: C_5  and  C_6
REMARK    5  A    between atoms: C_5  and  C_25
REMARK    6  A    between atoms: C_6  and  C_7
REMARK    7  A    between atoms: C_8  and  C_9
REMARK    8  A    between atoms: C_17  and  C_18
REMARK    9  A    between atoms: C_17  and  C_19
REMARK   10  A    between atoms: C_22  and  C_23
REMARK   11  A    between atoms: C_25  and  O_27
REMARK   12  A    between atoms: O_27  and  C_28
REMARK                            x       y       z     vdW  Elec       q    Type
REMARK                         _______ _______ _______ _____ _____    ______ ____
ROOT
ATOM      1  C   UNL     1       3.205   4.779  18.232  0.00  0.00    +0.000 C 
ATOM      2  C   UNL     1       2.475   5.607  19.035  0.00  0.00    +0.000 C 
ATOM      3  C   UNL     1       1.706   5.030  20.205  0.00  0.00    +0.000 C 
ATOM      4  C   UNL     1       1.845   3.525  20.434  0.00  0.00    +0.000 C 
ATOM      5  C   UNL     1       0.570   2.781  20.013  0.00  0.00    +0.000 C 
ATOM      6  C   UNL     1       2.070   3.278  21.936  0.00  0.00    +0.000 C 
ATOM      7  O   UNL     1       3.028   2.992  19.846  0.00  0.00    +0.000 OA
ATOM      8  N   UNL     1       3.282   3.400  18.509  0.00  0.00    +0.000 N 
ATOM      9  C   UNL     1       3.981   2.415  17.788  0.00  0.00    +0.000 C 
ATOM     10  C   UNL     1       4.100   1.044  18.430  0.00  0.00    +0.000 C 
ATOM     11  O   UNL     1       4.514   2.579  16.687  0.00  0.00    +0.000 OA
ENDROOT
BRANCH   2  12
ATOM     12  C   UNL     1       2.265   7.098  18.897  0.00  0.00    +0.000 A 
ATOM     13  C   UNL     1       1.763   7.850  19.982  0.00  0.00    +0.000 A 
ATOM     14  C   UNL     1       1.550   9.233  19.901  0.00  0.00    +0.000 A 
ATOM     15  C   UNL     1       1.804   9.899  18.713  0.00  0.00    +0.000 A 
ATOM     16 CL   UNL     1       1.457  11.576  18.578  0.00  0.00    +0.000 Cl
ATOM     17  C   UNL     1       2.339   9.202  17.637  0.00  0.00    +0.000 A 
ATOM     18  C   UNL     1       2.609   7.828  17.749  0.00  0.00    +0.000 A 
ENDBRANCH   2  12
BRANCH   1  19
ATOM     19  C   UNL     1       4.005   5.272  17.021  0.00  0.00    +0.000 C 
BRANCH  19  20
ATOM     20  C   UNL     1       5.536   5.221  17.111  0.00  0.00    +0.000 C 
BRANCH  20  21
ATOM     21  C   UNL     1       6.002   6.314  18.050  0.00  0.00    +0.000 C 
ATOM     22  O   UNL     1       6.018   7.511  17.783  0.00  0.00    +0.000 OA
BRANCH  21  24
ATOM     23  C   UNL     1       7.847   5.675  19.372  0.00  0.00    +0.000 C 
ATOM     24  O   UNL     1       6.426   5.781  19.229  0.00  0.00    +0.000 OA
ENDBRANCH  21  24
ENDBRANCH  20  21
BRANCH  20  25
ATOM     25  C   UNL     1       6.158   5.333  15.743  0.00  0.00    +0.000 C 
ATOM     26  O   UNL     1       7.320   5.663  15.561  0.00  0.00    +0.000 OA
BRANCH  25  27
ATOM     27  O   UNL     1       5.292   4.957  14.757  0.00  0.00    +0.000 OA
ATOM     28  C   UNL     1       5.861   4.062  13.809  0.00  0.00    +0.000 C 
ENDBRANCH  25  27
ENDBRANCH  20  25
ENDBRANCH  19  20
ENDBRANCH   1  19
TORSDOF 7
ENDMDL
MODEL 5
REMARK VINA RESULT:      -6.6      7.101      9.609
REMARK  Name = 
REMARK  12 active torsions:
REMARK  status: ('A' for Active; 'I' for Inactive)
REMARK    1  A    between atoms: C_1  and  O_2
REMARK    2  A    between atoms: O_2  and  C_3
REMARK    3  A    between atoms: C_3  and  C_5
REMARK    4  A    between atoms: C_5  and  C_6
REMARK    5  A    between atoms: C_5  and  C_25
REMARK    6  A    between atoms: C_6  and  C_7
REMARK    7  A    between atoms: C_8  and  C_9
REMARK    8  A    between atoms: C_17  and  C_18
REMARK    9  A    between atoms: C_17  and  C_19
REMARK   10  A    between atoms: C_22  and  C_23
REMARK   11  A    between atoms: C_25  and  O_27
REMARK   12  A    between atoms: O_27  and  C_28
REMARK                            x       y       z     vdW  Elec       q    Type
REMARK                         _______ _______ _______ _____ _____    ______ ____
ROOT
ATOM      1  C   UNL     1      -2.850  11.906  19.289  0.00  0.00    +0.000 C 
ATOM      2  C   UNL     1      -3.805  12.489  20.070  0.00  0.00    +0.000 C 
ATOM      3  C   UNL     1      -5.257  12.443  19.639  0.00  0.00    +0.000 C 
ATOM      4  C   UNL     1      -5.559  11.684  18.347  0.00  0.00    +0.000 C 
ATOM      5  C   UNL     1      -5.881  12.651  17.199  0.00  0.00    +0.000 C 
ATOM      6  C   UNL     1      -6.789  10.790  18.580  0.00  0.00    +0.000 C 
ATOM      7  O   UNL     1      -4.542  10.741  18.019  0.00  0.00    +0.000 OA
ATOM      8  N   UNL     1      -3.208  11.226  18.109  0.00  0.00    +0.000 N 
ATOM      9  C   UNL     1      -2.357  10.578  17.196  0.00  0.00    +0.000 C 
ATOM     10  C   UNL     1      -3.013   9.716  16.132  0.00  0.00    +0.000 C 
ATOM     11  O   UNL     1      -1.125  10.643  17.200  0.00  0.00    +0.000 OA
ENDROOT
BRANCH   2  12
ATOM     12  C   UNL     1      -3.619  13.265  21.354  0.00  0.00    +0.000 A 
ATOM     13  C   UNL     1      -3.955  12.681  22.595  0.00  0.00    +0.000 A 
ATOM     14  C   UNL     1      -3.802  13.361  23.811  0.00  0.00    +0.000 A 
ATOM     15  C   UNL     1      -3.337  14.666  23.813  0.00  0.00    +0.000 A 
ATOM     16 CL   UNL     1      -3.234  15.537  25.291  0.00  0.00    +0.000 Cl
ATOM     17  C   UNL     1      -2.955  15.260  22.618  0.00  0.00    +0.000 A 
ATOM     18  C   UNL     1      -3.052  14.547  21.412  0.00  0.00    +0.000 A 
ENDBRANCH   2  12
BRANCH   1  19
ATOM     19  C   UNL     1      -1.358  11.914  19.640  0.00  0.00    +0.000 C 
BRANCH  19  20
ATOM     20  C   UNL     1      -0.902  11.057  20.828  0.00  0.00    +0.000 C 
BRANCH  20  21
ATOM     21  C   UNL     1      -0.299  11.967  21.878  0.00  0.00    +0.000 C 
ATOM     22  O   UNL     1      -0.608  11.973  23.065  0.00  0.00    +0.000 OA
BRANCH  21  24
ATOM     23  C   UNL     1       0.608  14.142  21.810  0.00  0.00    +0.000 C 
ATOM     24  O   UNL     1       0.622  12.798  21.317  0.00  0.00    +0.000 OA
ENDBRANCH  21  24
ENDBRANCH  20  21
BRANCH  20  25
ATOM     25  C   UNL     1       0.054   9.982  20.380  0.00  0.00    +0.000 C 
ATOM     26  O   UNL     1       0.848  10.132  19.464  0.00  0.00    +0.000 OA
BRANCH  25  27
ATOM     27  O   UNL     1      -0.033   8.865  21.160  0.00  0.00    +0.000 OA
ATOM     28  C   UNL     1       1.231   8.355  21.568  0.00  0.00    +0.000 C 
ENDBRANCH  25  27
ENDBRANCH  20  25
ENDBRANCH  19  20
ENDBRANCH   1  19
TORSDOF 7
ENDMDL
MODEL 6
REMARK VINA RESULT:      -6.6      7.599     10.165
REMARK  Name = 
REMARK  12 active torsions:
REMARK  status: ('A' for Active; 'I' for Inactive)
REMARK    1  A    between atoms: C_1  and  O_2
REMARK    2  A    between atoms: O_2  and  C_3
REMARK    3  A    between atoms: C_3  and  C_5
REMARK    4  A    between atoms: C_5  and  C_6
REMARK    5  A    between atoms: C_5  and  C_25
REMARK    6  A    between atoms: C_6  and  C_7
REMARK    7  A    between atoms: C_8  and  C_9
REMARK    8  A    between atoms: C_17  and  C_18
REMARK    9  A    between atoms: C_17  and  C_19
REMARK   10  A    between atoms: C_22  and  C_23
REMARK   11  A    between atoms: C_25  and  O_27
REMARK   12  A    between atoms: O_27  and  C_28
REMARK                            x       y       z     vdW  Elec       q    Type
REMARK                         _______ _______ _______ _____ _____    ______ ____
ROOT
ATOM      1  C   UNL     1      -3.150  12.231  19.446  0.00  0.00    +0.000 C 
ATOM      2  C   UNL     1      -4.202  12.730  20.158  0.00  0.00    +0.000 C 
ATOM      3  C   UNL     1      -5.617  12.482  19.679  0.00  0.00    +0.000 C 
ATOM      4  C   UNL     1      -5.769  11.626  18.421  0.00  0.00    +0.000 C 
ATOM      5  C   UNL     1      -6.158  12.486  17.210  0.00  0.00    +0.000 C 
ATOM      6  C   UNL     1      -6.890  10.601  18.660  0.00  0.00    +0.000 C 
ATOM      7  O   UNL     1      -4.632  10.802  18.183  0.00  0.00    +0.000 OA
ATOM      8  N   UNL     1      -3.372  11.452  18.294  0.00  0.00    +0.000 N 
ATOM      9  C   UNL     1      -2.411  10.869  17.450  0.00  0.00    +0.000 C 
ATOM     10  C   UNL     1      -2.911   9.878  16.413  0.00  0.00    +0.000 C 
ATOM     11  O   UNL     1      -1.197  11.086  17.494  0.00  0.00    +0.000 OA
ENDROOT
BRANCH   2  12
ATOM     12  C   UNL     1      -4.166  13.588  21.402  0.00  0.00    +0.000 A 
ATOM     13  C   UNL     1      -4.066  14.993  21.297  0.00  0.00    +0.000 A 
ATOM     14  C   UNL     1      -4.028  15.829  22.422  0.00  0.00    +0.000 A 
ATOM     15  C   UNL     1      -4.056  15.273  23.691  0.00  0.00    +0.000 A 
ATOM     16 CL   UNL     1      -3.916  16.285  25.073  0.00  0.00    +0.000 Cl
ATOM     17  C   UNL     1      -4.198  13.900  23.836  0.00  0.00    +0.000 A 
ATOM     18  C   UNL     1      -4.300  13.076  22.702  0.00  0.00    +0.000 A 
ENDBRANCH   2  12
BRANCH   1  19
ATOM     19  C   UNL     1      -1.686  12.442  19.848  0.00  0.00    +0.000 C 
BRANCH  19  20
ATOM     20  C   UNL     1      -1.128  11.571  20.983  0.00  0.00    +0.000 C 
BRANCH  20  21
ATOM     21  C   UNL     1      -0.790  12.465  22.157  0.00  0.00    +0.000 C 
ATOM     22  O   UNL     1      -0.694  12.090  23.322  0.00  0.00    +0.000 OA
BRANCH  21  24
ATOM     23  C   UNL     1      -0.485  14.713  22.799  0.00  0.00    +0.000 C 
ATOM     24  O   UNL     1      -0.629  13.753  21.747  0.00  0.00    +0.000 OA
ENDBRANCH  21  24
ENDBRANCH  20  21
BRANCH  20  25
ATOM     25  C   UNL     1       0.056  10.768  20.510  0.00  0.00    +0.000 C 
ATOM     26  O   UNL     1       1.154  11.258  20.296  0.00  0.00    +0.000 OA
BRANCH  25  27
ATOM     27  O   UNL     1      -0.233   9.437  20.422  0.00  0.00    +0.000 OA
ATOM     28  C   UNL     1      -0.220   8.766  21.677  0.00  0.00    +0.000 C 
ENDBRANCH  25  27
ENDBRANCH  20  25
ENDBRANCH  19  20
ENDBRANCH   1  19
TORSDOF 7
ENDMDL
MODEL 7
REMARK VINA RESULT:      -6.6      7.361      9.925
REMARK  Name = 
REMARK  12 active torsions:
REMARK  status: ('A' for Active; 'I' for Inactive)
REMARK    1  A    between atoms: C_1  and  O_2
REMARK    2  A    between atoms: O_2  and  C_3
REMARK    3  A    between atoms: C_3  and  C_5
REMARK    4  A    between atoms: C_5  and  C_6
REMARK    5  A    between atoms: C_5  and  C_25
REMARK    6  A    between atoms: C_6  and  C_7
REMARK    7  A    between atoms: C_8  and  C_9
REMARK    8  A    between atoms: C_17  and  C_18
REMARK    9  A    between atoms: C_17  and  C_19
REMARK   10  A    between atoms: C_22  and  C_23
REMARK   11  A    between atoms: C_25  and  O_27
REMARK   12  A    between atoms: O_27  and  C_28
REMARK                            x       y       z     vdW  Elec       q    Type
REMARK                         _______ _______ _______ _____ _____    ______ ____
ROOT
ATOM      1  C   UNL     1      -3.159  12.157  19.330  0.00  0.00    +0.000 C 
ATOM      2  C   UNL     1      -4.127  12.551  20.207  0.00  0.00    +0.000 C 
ATOM      3  C   UNL     1      -5.581  12.263  19.899  0.00  0.00    +0.000 C 
ATOM      4  C   UNL     1      -5.862  11.488  18.611  0.00  0.00    +0.000 C 
ATOM      5  C   UNL     1      -6.445  12.407  17.528  0.00  0.00    +0.000 C 
ATOM      6  C   UNL     1      -6.896  10.391  18.916  0.00  0.00    +0.000 C 
ATOM      7  O   UNL     1      -4.733  10.742  18.167  0.00  0.00    +0.000 OA
ATOM      8  N   UNL     1      -3.499  11.447  18.162  0.00  0.00    +0.000 N 
ATOM      9  C   UNL     1      -2.634  10.974  17.159  0.00  0.00    +0.000 C 
ATOM     10  C   UNL     1      -3.225  10.031  16.125  0.00  0.00    +0.000 C 
ATOM     11  O   UNL     1      -1.435  11.251  17.061  0.00  0.00    +0.000 OA
ENDROOT
BRANCH   2  12
ATOM     12  C   UNL     1      -3.963  13.323  21.497  0.00  0.00    +0.000 A 
ATOM     13  C   UNL     1      -3.855  14.731  21.476  0.00  0.00    +0.000 A 
ATOM     14  C   UNL     1      -3.700  15.489  22.646  0.00  0.00    +0.000 A 
ATOM     15  C   UNL     1      -3.615  14.849  23.872  0.00  0.00    +0.000 A 
ATOM     16 CL   UNL     1      -3.332  15.765  25.298  0.00  0.00    +0.000 Cl
ATOM     17  C   UNL     1      -3.760  13.470  23.938  0.00  0.00    +0.000 A 
ATOM     18  C   UNL     1      -3.979  12.726  22.767  0.00  0.00    +0.000 A 
ENDBRANCH   2  12
BRANCH   1  19
ATOM     19  C   UNL     1      -1.665  12.416  19.554  0.00  0.00    +0.000 C 
BRANCH  19  20
ATOM     20  C   UNL     1      -0.914  11.470  20.502  0.00  0.00    +0.000 C 
BRANCH  20  21
ATOM     21  C   UNL     1      -0.500  12.249  21.733  0.00  0.00    +0.000 C 
ATOM     22  O   UNL     1      -0.528  13.471  21.835  0.00  0.00    +0.000 OA
BRANCH  21  24
ATOM     23  C   UNL     1      -1.041  10.458  23.168  0.00  0.00    +0.000 C 
ATOM     24  O   UNL     1      -0.069  11.404  22.710  0.00  0.00    +0.000 OA
ENDBRANCH  21  24
ENDBRANCH  20  21
BRANCH  20  25
ATOM     25  C   UNL     1       0.259  10.831  19.804  0.00  0.00    +0.000 C 
ATOM     26  O   UNL     1       0.390   9.622  19.686  0.00  0.00    +0.000 OA
BRANCH  25  27
ATOM     27  O   UNL     1       1.102  11.761  19.269  0.00  0.00    +0.000 OA
ATOM     28  C   UNL     1       1.983  11.233  18.284  0.00  0.00    +0.000 C 
ENDBRANCH  25  27
ENDBRANCH  20  25
ENDBRANCH  19  20
ENDBRANCH   1  19
TORSDOF 7
ENDMDL
MODEL 8
REMARK VINA RESULT:      -6.6      8.669     11.754
REMARK  Name = 
REMARK  12 active torsions:
REMARK  status: ('A' for Active; 'I' for Inactive)
REMARK    1  A    between atoms: C_1  and  O_2
REMARK    2  A    between atoms: O_2  and  C_3
REMARK    3  A    between atoms: C_3  and  C_5
REMARK    4  A    between atoms: C_5  and  C_6
REMARK    5  A    between atoms: C_5  and  C_25
REMARK    6  A    between atoms: C_6  and  C_7
REMARK    7  A    between atoms: C_8  and  C_9
REMARK    8  A    between atoms: C_17  and  C_18
REMARK    9  A    between atoms: C_17  and  C_19
REMARK   10  A    between atoms: C_22  and  C_23
REMARK   11  A    between atoms: C_25  and  O_27
REMARK   12  A    between atoms: O_27  and  C_28
REMARK                            x       y       z     vdW  Elec       q    Type
REMARK                         _______ _______ _______ _____ _____    ______ ____
ROOT
ATOM      1  C   UNL     1      -3.359  12.317  19.696  0.00  0.00    +0.000 C 
ATOM      2  C   UNL     1      -2.533  12.902  20.611  0.00  0.00    +0.000 C 
ATOM      3  C   UNL     1      -1.055  12.570  20.609  0.00  0.00    +0.000 C 
ATOM      4  C   UNL     1      -0.576  11.610  19.521  0.00  0.00    +0.000 C 
ATOM      5  C   UNL     1      -0.266  10.223  20.103  0.00  0.00    +0.000 C 
ATOM      6  C   UNL     1       0.718  12.172  18.908  0.00  0.00    +0.000 C 
ATOM      7  O   UNL     1      -1.461  11.566  18.405  0.00  0.00    +0.000 OA
ATOM      8  N   UNL     1      -2.840  11.439  18.725  0.00  0.00    +0.000 N 
ATOM      9  C   UNL     1      -3.545  10.753  17.719  0.00  0.00    +0.000 C 
ATOM     10  C   UNL     1      -2.721  10.056  16.650  0.00  0.00    +0.000 C 
ATOM     11  O   UNL     1      -4.773  10.685  17.629  0.00  0.00    +0.000 OA
ENDROOT
BRANCH   2  12
ATOM     12  C   UNL     1      -2.899  13.855  21.727  0.00  0.00    +0.000 A 
ATOM     13  C   UNL     1      -2.869  13.422  23.071  0.00  0.00    +0.000 A 
ATOM     14  C   UNL     1      -3.202  14.268  24.139  0.00  0.00    +0.000 A 
ATOM     15  C   UNL     1      -3.608  15.568  23.885  0.00  0.00    +0.000 A 
ATOM     16 CL   UNL     1      -4.105  16.580  25.181  0.00  0.00    +0.000 Cl
ATOM     17  C   UNL     1      -3.608  16.043  22.580  0.00  0.00    +0.000 A 
ATOM     18  C   UNL     1      -3.211  15.207  21.523  0.00  0.00    +0.000 A 
ENDBRANCH   2  12
BRANCH   1  19
ATOM     19  C   UNL     1      -4.866  12.584  19.631  0.00  0.00    +0.000 C 
BRANCH  19  20
ATOM     20  C   UNL     1      -5.748  11.947  20.714  0.00  0.00    +0.000 C 
BRANCH  20  21
ATOM     21  C   UNL     1      -6.900  11.230  20.040  0.00  0.00    +0.000 C 
ATOM     22  O   UNL     1      -7.502  11.640  19.052  0.00  0.00    +0.000 OA
BRANCH  21  24
ATOM     23  C   UNL     1      -7.217   8.900  19.879  0.00  0.00    +0.000 C 
ATOM     24  O   UNL     1      -7.193  10.075  20.697  0.00  0.00    +0.000 OA
ENDBRANCH  21  24
ENDBRANCH  20  21
BRANCH  20  25
ATOM     25  C   UNL     1      -6.215  12.983  21.704  0.00  0.00    +0.000 C 
ATOM     26  O   UNL     1      -6.581  14.102  21.379  0.00  0.00    +0.000 OA
BRANCH  25  27
ATOM     27  O   UNL     1      -6.241  12.495  22.978  0.00  0.00    +0.000 OA
ATOM     28  C   UNL     1      -6.885  13.358  23.907  0.00  0.00    +0.000 C 
ENDBRANCH  25  27
ENDBRANCH  20  25
ENDBRANCH  19  20
ENDBRANCH   1  19
TORSDOF 7
ENDMDL
MODEL 9
REMARK VINA RESULT:      -6.5      7.274      9.900
REMARK  Name = 
REMARK  12 active torsions:
REMARK  status: ('A' for Active; 'I' for Inactive)
REMARK    1  A    between atoms: C_1  and  O_2
REMARK    2  A    between atoms: O_2  and  C_3
REMARK    3  A    between atoms: C_3  and  C_5
REMARK    4  A    between atoms: C_5  and  C_6
REMARK    5  A    between atoms: C_5  and  C_25
REMARK    6  A    between atoms: C_6  and  C_7
REMARK    7  A    between atoms: C_8  and  C_9
REMARK    8  A    between atoms: C_17  and  C_18
REMARK    9  A    between atoms: C_17  and  C_19
REMARK   10  A    between atoms: C_22  and  C_23
REMARK   11  A    between atoms: C_25  and  O_27
REMARK   12  A    between atoms: O_27  and  C_28
REMARK                            x       y       z     vdW  Elec       q    Type
REMARK                         _______ _______ _______ _____ _____    ______ ____
ROOT
ATOM      1  C   UNL     1      -3.131  12.322  19.547  0.00  0.00    +0.000 C 
ATOM      2  C   UNL     1      -3.940  12.708  20.575  0.00  0.00    +0.000 C 
ATOM      3  C   UNL     1      -5.442  12.559  20.445  0.00  0.00    +0.000 C 
ATOM      4  C   UNL     1      -5.952  11.927  19.149  0.00  0.00    +0.000 C 
ATOM      5  C   UNL     1      -6.587  12.982  18.232  0.00  0.00    +0.000 C 
ATOM      6  C   UNL     1      -7.030  10.889  19.504  0.00  0.00    +0.000 C 
ATOM      7  O   UNL     1      -4.958  11.141  18.499  0.00  0.00    +0.000 OA
ATOM      8  N   UNL     1      -3.679  11.749  18.383  0.00  0.00    +0.000 N 
ATOM      9  C   UNL     1      -2.994  11.303  17.238  0.00  0.00    +0.000 C 
ATOM     10  C   UNL     1      -3.793  10.505  16.222  0.00  0.00    +0.000 C 
ATOM     11  O   UNL     1      -1.799  11.496  17.001  0.00  0.00    +0.000 OA
ENDROOT
BRANCH   2  12
ATOM     12  C   UNL     1      -3.545  13.346  21.888  0.00  0.00    +0.000 A 
ATOM     13  C   UNL     1      -3.810  12.686  23.109  0.00  0.00    +0.000 A 
ATOM     14  C   UNL     1      -3.464  13.238  24.350  0.00  0.00    +0.000 A 
ATOM     15  C   UNL     1      -2.870  14.489  24.403  0.00  0.00    +0.000 A 
ATOM     16 CL   UNL     1      -2.529  15.212  25.925  0.00  0.00    +0.000 Cl
ATOM     17  C   UNL     1      -2.554  15.150  23.224  0.00  0.00    +0.000 A 
ATOM     18  C   UNL     1      -2.847  14.559  21.983  0.00  0.00    +0.000 A 
ENDBRANCH   2  12
BRANCH   1  19
ATOM     19  C   UNL     1      -1.604  12.446  19.586  0.00  0.00    +0.000 C 
BRANCH  19  20
ATOM     20  C   UNL     1      -0.813  11.293  20.220  0.00  0.00    +0.000 C 
BRANCH  20  21
ATOM     21  C   UNL     1      -0.489  11.659  21.653  0.00  0.00    +0.000 C 
ATOM     22  O   UNL     1       0.179  12.628  21.998  0.00  0.00    +0.000 OA
BRANCH  21  24
ATOM     23  C   UNL     1      -0.121   9.733  22.962  0.00  0.00    +0.000 C 
ATOM     24  O   UNL     1      -1.025  10.748  22.512  0.00  0.00    +0.000 OA
ENDBRANCH  21  24
ENDBRANCH  20  21
BRANCH  20  25
ATOM     25  C   UNL     1       0.420  10.980  19.413  0.00  0.00    +0.000 C 
ATOM     26  O   UNL     1       1.188  11.837  19.003  0.00  0.00    +0.000 OA
BRANCH  25  27
ATOM     27  O   UNL     1       0.602   9.636  19.261  0.00  0.00    +0.000 OA
ATOM     28  C   UNL     1       1.422   9.292  18.150  0.00  0.00    +0.000 C 
ENDBRANCH  25  27
ENDBRANCH  20  25
ENDBRANCH  19  20
ENDBRANCH   1  19
TORSDOF 7
ENDMDL
