MODEL 1
REMARK VINA RESULT:      -7.5      0.000      0.000
REMARK  Name = 
REMARK  7 active torsions:
REMARK  status: ('A' for Active; 'I' for Inactive)
REMARK    1  A    between atoms: C_1  and  C_2
REMARK    2  A    between atoms: C_2  and  O_3
REMARK    3  A    between atoms: O_3  and  C_4
REMARK    4  A    between atoms: C_7  and  C_8
REMARK    5  A    between atoms: C_12  and  C_13
REMARK    6  A    between atoms: C_16  and  C_17
REMARK    7  A    between atoms: C_19  and  O_20
REMARK                            x       y       z     vdW  Elec       q    Type
REMARK                         _______ _______ _______ _____ _____    ______ ____
ROOT
ATOM      1  C   UNL     1       4.118   3.934  19.227  0.00  0.00    +0.000 A 
ATOM      2  N   UNL     1       4.024   2.719  19.866  0.00  0.00    +0.000 N 
ATOM      3  N   UNL     1       3.076   2.666  20.822  0.00  0.00    +0.000 NA
ATOM      4  C   UNL     1       2.484   3.860  20.733  0.00  0.00    +0.000 A 
ATOM      5  C   UNL     1       3.074   4.680  19.754  0.00  0.00    +0.000 A 
ATOM      6  H   UNL     1       4.596   1.896  19.712  0.00  0.00    +0.000 HD
ENDROOT
BRANCH   1  10
ATOM      7  C   UNL     1       6.918   4.937  16.127  0.00  0.00    +0.000 A 
ATOM      8  C   UNL     1       5.734   4.265  15.838  0.00  0.00    +0.000 A 
ATOM      9  C   UNL     1       4.863   3.889  16.864  0.00  0.00    +0.000 A 
ATOM     10  C   UNL     1       5.123   4.225  18.198  0.00  0.00    +0.000 A 
ATOM     11  C   UNL     1       6.339   4.872  18.474  0.00  0.00    +0.000 A 
ATOM     12  C   UNL     1       7.235   5.220  17.453  0.00  0.00    +0.000 A 
BRANCH  11  13
ATOM     13  O   UNL     1       6.707   5.235  19.745  0.00  0.00    +0.000 OA
ATOM     14  H   UNL     1       7.543   4.778  19.943  0.00  0.00    +0.000 HD
ENDBRANCH  11  13
BRANCH   7  15
ATOM     15  O   UNL     1       7.640   5.315  15.030  0.00  0.00    +0.000 OA
BRANCH  15  17
ATOM     16  C   UNL     1       8.021   5.467  12.686  0.00  0.00    +0.000 C 
ATOM     17  C   UNL     1       7.203   4.797  13.776  0.00  0.00    +0.000 C 
ENDBRANCH  15  17
ENDBRANCH   7  15
ENDBRANCH   1  10
BRANCH   5  18
ATOM     18  C   UNL     1       2.625   6.036  19.428  0.00  0.00    +0.000 A 
ATOM     19  C   UNL     1       2.814   6.696  18.231  0.00  0.00    +0.000 A 
ATOM     20  S   UNL     1       2.205   8.296  18.346  0.00  0.00    +0.000 S 
ATOM     21  C   UNL     1       1.725   7.984  19.966  0.00  0.00    +0.000 A 
ATOM     22  C   UNL     1       1.081   9.042  20.792  0.00  0.00    +0.000 C 
ATOM     23  N   UNL     1       1.980   6.771  20.403  0.00  0.00    +0.000 NA
ENDBRANCH   5  18
TORSDOF 5
ENDMDL
MODEL 2
REMARK VINA RESULT:      -7.4      3.435      6.158
REMARK  Name = 
REMARK  7 active torsions:
REMARK  status: ('A' for Active; 'I' for Inactive)
REMARK    1  A    between atoms: C_1  and  C_2
REMARK    2  A    between atoms: C_2  and  O_3
REMARK    3  A    between atoms: O_3  and  C_4
REMARK    4  A    between atoms: C_7  and  C_8
REMARK    5  A    between atoms: C_12  and  C_13
REMARK    6  A    between atoms: C_16  and  C_17
REMARK    7  A    between atoms: C_19  and  O_20
REMARK                            x       y       z     vdW  Elec       q    Type
REMARK                         _______ _______ _______ _____ _____    ______ ____
ROOT
ATOM      1  C   UNL     1       5.194   4.408  15.777  0.00  0.00    +0.000 A 
ATOM      2  N   UNL     1       5.158   3.810  14.538  0.00  0.00    +0.000 N 
ATOM      3  N   UNL     1       6.273   3.988  13.803  0.00  0.00    +0.000 NA
ATOM      4  C   UNL     1       7.085   4.648  14.632  0.00  0.00    +0.000 A 
ATOM      5  C   UNL     1       6.479   4.921  15.872  0.00  0.00    +0.000 A 
ATOM      6  H   UNL     1       4.391   3.290  14.127  0.00  0.00    +0.000 HD
ENDROOT
BRANCH   1  10
ATOM      7  C   UNL     1       2.006   4.231  18.652  0.00  0.00    +0.000 A 
ATOM      8  C   UNL     1       2.409   3.097  17.952  0.00  0.00    +0.000 A 
ATOM      9  C   UNL     1       3.404   3.183  16.975  0.00  0.00    +0.000 A 
ATOM     10  C   UNL     1       4.062   4.390  16.711  0.00  0.00    +0.000 A 
ATOM     11  C   UNL     1       3.618   5.530  17.401  0.00  0.00    +0.000 A 
ATOM     12  C   UNL     1       2.596   5.459  18.358  0.00  0.00    +0.000 A 
BRANCH  11  13
ATOM     13  O   UNL     1       4.178   6.768  17.212  0.00  0.00    +0.000 OA
ATOM     14  H   UNL     1       3.505   7.427  17.455  0.00  0.00    +0.000 HD
ENDBRANCH  11  13
BRANCH   7  15
ATOM     15  O   UNL     1       1.083   3.998  19.632  0.00  0.00    +0.000 OA
BRANCH  15  17
ATOM     16  C   UNL     1       2.100   3.234  21.644  0.00  0.00    +0.000 C 
ATOM     17  C   UNL     1       1.286   2.832  20.426  0.00  0.00    +0.000 C 
ENDBRANCH  15  17
ENDBRANCH   7  15
ENDBRANCH   1  10
BRANCH   5  18
ATOM     18  C   UNL     1       7.136   5.620  16.980  0.00  0.00    +0.000 A 
ATOM     19  C   UNL     1       7.471   5.081  18.205  0.00  0.00    +0.000 A 
ATOM     20  S   UNL     1       8.130   6.300  19.217  0.00  0.00    +0.000 S 
ATOM     21  C   UNL     1       7.935   7.442  17.948  0.00  0.00    +0.000 A 
ATOM     22  C   UNL     1       8.311   8.870  18.137  0.00  0.00    +0.000 C 
ATOM     23  N   UNL     1       7.428   6.962  16.834  0.00  0.00    +0.000 NA
ENDBRANCH   5  18
TORSDOF 5
ENDMDL
MODEL 3
REMARK VINA RESULT:      -7.3      3.514      6.238
REMARK  Name = 
REMARK  7 active torsions:
REMARK  status: ('A' for Active; 'I' for Inactive)
REMARK    1  A    between atoms: C_1  and  C_2
REMARK    2  A    between atoms: C_2  and  O_3
REMARK    3  A    between atoms: O_3  and  C_4
REMARK    4  A    between atoms: C_7  and  C_8
REMARK    5  A    between atoms: C_12  and  C_13
REMARK    6  A    between atoms: C_16  and  C_17
REMARK    7  A    between atoms: C_19  and  O_20
REMARK                            x       y       z     vdW  Elec       q    Type
REMARK                         _______ _______ _______ _____ _____    ______ ____
ROOT
ATOM      1  C   UNL     1       5.171   4.356  15.974  0.00  0.00    +0.000 A 
ATOM      2  N   UNL     1       5.060   3.758  14.739  0.00  0.00    +0.000 N 
ATOM      3  N   UNL     1       6.052   4.070  13.882  0.00  0.00    +0.000 NA
ATOM      4  C   UNL     1       6.871   4.824  14.619  0.00  0.00    +0.000 A 
ATOM      5  C   UNL     1       6.387   5.021  15.925  0.00  0.00    +0.000 A 
ATOM      6  H   UNL     1       4.319   3.149  14.414  0.00  0.00    +0.000 HD
ENDROOT
BRANCH   1  10
ATOM      7  C   UNL     1       2.076   3.966  18.929  0.00  0.00    +0.000 A 
ATOM      8  C   UNL     1       2.455   5.214  18.444  0.00  0.00    +0.000 A 
ATOM      9  C   UNL     1       3.506   5.331  17.530  0.00  0.00    +0.000 A 
ATOM     10  C   UNL     1       4.167   4.201  17.034  0.00  0.00    +0.000 A 
ATOM     11  C   UNL     1       3.795   2.953  17.562  0.00  0.00    +0.000 A 
ATOM     12  C   UNL     1       2.766   2.832  18.506  0.00  0.00    +0.000 A 
BRANCH  11  13
ATOM     13  O   UNL     1       4.384   1.780  17.163  0.00  0.00    +0.000 OA
ATOM     14  H   UNL     1       3.932   1.058  17.633  0.00  0.00    +0.000 HD
ENDBRANCH  11  13
BRANCH   7  15
ATOM     15  O   UNL     1       0.987   3.983  19.754  0.00  0.00    +0.000 OA
BRANCH  15  17
ATOM     16  C   UNL     1       1.984   3.318  21.811  0.00  0.00    +0.000 C 
ATOM     17  C   UNL     1       0.941   2.975  20.761  0.00  0.00    +0.000 C 
ENDBRANCH  15  17
ENDBRANCH   7  15
ENDBRANCH   1  10
BRANCH   5  18
ATOM     18  C   UNL     1       7.081   5.795  16.959  0.00  0.00    +0.000 A 
ATOM     19  C   UNL     1       7.531   5.320  18.174  0.00  0.00    +0.000 A 
ATOM     20  S   UNL     1       8.192   6.609  19.093  0.00  0.00    +0.000 S 
ATOM     21  C   UNL     1       7.845   7.691  17.804  0.00  0.00    +0.000 A 
ATOM     22  C   UNL     1       8.154   9.143  17.918  0.00  0.00    +0.000 C 
ATOM     23  N   UNL     1       7.287   7.144  16.747  0.00  0.00    +0.000 NA
ENDBRANCH   5  18
TORSDOF 5
ENDMDL
MODEL 4
REMARK VINA RESULT:      -7.3      3.446      6.346
REMARK  Name = 
REMARK  7 active torsions:
REMARK  status: ('A' for Active; 'I' for Inactive)
REMARK    1  A    between atoms: C_1  and  C_2
REMARK    2  A    between atoms: C_2  and  O_3
REMARK    3  A    between atoms: O_3  and  C_4
REMARK    4  A    between atoms: C_7  and  C_8
REMARK    5  A    between atoms: C_12  and  C_13
REMARK    6  A    between atoms: C_16  and  C_17
REMARK    7  A    between atoms: C_19  and  O_20
REMARK                            x       y       z     vdW  Elec       q    Type
REMARK                         _______ _______ _______ _____ _____    ______ ____
ROOT
ATOM      1  C   UNL     1       2.771   5.399  18.035  0.00  0.00    +0.000 A 
ATOM      2  N   UNL     1       1.861   4.446  17.638  0.00  0.00    +0.000 N 
ATOM      3  N   UNL     1       2.414   3.341  17.102  0.00  0.00    +0.000 NA
ATOM      4  C   UNL     1       3.725   3.554  17.240  0.00  0.00    +0.000 A 
ATOM      5  C   UNL     1       4.005   4.803  17.825  0.00  0.00    +0.000 A 
ATOM      6  H   UNL     1       0.850   4.504  17.682  0.00  0.00    +0.000 HD
ENDROOT
BRANCH   1  10
ATOM      7  C   UNL     1       1.435   9.198  19.533  0.00  0.00    +0.000 A 
ATOM      8  C   UNL     1       1.776   9.031  18.194  0.00  0.00    +0.000 A 
ATOM      9  C   UNL     1       2.268   7.807  17.735  0.00  0.00    +0.000 A 
ATOM     10  C   UNL     1       2.380   6.702  18.587  0.00  0.00    +0.000 A 
ATOM     11  C   UNL     1       2.066   6.899  19.942  0.00  0.00    +0.000 A 
ATOM     12  C   UNL     1       1.605   8.134  20.418  0.00  0.00    +0.000 A 
BRANCH  11  13
ATOM     13  O   UNL     1       2.153   5.893  20.871  0.00  0.00    +0.000 OA
ATOM     14  H   UNL     1       1.546   5.187  20.587  0.00  0.00    +0.000 HD
ENDBRANCH  11  13
BRANCH   7  15
ATOM     15  O   UNL     1       0.894  10.415  19.836  0.00  0.00    +0.000 OA
BRANCH  15  17
ATOM     16  C   UNL     1      -1.315  10.761  19.019  0.00  0.00    +0.000 C 
ATOM     17  C   UNL     1      -0.474  10.417  20.237  0.00  0.00    +0.000 C 
ENDBRANCH  15  17
ENDBRANCH   7  15
ENDBRANCH   1  10
BRANCH   5  18
ATOM     18  C   UNL     1       5.354   5.300  18.110  0.00  0.00    +0.000 A 
ATOM     19  C   UNL     1       6.247   4.774  19.021  0.00  0.00    +0.000 A 
ATOM     20  S   UNL     1       7.659   5.746  19.081  0.00  0.00    +0.000 S 
ATOM     21  C   UNL     1       6.985   6.778  17.885  0.00  0.00    +0.000 A 
ATOM     22  C   UNL     1       7.719   7.984  17.410  0.00  0.00    +0.000 C 
ATOM     23  N   UNL     1       5.795   6.430  17.448  0.00  0.00    +0.000 NA
ENDBRANCH   5  18
TORSDOF 5
ENDMDL
MODEL 5
REMARK VINA RESULT:      -7.2      2.931      6.171
REMARK  Name = 
REMARK  7 active torsions:
REMARK  status: ('A' for Active; 'I' for Inactive)
REMARK    1  A    between atoms: C_1  and  C_2
REMARK    2  A    between atoms: C_2  and  O_3
REMARK    3  A    between atoms: O_3  and  C_4
REMARK    4  A    between atoms: C_7  and  C_8
REMARK    5  A    between atoms: C_12  and  C_13
REMARK    6  A    between atoms: C_16  and  C_17
REMARK    7  A    between atoms: C_19  and  O_20
REMARK                            x       y       z     vdW  Elec       q    Type
REMARK                         _______ _______ _______ _____ _____    ______ ____
ROOT
ATOM      1  C   UNL     1       2.590   4.264  18.592  0.00  0.00    +0.000 A 
ATOM      2  N   UNL     1       1.661   3.310  18.938  0.00  0.00    +0.000 N 
ATOM      3  N   UNL     1       1.989   2.057  18.566  0.00  0.00    +0.000 NA
ATOM      4  C   UNL     1       3.208   2.201  18.040  0.00  0.00    +0.000 A 
ATOM      5  C   UNL     1       3.638   3.540  18.044  0.00  0.00    +0.000 A 
ATOM      6  H   UNL     1       0.774   3.455  19.405  0.00  0.00    +0.000 HD
ENDROOT
BRANCH   1  10
ATOM      7  C   UNL     1       1.847   8.449  19.224  0.00  0.00    +0.000 A 
ATOM      8  C   UNL     1       2.155   7.955  17.960  0.00  0.00    +0.000 A 
ATOM      9  C   UNL     1       2.456   6.602  17.781  0.00  0.00    +0.000 A 
ATOM     10  C   UNL     1       2.402   5.697  18.848  0.00  0.00    +0.000 A 
ATOM     11  C   UNL     1       2.125   6.220  20.122  0.00  0.00    +0.000 A 
ATOM     12  C   UNL     1       1.857   7.582  20.316  0.00  0.00    +0.000 A 
BRANCH  11  13
ATOM     13  O   UNL     1       2.063   5.431  21.243  0.00  0.00    +0.000 OA
ATOM     14  H   UNL     1       1.137   5.148  21.342  0.00  0.00    +0.000 HD
ENDBRANCH  11  13
BRANCH   7  15
ATOM     15  O   UNL     1       1.497   9.769  19.250  0.00  0.00    +0.000 OA
BRANCH  15  17
ATOM     16  C   UNL     1      -0.826  10.284  19.191  0.00  0.00    +0.000 C 
ATOM     17  C   UNL     1       0.392  10.113  20.082  0.00  0.00    +0.000 C 
ENDBRANCH  15  17
ENDBRANCH   7  15
ENDBRANCH   1  10
BRANCH   5  18
ATOM     18  C   UNL     1       4.938   3.995  17.543  0.00  0.00    +0.000 A 
ATOM     19  C   UNL     1       5.982   4.488  18.299  0.00  0.00    +0.000 A 
ATOM     20  S   UNL     1       7.262   4.986  17.271  0.00  0.00    +0.000 S 
ATOM     21  C   UNL     1       6.341   4.494  15.907  0.00  0.00    +0.000 A 
ATOM     22  C   UNL     1       6.867   4.668  14.524  0.00  0.00    +0.000 C 
ATOM     23  N   UNL     1       5.164   3.978  16.180  0.00  0.00    +0.000 NA
ENDBRANCH   5  18
TORSDOF 5
ENDMDL
MODEL 6
REMARK VINA RESULT:      -7.2      3.202      6.013
REMARK  Name = 
REMARK  7 active torsions:
REMARK  status: ('A' for Active; 'I' for Inactive)
REMARK    1  A    between atoms: C_1  and  C_2
REMARK    2  A    between atoms: C_2  and  O_3
REMARK    3  A    between atoms: O_3  and  C_4
REMARK    4  A    between atoms: C_7  and  C_8
REMARK    5  A    between atoms: C_12  and  C_13
REMARK    6  A    between atoms: C_16  and  C_17
REMARK    7  A    between atoms: C_19  and  O_20
REMARK                            x       y       z     vdW  Elec       q    Type
REMARK                         _______ _______ _______ _____ _____    ______ ____
ROOT
ATOM      1  C   UNL     1       2.490   4.534  18.328  0.00  0.00    +0.000 A 
ATOM      2  N   UNL     1       1.496   3.585  18.412  0.00  0.00    +0.000 N 
ATOM      3  N   UNL     1       1.849   2.370  17.948  0.00  0.00    +0.000 NA
ATOM      4  C   UNL     1       3.138   2.523  17.635  0.00  0.00    +0.000 A 
ATOM      5  C   UNL     1       3.594   3.834  17.864  0.00  0.00    +0.000 A 
ATOM      6  H   UNL     1       0.551   3.713  18.753  0.00  0.00    +0.000 HD
ENDROOT
BRANCH   1  10
ATOM      7  C   UNL     1       1.729   8.631  19.372  0.00  0.00    +0.000 A 
ATOM      8  C   UNL     1       1.977   8.258  18.054  0.00  0.00    +0.000 A 
ATOM      9  C   UNL     1       2.285   6.932  17.739  0.00  0.00    +0.000 A 
ATOM     10  C   UNL     1       2.298   5.935  18.721  0.00  0.00    +0.000 A 
ATOM     11  C   UNL     1       2.081   6.336  20.050  0.00  0.00    +0.000 A 
ATOM     12  C   UNL     1       1.806   7.671  20.379  0.00  0.00    +0.000 A 
BRANCH  11  13
ATOM     13  O   UNL     1       2.086   5.450  21.096  0.00  0.00    +0.000 OA
ATOM     14  H   UNL     1       2.668   5.819  21.783  0.00  0.00    +0.000 HD
ENDBRANCH  11  13
BRANCH   7  15
ATOM     15  O   UNL     1       1.364   9.938  19.534  0.00  0.00    +0.000 OA
BRANCH  15  17
ATOM     16  C   UNL     1      -0.948  10.350  19.150  0.00  0.00    +0.000 C 
ATOM     17  C   UNL     1       0.452  10.464  18.573  0.00  0.00    +0.000 C 
ENDBRANCH  15  17
ENDBRANCH   7  15
ENDBRANCH   1  10
BRANCH   5  18
ATOM     18  C   UNL     1       4.966   4.288  17.625  0.00  0.00    +0.000 A 
ATOM     19  C   UNL     1       5.687   4.141  16.457  0.00  0.00    +0.000 A 
ATOM     20  S   UNL     1       7.280   4.737  16.677  0.00  0.00    +0.000 S 
ATOM     21  C   UNL     1       6.886   5.160  18.295  0.00  0.00    +0.000 A 
ATOM     22  C   UNL     1       7.902   5.769  19.197  0.00  0.00    +0.000 C 
ATOM     23  N   UNL     1       5.652   4.894  18.660  0.00  0.00    +0.000 NA
ENDBRANCH   5  18
TORSDOF 5
ENDMDL
MODEL 7
REMARK VINA RESULT:      -7.1      3.368      7.090
REMARK  Name = 
REMARK  7 active torsions:
REMARK  status: ('A' for Active; 'I' for Inactive)
REMARK    1  A    between atoms: C_1  and  C_2
REMARK    2  A    between atoms: C_2  and  O_3
REMARK    3  A    between atoms: O_3  and  C_4
REMARK    4  A    between atoms: C_7  and  C_8
REMARK    5  A    between atoms: C_12  and  C_13
REMARK    6  A    between atoms: C_16  and  C_17
REMARK    7  A    between atoms: C_19  and  O_20
REMARK                            x       y       z     vdW  Elec       q    Type
REMARK                         _______ _______ _______ _____ _____    ______ ____
ROOT
ATOM      1  C   UNL     1       3.266   6.869  18.130  0.00  0.00    +0.000 A 
ATOM      2  N   UNL     1       4.266   7.350  17.316  0.00  0.00    +0.000 N 
ATOM      3  N   UNL     1       5.046   6.395  16.773  0.00  0.00    +0.000 NA
ATOM      4  C   UNL     1       4.474   5.260  17.183  0.00  0.00    +0.000 A 
ATOM      5  C   UNL     1       3.361   5.490  18.011  0.00  0.00    +0.000 A 
ATOM      6  H   UNL     1       4.482   8.319  17.113  0.00  0.00    +0.000 HD
ENDROOT
BRANCH   1  10
ATOM      7  C   UNL     1       0.735   9.472  20.428  0.00  0.00    +0.000 A 
ATOM      8  C   UNL     1       1.230   8.288  20.967  0.00  0.00    +0.000 A 
ATOM      9  C   UNL     1       2.001   7.421  20.188  0.00  0.00    +0.000 A 
ATOM     10  C   UNL     1       2.343   7.739  18.868  0.00  0.00    +0.000 A 
ATOM     11  C   UNL     1       1.805   8.920  18.329  0.00  0.00    +0.000 A 
ATOM     12  C   UNL     1       1.002   9.778  19.095  0.00  0.00    +0.000 A 
BRANCH  11  13
ATOM     13  O   UNL     1       2.060   9.324  17.044  0.00  0.00    +0.000 OA
ATOM     14  H   UNL     1       2.163   8.521  16.505  0.00  0.00    +0.000 HD
ENDBRANCH  11  13
BRANCH   7  15
ATOM     15  O   UNL     1       0.066  10.266  21.315  0.00  0.00    +0.000 OA
BRANCH  15  17
ATOM     16  C   UNL     1      -1.209  10.594  23.298  0.00  0.00    +0.000 C 
ATOM     17  C   UNL     1      -0.208   9.695  22.592  0.00  0.00    +0.000 C 
ENDBRANCH  15  17
ENDBRANCH   7  15
ENDBRANCH   1  10
BRANCH   5  18
ATOM     18  C   UNL     1       2.531   4.434  18.598  0.00  0.00    +0.000 A 
ATOM     19  C   UNL     1       1.512   3.749  17.969  0.00  0.00    +0.000 A 
ATOM     20  S   UNL     1       0.760   2.677  19.078  0.00  0.00    +0.000 S 
ATOM     21  C   UNL     1       1.854   3.192  20.298  0.00  0.00    +0.000 A 
ATOM     22  C   UNL     1       1.770   2.647  21.682  0.00  0.00    +0.000 C 
ATOM     23  N   UNL     1       2.735   4.090  19.920  0.00  0.00    +0.000 NA
ENDBRANCH   5  18
TORSDOF 5
ENDMDL
MODEL 8
REMARK VINA RESULT:      -7.1      1.284      1.434
REMARK  Name = 
REMARK  7 active torsions:
REMARK  status: ('A' for Active; 'I' for Inactive)
REMARK    1  A    between atoms: C_1  and  C_2
REMARK    2  A    between atoms: C_2  and  O_3
REMARK    3  A    between atoms: O_3  and  C_4
REMARK    4  A    between atoms: C_7  and  C_8
REMARK    5  A    between atoms: C_12  and  C_13
REMARK    6  A    between atoms: C_16  and  C_17
REMARK    7  A    between atoms: C_19  and  O_20
REMARK                            x       y       z     vdW  Elec       q    Type
REMARK                         _______ _______ _______ _____ _____    ______ ____
ROOT
ATOM      1  C   UNL     1       3.475   3.440  18.457  0.00  0.00    +0.000 A 
ATOM      2  N   UNL     1       3.128   2.116  18.604  0.00  0.00    +0.000 N 
ATOM      3  N   UNL     1       2.112   1.902  19.463  0.00  0.00    +0.000 NA
ATOM      4  C   UNL     1       1.737   3.135  19.811  0.00  0.00    +0.000 A 
ATOM      5  C   UNL     1       2.533   4.127  19.209  0.00  0.00    +0.000 A 
ATOM      6  H   UNL     1       3.564   1.313  18.167  0.00  0.00    +0.000 HD
ENDROOT
BRANCH   1  10
ATOM      7  C   UNL     1       6.621   4.926  15.936  0.00  0.00    +0.000 A 
ATOM      8  C   UNL     1       5.461   4.379  15.394  0.00  0.00    +0.000 A 
ATOM      9  C   UNL     1       4.474   3.843  16.226  0.00  0.00    +0.000 A 
ATOM     10  C   UNL     1       4.593   3.889  17.620  0.00  0.00    +0.000 A 
ATOM     11  C   UNL     1       5.786   4.412  18.148  0.00  0.00    +0.000 A 
ATOM     12  C   UNL     1       6.796   4.920  17.318  0.00  0.00    +0.000 A 
BRANCH  11  13
ATOM     13  O   UNL     1       6.020   4.493  19.497  0.00  0.00    +0.000 OA
ATOM     14  H   UNL     1       5.811   3.622  19.877  0.00  0.00    +0.000 HD
ENDBRANCH  11  13
BRANCH   7  15
ATOM     15  O   UNL     1       7.467   5.486  15.022  0.00  0.00    +0.000 OA
BRANCH  15  17
ATOM     16  C   UNL     1       8.364   5.761  12.834  0.00  0.00    +0.000 C 
ATOM     17  C   UNL     1       7.414   4.952  13.701  0.00  0.00    +0.000 C 
ENDBRANCH  15  17
ENDBRANCH   7  15
ENDBRANCH   1  10
BRANCH   5  18
ATOM     18  C   UNL     1       2.346   5.568  19.398  0.00  0.00    +0.000 A 
ATOM     19  C   UNL     1       1.950   6.198  20.560  0.00  0.00    +0.000 A 
ATOM     20  S   UNL     1       1.772   7.881  20.279  0.00  0.00    +0.000 S 
ATOM     21  C   UNL     1       2.250   7.646  18.646  0.00  0.00    +0.000 A 
ATOM     22  C   UNL     1       2.305   8.788  17.692  0.00  0.00    +0.000 C 
ATOM     23  N   UNL     1       2.539   6.407  18.318  0.00  0.00    +0.000 NA
ENDBRANCH   5  18
TORSDOF 5
ENDMDL
MODEL 9
REMARK VINA RESULT:      -7.0      2.590      3.217
REMARK  Name = 
REMARK  7 active torsions:
REMARK  status: ('A' for Active; 'I' for Inactive)
REMARK    1  A    between atoms: C_1  and  C_2
REMARK    2  A    between atoms: C_2  and  O_3
REMARK    3  A    between atoms: O_3  and  C_4
REMARK    4  A    between atoms: C_7  and  C_8
REMARK    5  A    between atoms: C_12  and  C_13
REMARK    6  A    between atoms: C_16  and  C_17
REMARK    7  A    between atoms: C_19  and  O_20
REMARK                            x       y       z     vdW  Elec       q    Type
REMARK                         _______ _______ _______ _____ _____    ______ ____
ROOT
ATOM      1  C   UNL     1       3.712   4.946  17.739  0.00  0.00    +0.000 A 
ATOM      2  N   UNL     1       3.464   3.785  17.042  0.00  0.00    +0.000 N 
ATOM      3  N   UNL     1       2.202   3.327  17.158  0.00  0.00    +0.000 NA
ATOM      4  C   UNL     1       1.598   4.271  17.884  0.00  0.00    +0.000 A 
ATOM      5  C   UNL     1       2.476   5.304  18.258  0.00  0.00    +0.000 A 
ATOM      6  H   UNL     1       4.121   3.246  16.490  0.00  0.00    +0.000 HD
ENDROOT
BRANCH   1  10
ATOM      7  C   UNL     1       7.489   6.972  18.031  0.00  0.00    +0.000 A 
ATOM      8  C   UNL     1       6.450   7.491  17.263  0.00  0.00    +0.000 A 
ATOM      9  C   UNL     1       5.249   6.789  17.127  0.00  0.00    +0.000 A 
ATOM     10  C   UNL     1       5.033   5.581  17.798  0.00  0.00    +0.000 A 
ATOM     11  C   UNL     1       6.105   5.054  18.539  0.00  0.00    +0.000 A 
ATOM     12  C   UNL     1       7.325   5.736  18.652  0.00  0.00    +0.000 A 
BRANCH  11  13
ATOM     13  O   UNL     1       6.014   3.870  19.225  0.00  0.00    +0.000 OA
ATOM     14  H   UNL     1       6.377   4.025  20.115  0.00  0.00    +0.000 HD
ENDBRANCH  11  13
BRANCH   7  15
ATOM     15  O   UNL     1       8.576   7.791  18.146  0.00  0.00    +0.000 OA
BRANCH  15  17
ATOM     16  C   UNL     1       9.131   9.895  19.111  0.00  0.00    +0.000 C 
ATOM     17  C   UNL     1       8.329   9.191  18.031  0.00  0.00    +0.000 C 
ENDBRANCH  15  17
ENDBRANCH   7  15
ENDBRANCH   1  10
BRANCH   5  18
ATOM     18  C   UNL     1       2.089   6.478  19.046  0.00  0.00    +0.000 A 
ATOM     19  C   UNL     1       1.785   6.498  20.391  0.00  0.00    +0.000 A 
ATOM     20  S   UNL     1       1.292   8.075  20.853  0.00  0.00    +0.000 S 
ATOM     21  C   UNL     1       1.535   8.610  19.239  0.00  0.00    +0.000 A 
ATOM     22  C   UNL     1       1.251  10.019  18.848  0.00  0.00    +0.000 C 
ATOM     23  N   UNL     1       1.968   7.694  18.403  0.00  0.00    +0.000 NA
ENDBRANCH   5  18
TORSDOF 5
ENDMDL
