MODEL 1
REMARK VINA RESULT:      -7.6      0.000      0.000
REMARK  Name = 
REMARK  5 active torsions:
REMARK  status: ('A' for Active; 'I' for Inactive)
REMARK    1  A    between atoms: C_1  and  N_2
REMARK    2  A    between atoms: N_2  and  C_3
REMARK    3  A    between atoms: C_4  and  C_6
REMARK    4  A    between atoms: C_9  and  C_10
REMARK    5  A    between atoms: C_15  and  N_16
REMARK                            x       y       z     vdW  Elec       q    Type
REMARK                         _______ _______ _______ _____ _____    ______ ____
ROOT
ATOM      1  C   UNL     1       1.299   9.098  19.723  0.00  0.00    +0.000 A 
ATOM      2  C   UNL     1       1.774   9.258  18.428  0.00  0.00    +0.000 A 
ATOM      3  C   UNL     1       2.468   8.232  17.781  0.00  0.00    +0.000 A 
ATOM      4  C   UNL     1       2.816   7.045  18.449  0.00  0.00    +0.000 A 
ATOM      5  C   UNL     1       2.432   6.950  19.800  0.00  0.00    +0.000 A 
ATOM      6  C   UNL     1       1.645   7.932  20.412  0.00  0.00    +0.000 A 
ENDROOT
BRANCH   4   7
ATOM      7  C   UNL     1       3.613   5.991  17.768  0.00  0.00    +0.000 A 
ATOM      8  C   UNL     1       4.579   6.355  16.830  0.00  0.00    +0.000 A 
ATOM      9  N   UNL     1       5.442   5.520  16.214  0.00  0.00    +0.000 NA
ATOM     10  C   UNL     1       5.378   4.245  16.594  0.00  0.00    +0.000 A 
ATOM     11  N   UNL     1       4.521   3.748  17.490  0.00  0.00    +0.000 NA
ATOM     12  C   UNL     1       3.614   4.615  18.024  0.00  0.00    +0.000 A 
BRANCH  12  13
ATOM     13  N   UNL     1       2.637   3.995  18.850  0.00  0.00    +0.000 N 
ATOM     14  C   UNL     1       2.856   3.514  20.123  0.00  0.00    +0.000 A 
ATOM     15  C   UNL     1       1.634   3.075  20.572  0.00  0.00    +0.000 A 
ATOM     16  N   UNL     1       0.687   3.192  19.591  0.00  0.00    +0.000 NA
ATOM     17  C   UNL     1       1.324   3.706  18.561  0.00  0.00    +0.000 A 
ENDBRANCH  12  13
ENDBRANCH   4   7
BRANCH   1  21
ATOM     18  C   UNL     1      -1.202  11.818  20.662  0.00  0.00    +0.000 C 
ATOM     19  N   UNL     1      -0.597  10.740  19.896  0.00  0.00    +0.000 N 
ATOM     20  C   UNL     1      -1.359  10.224  18.768  0.00  0.00    +0.000 C 
ATOM     21  C   UNL     1       0.542  10.151  20.452  0.00  0.00    +0.000 C 
ATOM     22  O   UNL     1       0.967  10.482  21.560  0.00  0.00    +0.000 OA
ENDBRANCH   1  21
TORSDOF 3
ENDMDL
MODEL 2
REMARK VINA RESULT:      -7.4      0.974      1.168
REMARK  Name = 
REMARK  5 active torsions:
REMARK  status: ('A' for Active; 'I' for Inactive)
REMARK    1  A    between atoms: C_1  and  N_2
REMARK    2  A    between atoms: N_2  and  C_3
REMARK    3  A    between atoms: C_4  and  C_6
REMARK    4  A    between atoms: C_9  and  C_10
REMARK    5  A    between atoms: C_15  and  N_16
REMARK                            x       y       z     vdW  Elec       q    Type
REMARK                         _______ _______ _______ _____ _____    ______ ____
ROOT
ATOM      1  C   UNL     1       1.003   9.503  19.138  0.00  0.00    +0.000 A 
ATOM      2  C   UNL     1       1.671   9.464  17.921  0.00  0.00    +0.000 A 
ATOM      3  C   UNL     1       2.512   8.397  17.592  0.00  0.00    +0.000 A 
ATOM      4  C   UNL     1       2.809   7.383  18.519  0.00  0.00    +0.000 A 
ATOM      5  C   UNL     1       2.218   7.503  19.792  0.00  0.00    +0.000 A 
ATOM      6  C   UNL     1       1.293   8.514  20.081  0.00  0.00    +0.000 A 
ENDROOT
BRANCH   4   7
ATOM      7  C   UNL     1       3.758   6.290  18.179  0.00  0.00    +0.000 A 
ATOM      8  C   UNL     1       4.876   6.569  17.393  0.00  0.00    +0.000 A 
ATOM      9  N   UNL     1       5.871   5.707  17.093  0.00  0.00    +0.000 NA
ATOM     10  C   UNL     1       5.775   4.502  17.653  0.00  0.00    +0.000 A 
ATOM     11  N   UNL     1       4.775   4.093  18.439  0.00  0.00    +0.000 NA
ATOM     12  C   UNL     1       3.753   4.972  18.646  0.00  0.00    +0.000 A 
BRANCH  12  13
ATOM     13  N   UNL     1       2.654   4.422  19.361  0.00  0.00    +0.000 N 
ATOM     14  C   UNL     1       1.478   3.973  18.798  0.00  0.00    +0.000 A 
ATOM     15  C   UNL     1       0.739   3.460  19.836  0.00  0.00    +0.000 A 
ATOM     16  N   UNL     1       1.381   3.651  21.029  0.00  0.00    +0.000 NA
ATOM     17  C   UNL     1       2.503   4.264  20.719  0.00  0.00    +0.000 A 
ENDBRANCH  12  13
ENDBRANCH   4   7
BRANCH   1  21
ATOM     18  C   UNL     1      -1.822  12.063  19.207  0.00  0.00    +0.000 C 
ATOM     19  N   UNL     1      -1.049  10.909  18.774  0.00  0.00    +0.000 N 
ATOM     20  C   UNL     1      -1.653  10.053  17.764  0.00  0.00    +0.000 C 
ATOM     21  C   UNL     1       0.086  10.607  19.532  0.00  0.00    +0.000 C 
ATOM     22  O   UNL     1       0.375  11.241  20.547  0.00  0.00    +0.000 OA
ENDBRANCH   1  21
TORSDOF 3
ENDMDL
MODEL 3
REMARK VINA RESULT:      -7.4      4.227      6.077
REMARK  Name = 
REMARK  5 active torsions:
REMARK  status: ('A' for Active; 'I' for Inactive)
REMARK    1  A    between atoms: C_1  and  N_2
REMARK    2  A    between atoms: N_2  and  C_3
REMARK    3  A    between atoms: C_4  and  C_6
REMARK    4  A    between atoms: C_9  and  C_10
REMARK    5  A    between atoms: C_15  and  N_16
REMARK                            x       y       z     vdW  Elec       q    Type
REMARK                         _______ _______ _______ _____ _____    ______ ____
ROOT
ATOM      1  C   UNL     1       2.641   3.662  18.693  0.00  0.00    +0.000 A 
ATOM      2  C   UNL     1       3.106   4.936  18.396  0.00  0.00    +0.000 A 
ATOM      3  C   UNL     1       4.025   5.148  17.365  0.00  0.00    +0.000 A 
ATOM      4  C   UNL     1       4.603   4.075  16.664  0.00  0.00    +0.000 A 
ATOM      5  C   UNL     1       4.211   2.782  17.061  0.00  0.00    +0.000 A 
ATOM      6  C   UNL     1       3.212   2.578  18.021  0.00  0.00    +0.000 A 
ENDROOT
BRANCH   4   7
ATOM      7  C   UNL     1       5.630   4.312  15.615  0.00  0.00    +0.000 A 
ATOM      8  C   UNL     1       5.396   3.872  14.312  0.00  0.00    +0.000 A 
ATOM      9  N   UNL     1       6.184   4.107  13.242  0.00  0.00    +0.000 NA
ATOM     10  C   UNL     1       7.250   4.874  13.470  0.00  0.00    +0.000 A 
ATOM     11  N   UNL     1       7.596   5.380  14.656  0.00  0.00    +0.000 NA
ATOM     12  C   UNL     1       6.814   5.047  15.723  0.00  0.00    +0.000 A 
BRANCH  12  13
ATOM     13  N   UNL     1       7.323   5.491  16.974  0.00  0.00    +0.000 N 
ATOM     14  C   UNL     1       7.530   6.806  17.333  0.00  0.00    +0.000 A 
ATOM     15  C   UNL     1       7.951   6.775  18.640  0.00  0.00    +0.000 A 
ATOM     16  N   UNL     1       8.090   5.485  19.074  0.00  0.00    +0.000 NA
ATOM     17  C   UNL     1       7.747   4.740  18.046  0.00  0.00    +0.000 A 
ENDBRANCH  12  13
ENDBRANCH   4   7
BRANCH   1  21
ATOM     18  C   UNL     1       0.951   2.408  21.873  0.00  0.00    +0.000 C 
ATOM     19  N   UNL     1       2.021   2.700  20.932  0.00  0.00    +0.000 N 
ATOM     20  C   UNL     1       3.384   2.476  21.393  0.00  0.00    +0.000 C 
ATOM     21  C   UNL     1       1.652   3.382  19.770  0.00  0.00    +0.000 C 
ATOM     22  O   UNL     1       0.498   3.773  19.587  0.00  0.00    +0.000 OA
ENDBRANCH   1  21
TORSDOF 3
ENDMDL
MODEL 4
REMARK VINA RESULT:      -7.3      1.286      1.867
REMARK  Name = 
REMARK  5 active torsions:
REMARK  status: ('A' for Active; 'I' for Inactive)
REMARK    1  A    between atoms: C_1  and  N_2
REMARK    2  A    between atoms: N_2  and  C_3
REMARK    3  A    between atoms: C_4  and  C_6
REMARK    4  A    between atoms: C_9  and  C_10
REMARK    5  A    between atoms: C_15  and  N_16
REMARK                            x       y       z     vdW  Elec       q    Type
REMARK                         _______ _______ _______ _____ _____    ______ ____
ROOT
ATOM      1  C   UNL     1       1.402   8.692  19.602  0.00  0.00    +0.000 A 
ATOM      2  C   UNL     1       1.872   7.500  20.138  0.00  0.00    +0.000 A 
ATOM      3  C   UNL     1       2.803   6.716  19.451  0.00  0.00    +0.000 A 
ATOM      4  C   UNL     1       3.214   7.038  18.146  0.00  0.00    +0.000 A 
ATOM      5  C   UNL     1       2.635   8.186  17.571  0.00  0.00    +0.000 A 
ATOM      6  C   UNL     1       1.786   9.026  18.300  0.00  0.00    +0.000 A 
ENDROOT
BRANCH   4   7
ATOM      7  C   UNL     1       4.154   6.159  17.402  0.00  0.00    +0.000 A 
ATOM      8  C   UNL     1       5.226   6.725  16.712  0.00  0.00    +0.000 A 
ATOM      9  N   UNL     1       6.212   6.049  16.083  0.00  0.00    +0.000 NA
ATOM     10  C   UNL     1       6.158   4.722  16.193  0.00  0.00    +0.000 A 
ATOM     11  N   UNL     1       5.206   4.038  16.833  0.00  0.00    +0.000 NA
ATOM     12  C   UNL     1       4.188   4.760  17.380  0.00  0.00    +0.000 A 
BRANCH  12  13
ATOM     13  N   UNL     1       3.134   3.967  17.910  0.00  0.00    +0.000 N 
ATOM     14  C   UNL     1       3.236   3.124  18.997  0.00  0.00    +0.000 A 
ATOM     15  C   UNL     1       1.973   2.625  19.202  0.00  0.00    +0.000 A 
ATOM     16  N   UNL     1       1.115   3.064  18.231  0.00  0.00    +0.000 NA
ATOM     17  C   UNL     1       1.845   3.830  17.451  0.00  0.00    +0.000 A 
ENDBRANCH  12  13
ENDBRANCH   4   7
BRANCH   1  21
ATOM     18  C   UNL     1      -0.629  10.521  22.261  0.00  0.00    +0.000 C 
ATOM     19  N   UNL     1       0.429   9.704  21.688  0.00  0.00    +0.000 N 
ATOM     20  C   UNL     1       1.514   9.313  22.576  0.00  0.00    +0.000 C 
ATOM     21  C   UNL     1       0.423   9.571  20.297  0.00  0.00    +0.000 C 
ATOM     22  O   UNL     1      -0.393  10.168  19.593  0.00  0.00    +0.000 OA
ENDBRANCH   1  21
TORSDOF 3
ENDMDL
MODEL 5
REMARK VINA RESULT:      -7.3      1.254      1.852
REMARK  Name = 
REMARK  5 active torsions:
REMARK  status: ('A' for Active; 'I' for Inactive)
REMARK    1  A    between atoms: C_1  and  N_2
REMARK    2  A    between atoms: N_2  and  C_3
REMARK    3  A    between atoms: C_4  and  C_6
REMARK    4  A    between atoms: C_9  and  C_10
REMARK    5  A    between atoms: C_15  and  N_16
REMARK                            x       y       z     vdW  Elec       q    Type
REMARK                         _______ _______ _______ _____ _____    ______ ____
ROOT
ATOM      1  C   UNL     1       0.850   9.444  19.251  0.00  0.00    +0.000 A 
ATOM      2  C   UNL     1       1.251   8.510  20.198  0.00  0.00    +0.000 A 
ATOM      3  C   UNL     1       2.220   7.548  19.899  0.00  0.00    +0.000 A 
ATOM      4  C   UNL     1       2.742   7.409  18.602  0.00  0.00    +0.000 A 
ATOM      5  C   UNL     1       2.235   8.287  17.624  0.00  0.00    +0.000 A 
ATOM      6  C   UNL     1       1.345   9.317  17.951  0.00  0.00    +0.000 A 
ENDROOT
BRANCH   4   7
ATOM      7  C   UNL     1       3.722   6.338  18.283  0.00  0.00    +0.000 A 
ATOM      8  C   UNL     1       4.849   6.641  17.519  0.00  0.00    +0.000 A 
ATOM      9  N   UNL     1       5.869   5.801  17.240  0.00  0.00    +0.000 NA
ATOM     10  C   UNL     1       5.789   4.595  17.802  0.00  0.00    +0.000 A 
ATOM     11  N   UNL     1       4.784   4.165  18.568  0.00  0.00    +0.000 NA
ATOM     12  C   UNL     1       3.738   5.020  18.753  0.00  0.00    +0.000 A 
BRANCH  12  13
ATOM     13  N   UNL     1       2.637   4.447  19.447  0.00  0.00    +0.000 N 
ATOM     14  C   UNL     1       1.471   3.998  18.864  0.00  0.00    +0.000 A 
ATOM     15  C   UNL     1       0.727   3.458  19.885  0.00  0.00    +0.000 A 
ATOM     16  N   UNL     1       1.357   3.633  21.088  0.00  0.00    +0.000 NA
ATOM     17  C   UNL     1       2.475   4.262  20.800  0.00  0.00    +0.000 A 
ENDBRANCH  12  13
ENDBRANCH   4   7
BRANCH   1  21
ATOM     18  C   UNL     1      -0.914  12.597  20.467  0.00  0.00    +0.000 C 
ATOM     19  N   UNL     1       0.179  11.681  20.182  0.00  0.00    +0.000 N 
ATOM     20  C   UNL     1       1.530  12.181  20.387  0.00  0.00    +0.000 C 
ATOM     21  C   UNL     1      -0.165  10.498  19.521  0.00  0.00    +0.000 C 
ATOM     22  O   UNL     1      -1.316  10.278  19.143  0.00  0.00    +0.000 OA
ENDBRANCH   1  21
TORSDOF 3
ENDMDL
MODEL 6
REMARK VINA RESULT:      -7.3      0.098      1.024
REMARK  Name = 
REMARK  5 active torsions:
REMARK  status: ('A' for Active; 'I' for Inactive)
REMARK    1  A    between atoms: C_1  and  N_2
REMARK    2  A    between atoms: N_2  and  C_3
REMARK    3  A    between atoms: C_4  and  C_6
REMARK    4  A    between atoms: C_9  and  C_10
REMARK    5  A    between atoms: C_15  and  N_16
REMARK                            x       y       z     vdW  Elec       q    Type
REMARK                         _______ _______ _______ _____ _____    ______ ____
ROOT
ATOM      1  C   UNL     1       1.379   9.073  19.830  0.00  0.00    +0.000 A 
ATOM      2  C   UNL     1       1.678   7.852  20.421  0.00  0.00    +0.000 A 
ATOM      3  C   UNL     1       2.453   6.898  19.757  0.00  0.00    +0.000 A 
ATOM      4  C   UNL     1       2.863   7.083  18.425  0.00  0.00    +0.000 A 
ATOM      5  C   UNL     1       2.448   8.275  17.800  0.00  0.00    +0.000 A 
ATOM      6  C   UNL     1       1.764   9.274  18.501  0.00  0.00    +0.000 A 
ENDROOT
BRANCH   4   7
ATOM      7  C   UNL     1       3.630   6.030  17.708  0.00  0.00    +0.000 A 
ATOM      8  C   UNL     1       4.591   6.398  16.766  0.00  0.00    +0.000 A 
ATOM      9  N   UNL     1       5.430   5.562  16.119  0.00  0.00    +0.000 NA
ATOM     10  C   UNL     1       5.346   4.279  16.470  0.00  0.00    +0.000 A 
ATOM     11  N   UNL     1       4.491   3.778  17.365  0.00  0.00    +0.000 NA
ATOM     12  C   UNL     1       3.607   4.649  17.931  0.00  0.00    +0.000 A 
BRANCH  12  13
ATOM     13  N   UNL     1       2.629   4.028  18.755  0.00  0.00    +0.000 N 
ATOM     14  C   UNL     1       2.855   3.510  20.012  0.00  0.00    +0.000 A 
ATOM     15  C   UNL     1       1.631   3.085  20.467  0.00  0.00    +0.000 A 
ATOM     16  N   UNL     1       0.673   3.247  19.503  0.00  0.00    +0.000 NA
ATOM     17  C   UNL     1       1.306   3.774  18.478  0.00  0.00    +0.000 A 
ENDBRANCH  12  13
ENDBRANCH   4   7
BRANCH   1  21
ATOM     18  C   UNL     1      -1.204  11.774  20.585  0.00  0.00    +0.000 C 
ATOM     19  N   UNL     1      -0.547  10.689  19.874  0.00  0.00    +0.000 N 
ATOM     20  C   UNL     1      -1.245  10.137  18.722  0.00  0.00    +0.000 C 
ATOM     21  C   UNL     1       0.571  10.130  20.498  0.00  0.00    +0.000 C 
ATOM     22  O   UNL     1       0.937  10.491  21.617  0.00  0.00    +0.000 OA
ENDBRANCH   1  21
TORSDOF 3
ENDMDL
MODEL 7
REMARK VINA RESULT:      -7.2      1.271      1.554
REMARK  Name = 
REMARK  5 active torsions:
REMARK  status: ('A' for Active; 'I' for Inactive)
REMARK    1  A    between atoms: C_1  and  N_2
REMARK    2  A    between atoms: N_2  and  C_3
REMARK    3  A    between atoms: C_4  and  C_6
REMARK    4  A    between atoms: C_9  and  C_10
REMARK    5  A    between atoms: C_15  and  N_16
REMARK                            x       y       z     vdW  Elec       q    Type
REMARK                         _______ _______ _______ _____ _____    ______ ____
ROOT
ATOM      1  C   UNL     1       1.254   8.778  19.573  0.00  0.00    +0.000 A 
ATOM      2  C   UNL     1       1.758   9.133  18.329  0.00  0.00    +0.000 A 
ATOM      3  C   UNL     1       2.622   8.285  17.630  0.00  0.00    +0.000 A 
ATOM      4  C   UNL     1       3.108   7.097  18.202  0.00  0.00    +0.000 A 
ATOM      5  C   UNL     1       2.680   6.812  19.514  0.00  0.00    +0.000 A 
ATOM      6  C   UNL     1       1.733   7.608  20.168  0.00  0.00    +0.000 A 
ENDROOT
BRANCH   4   7
ATOM      7  C   UNL     1       4.078   6.239  17.474  0.00  0.00    +0.000 A 
ATOM      8  C   UNL     1       5.149   6.828  16.802  0.00  0.00    +0.000 A 
ATOM      9  N   UNL     1       6.159   6.174  16.189  0.00  0.00    +0.000 NA
ATOM     10  C   UNL     1       6.132   4.846  16.297  0.00  0.00    +0.000 A 
ATOM     11  N   UNL     1       5.185   4.141  16.921  0.00  0.00    +0.000 NA
ATOM     12  C   UNL     1       4.142   4.841  17.452  0.00  0.00    +0.000 A 
BRANCH  12  13
ATOM     13  N   UNL     1       3.097   4.025  17.964  0.00  0.00    +0.000 N 
ATOM     14  C   UNL     1       3.203   3.174  19.044  0.00  0.00    +0.000 A 
ATOM     15  C   UNL     1       1.946   2.652  19.232  0.00  0.00    +0.000 A 
ATOM     16  N   UNL     1       1.091   3.085  18.256  0.00  0.00    +0.000 NA
ATOM     17  C   UNL     1       1.815   3.870  17.490  0.00  0.00    +0.000 A 
ENDBRANCH  12  13
ENDBRANCH   4   7
BRANCH   1  21
ATOM     18  C   UNL     1      -0.606  10.528  22.404  0.00  0.00    +0.000 C 
ATOM     19  N   UNL     1       0.415   9.730  21.744  0.00  0.00    +0.000 N 
ATOM     20  C   UNL     1       1.554   9.318  22.550  0.00  0.00    +0.000 C 
ATOM     21  C   UNL     1       0.320   9.635  20.352  0.00  0.00    +0.000 C 
ATOM     22  O   UNL     1      -0.539  10.249  19.718  0.00  0.00    +0.000 OA
ENDBRANCH   1  21
TORSDOF 3
ENDMDL
MODEL 8
REMARK VINA RESULT:      -7.2      1.192      1.398
REMARK  Name = 
REMARK  5 active torsions:
REMARK  status: ('A' for Active; 'I' for Inactive)
REMARK    1  A    between atoms: C_1  and  N_2
REMARK    2  A    between atoms: N_2  and  C_3
REMARK    3  A    between atoms: C_4  and  C_6
REMARK    4  A    between atoms: C_9  and  C_10
REMARK    5  A    between atoms: C_15  and  N_16
REMARK                            x       y       z     vdW  Elec       q    Type
REMARK                         _______ _______ _______ _____ _____    ______ ____
ROOT
ATOM      1  C   UNL     1       1.216   8.667  19.958  0.00  0.00    +0.000 A 
ATOM      2  C   UNL     1       1.521   9.031  18.653  0.00  0.00    +0.000 A 
ATOM      3  C   UNL     1       2.315   8.215  17.842  0.00  0.00    +0.000 A 
ATOM      4  C   UNL     1       2.931   7.056  18.345  0.00  0.00    +0.000 A 
ATOM      5  C   UNL     1       2.708   6.767  19.706  0.00  0.00    +0.000 A 
ATOM      6  C   UNL     1       1.828   7.527  20.485  0.00  0.00    +0.000 A 
ENDROOT
BRANCH   4   7
ATOM      7  C   UNL     1       3.826   6.233  17.490  0.00  0.00    +0.000 A 
ATOM      8  C   UNL     1       4.774   6.861  16.682  0.00  0.00    +0.000 A 
ATOM      9  N   UNL     1       5.716   6.245  15.937  0.00  0.00    +0.000 NA
ATOM     10  C   UNL     1       5.754   4.917  16.043  0.00  0.00    +0.000 A 
ATOM     11  N   UNL     1       4.926   4.178  16.786  0.00  0.00    +0.000 NA
ATOM     12  C   UNL     1       3.939   4.839  17.455  0.00  0.00    +0.000 A 
BRANCH  12  13
ATOM     13  N   UNL     1       3.004   3.985  18.100  0.00  0.00    +0.000 N 
ATOM     14  C   UNL     1       1.677   3.846  17.753  0.00  0.00    +0.000 A 
ATOM     15  C   UNL     1       1.174   2.870  18.580  0.00  0.00    +0.000 A 
ATOM     16  N   UNL     1       2.122   2.464  19.480  0.00  0.00    +0.000 NA
ATOM     17  C   UNL     1       3.191   3.175  19.195  0.00  0.00    +0.000 A 
ENDBRANCH  12  13
ENDBRANCH   4   7
BRANCH   1  21
ATOM     18  C   UNL     1      -0.319  11.569  21.898  0.00  0.00    +0.000 C 
ATOM     19  N   UNL     1       0.507  10.880  20.919  0.00  0.00    +0.000 N 
ATOM     20  C   UNL     1       1.207  11.708  19.947  0.00  0.00    +0.000 C 
ATOM     21  C   UNL     1       0.364   9.491  20.858  0.00  0.00    +0.000 C 
ATOM     22  O   UNL     1      -0.463   8.894  21.549  0.00  0.00    +0.000 OA
ENDBRANCH   1  21
TORSDOF 3
ENDMDL
MODEL 9
REMARK VINA RESULT:      -7.2      1.151      1.295
REMARK  Name = 
REMARK  5 active torsions:
REMARK  status: ('A' for Active; 'I' for Inactive)
REMARK    1  A    between atoms: C_1  and  N_2
REMARK    2  A    between atoms: N_2  and  C_3
REMARK    3  A    between atoms: C_4  and  C_6
REMARK    4  A    between atoms: C_9  and  C_10
REMARK    5  A    between atoms: C_15  and  N_16
REMARK                            x       y       z     vdW  Elec       q    Type
REMARK                         _______ _______ _______ _____ _____    ______ ____
ROOT
ATOM      1  C   UNL     1       0.913   9.426  19.142  0.00  0.00    +0.000 A 
ATOM      2  C   UNL     1       1.494   9.341  17.883  0.00  0.00    +0.000 A 
ATOM      3  C   UNL     1       2.358   8.292  17.555  0.00  0.00    +0.000 A 
ATOM      4  C   UNL     1       2.766   7.349  18.514  0.00  0.00    +0.000 A 
ATOM      5  C   UNL     1       2.262   7.522  19.818  0.00  0.00    +0.000 A 
ATOM      6  C   UNL     1       1.315   8.509  20.116  0.00  0.00    +0.000 A 
ENDROOT
BRANCH   4   7
ATOM      7  C   UNL     1       3.738   6.279  18.168  0.00  0.00    +0.000 A 
ATOM      8  C   UNL     1       4.857   6.589  17.395  0.00  0.00    +0.000 A 
ATOM      9  N   UNL     1       5.870   5.749  17.093  0.00  0.00    +0.000 NA
ATOM     10  C   UNL     1       5.792   4.535  17.638  0.00  0.00    +0.000 A 
ATOM     11  N   UNL     1       4.794   4.099  18.410  0.00  0.00    +0.000 NA
ATOM     12  C   UNL     1       3.754   4.955  18.619  0.00  0.00    +0.000 A 
BRANCH  12  13
ATOM     13  N   UNL     1       2.660   4.377  19.318  0.00  0.00    +0.000 N 
ATOM     14  C   UNL     1       2.618   4.129  20.674  0.00  0.00    +0.000 A 
ATOM     15  C   UNL     1       1.357   3.644  20.926  0.00  0.00    +0.000 A 
ATOM     16  N   UNL     1       0.650   3.505  19.763  0.00  0.00    +0.000 NA
ATOM     17  C   UNL     1       1.467   3.912  18.816  0.00  0.00    +0.000 A 
ENDBRANCH  12  13
ENDBRANCH   4   7
BRANCH   1  21
ATOM     18  C   UNL     1      -0.557  12.743  20.316  0.00  0.00    +0.000 C 
ATOM     19  N   UNL     1       0.442  11.790  19.858  0.00  0.00    +0.000 N 
ATOM     20  C   UNL     1       1.764  12.317  19.550  0.00  0.00    +0.000 C 
ATOM     21  C   UNL     1      -0.024  10.512  19.538  0.00  0.00    +0.000 C 
ATOM     22  O   UNL     1      -1.223  10.231  19.577  0.00  0.00    +0.000 OA
ENDBRANCH   1  21
TORSDOF 3
ENDMDL
