MODEL 1
REMARK VINA RESULT:      -8.9      0.000      0.000
REMARK  Name = 
REMARK  4 active torsions:
REMARK  status: ('A' for Active; 'I' for Inactive)
REMARK    1  A    between atoms: C_1  and  C_2
REMARK    2  A    between atoms: C_7  and  C_8
REMARK    3  A    between atoms: C_7  and  N_14
REMARK    4  A    between atoms: N_17  and  C_18
REMARK                            x       y       z     vdW  Elec       q    Type
REMARK                         _______ _______ _______ _____ _____    ______ ____
ROOT
ATOM      1  C   UNL     1       1.080   2.043  19.407  0.00  0.00    +0.000 C 
ATOM      2  C   UNL     1       0.846   3.558  19.459  0.00  0.00    +0.000 C 
ATOM      3  C   UNL     1       1.844   4.239  20.404  0.00  0.00    +0.000 C 
ATOM      4  C   UNL     1       3.086   4.363  19.566  0.00  0.00    +0.000 C 
ATOM      5  C   UNL     1       2.659   4.378  18.123  0.00  0.00    +0.000 C 
ATOM      6  C   UNL     1       1.163   4.223  18.111  0.00  0.00    +0.000 C 
ATOM      7  C   UNL     1       3.480   5.543  18.672  0.00  0.00    +0.000 C 
ENDROOT
BRANCH   7   8
ATOM      8  C   UNL     1       2.767   6.884  18.878  0.00  0.00    +0.000 A 
ATOM      9  C   UNL     1       2.367   7.318  20.153  0.00  0.00    +0.000 A 
ATOM     10  C   UNL     1       1.561   8.448  20.317  0.00  0.00    +0.000 A 
ATOM     11  C   UNL     1       1.170   9.191  19.207  0.00  0.00    +0.000 A 
ATOM     12  C   UNL     1       1.622   8.833  17.941  0.00  0.00    +0.000 A 
ATOM     13  C   UNL     1       2.423   7.702  17.785  0.00  0.00    +0.000 A 
ENDBRANCH   7   8
BRANCH   7  14
ATOM     14  N   UNL     1       4.940   5.704  18.322  0.00  0.00    +0.000 NA
ATOM     15  C   UNL     1       5.698   4.491  17.956  0.00  0.00    +0.000 C 
ATOM     16  C   UNL     1       5.371   3.938  16.558  0.00  0.00    +0.000 C 
ATOM     17  N   UNL     1       5.511   4.989  15.540  0.00  0.00    +0.000 N 
ATOM     18  C   UNL     1       4.952   6.320  15.835  0.00  0.00    +0.000 C 
ATOM     19  C   UNL     1       5.228   6.735  17.301  0.00  0.00    +0.000 C 
BRANCH  17  20
ATOM     20  C   UNL     1       6.178   4.734  14.360  0.00  0.00    +0.000 A 
ATOM     21  C   UNL     1       7.346   5.418  13.987  0.00  0.00    +0.000 A 
ATOM     22  C   UNL     1       7.989   5.146  12.776  0.00  0.00    +0.000 A 
ATOM     23  C   UNL     1       7.483   4.174  11.916  0.00  0.00    +0.000 A 
ATOM     24  C   UNL     1       6.339   3.472  12.264  0.00  0.00    +0.000 A 
ATOM     25  C   UNL     1       5.703   3.746  13.472  0.00  0.00    +0.000 A 
ENDBRANCH  17  20
ENDBRANCH   7  14
TORSDOF 3
ENDMDL
MODEL 2
REMARK VINA RESULT:      -8.2      0.331      1.395
REMARK  Name = 
REMARK  4 active torsions:
REMARK  status: ('A' for Active; 'I' for Inactive)
REMARK    1  A    between atoms: C_1  and  C_2
REMARK    2  A    between atoms: C_7  and  C_8
REMARK    3  A    between atoms: C_7  and  N_14
REMARK    4  A    between atoms: N_17  and  C_18
REMARK                            x       y       z     vdW  Elec       q    Type
REMARK                         _______ _______ _______ _____ _____    ______ ____
ROOT
ATOM      1  C   UNL     1       1.080   1.783  18.786  0.00  0.00    +0.000 C 
ATOM      2  C   UNL     1       0.789   3.265  19.049  0.00  0.00    +0.000 C 
ATOM      3  C   UNL     1       1.770   3.848  20.074  0.00  0.00    +0.000 C 
ATOM      4  C   UNL     1       2.997   4.135  19.255  0.00  0.00    +0.000 C 
ATOM      5  C   UNL     1       2.555   4.333  17.831  0.00  0.00    +0.000 C 
ATOM      6  C   UNL     1       1.065   4.123  17.805  0.00  0.00    +0.000 C 
ATOM      7  C   UNL     1       3.337   5.442  18.532  0.00  0.00    +0.000 C 
ENDROOT
BRANCH   7   8
ATOM      8  C   UNL     1       2.576   6.712  18.925  0.00  0.00    +0.000 A 
ATOM      9  C   UNL     1       2.233   7.691  17.976  0.00  0.00    +0.000 A 
ATOM     10  C   UNL     1       1.703   8.925  18.362  0.00  0.00    +0.000 A 
ATOM     11  C   UNL     1       1.466   9.190  19.707  0.00  0.00    +0.000 A 
ATOM     12  C   UNL     1       1.716   8.208  20.661  0.00  0.00    +0.000 A 
ATOM     13  C   UNL     1       2.249   6.980  20.268  0.00  0.00    +0.000 A 
ENDBRANCH   7   8
BRANCH   7  14
ATOM     14  N   UNL     1       4.786   5.707  18.200  0.00  0.00    +0.000 NA
ATOM     15  C   UNL     1       5.643   4.547  17.882  0.00  0.00    +0.000 C 
ATOM     16  C   UNL     1       5.385   3.930  16.497  0.00  0.00    +0.000 C 
ATOM     17  N   UNL     1       5.460   4.959  15.449  0.00  0.00    +0.000 N 
ATOM     18  C   UNL     1       4.794   6.251  15.696  0.00  0.00    +0.000 C 
ATOM     19  C   UNL     1       5.011   6.727  17.153  0.00  0.00    +0.000 C 
BRANCH  17  20
ATOM     20  C   UNL     1       6.166   4.724  14.288  0.00  0.00    +0.000 A 
ATOM     21  C   UNL     1       5.784   3.748  13.355  0.00  0.00    +0.000 A 
ATOM     22  C   UNL     1       6.533   3.522  12.195  0.00  0.00    +0.000 A 
ATOM     23  C   UNL     1       7.674   4.279  11.938  0.00  0.00    +0.000 A 
ATOM     24  C   UNL     1       8.068   5.260  12.837  0.00  0.00    +0.000 A 
ATOM     25  C   UNL     1       7.318   5.480  13.990  0.00  0.00    +0.000 A 
ENDBRANCH  17  20
ENDBRANCH   7  14
TORSDOF 3
ENDMDL
MODEL 3
REMARK VINA RESULT:      -8.1      0.727      3.343
REMARK  Name = 
REMARK  4 active torsions:
REMARK  status: ('A' for Active; 'I' for Inactive)
REMARK    1  A    between atoms: C_1  and  C_2
REMARK    2  A    between atoms: C_7  and  C_8
REMARK    3  A    between atoms: C_7  and  N_14
REMARK    4  A    between atoms: N_17  and  C_18
REMARK                            x       y       z     vdW  Elec       q    Type
REMARK                         _______ _______ _______ _____ _____    ______ ____
ROOT
ATOM      1  C   UNL     1       1.830   9.867  18.285  0.00  0.00    +0.000 C 
ATOM      2  C   UNL     1       1.248   8.506  18.686  0.00  0.00    +0.000 C 
ATOM      3  C   UNL     1       1.505   7.454  17.601  0.00  0.00    +0.000 C 
ATOM      4  C   UNL     1       2.925   7.030  17.857  0.00  0.00    +0.000 C 
ATOM      5  C   UNL     1       3.222   7.296  19.308  0.00  0.00    +0.000 C 
ATOM      6  C   UNL     1       1.984   7.914  19.899  0.00  0.00    +0.000 C 
ATOM      7  C   UNL     1       3.396   5.882  18.756  0.00  0.00    +0.000 C 
ENDROOT
BRANCH   7   8
ATOM      8  C   UNL     1       2.375   4.821  19.179  0.00  0.00    +0.000 A 
ATOM      9  C   UNL     1       2.107   4.554  20.532  0.00  0.00    +0.000 A 
ATOM     10  C   UNL     1       1.315   3.468  20.916  0.00  0.00    +0.000 A 
ATOM     11  C   UNL     1       0.741   2.649  19.949  0.00  0.00    +0.000 A 
ATOM     12  C   UNL     1       0.921   2.940  18.600  0.00  0.00    +0.000 A 
ATOM     13  C   UNL     1       1.715   4.023  18.224  0.00  0.00    +0.000 A 
ENDBRANCH   7   8
BRANCH   7  14
ATOM     14  N   UNL     1       4.768   5.307  18.501  0.00  0.00    +0.000 NA
ATOM     15  C   UNL     1       4.850   3.984  17.851  0.00  0.00    +0.000 C 
ATOM     16  C   UNL     1       4.521   3.996  16.348  0.00  0.00    +0.000 C 
ATOM     17  N   UNL     1       5.340   4.994  15.646  0.00  0.00    +0.000 N 
ATOM     18  C   UNL     1       5.499   6.322  16.265  0.00  0.00    +0.000 C 
ATOM     19  C   UNL     1       5.704   6.209  17.796  0.00  0.00    +0.000 C 
BRANCH  17  20
ATOM     20  C   UNL     1       5.967   4.674  14.460  0.00  0.00    +0.000 A 
ATOM     21  C   UNL     1       7.208   5.215  14.088  0.00  0.00    +0.000 A 
ATOM     22  C   UNL     1       7.808   4.881  12.870  0.00  0.00    +0.000 A 
ATOM     23  C   UNL     1       7.184   3.988  12.002  0.00  0.00    +0.000 A 
ATOM     24  C   UNL     1       5.964   3.427  12.349  0.00  0.00    +0.000 A 
ATOM     25  C   UNL     1       5.371   3.762  13.564  0.00  0.00    +0.000 A 
ENDBRANCH  17  20
ENDBRANCH   7  14
TORSDOF 3
ENDMDL
MODEL 4
REMARK VINA RESULT:      -8.0      0.713      3.386
REMARK  Name = 
REMARK  4 active torsions:
REMARK  status: ('A' for Active; 'I' for Inactive)
REMARK    1  A    between atoms: C_1  and  C_2
REMARK    2  A    between atoms: C_7  and  C_8
REMARK    3  A    between atoms: C_7  and  N_14
REMARK    4  A    between atoms: N_17  and  C_18
REMARK                            x       y       z     vdW  Elec       q    Type
REMARK                         _______ _______ _______ _____ _____    ______ ____
ROOT
ATOM      1  C   UNL     1       1.812   9.580  18.118  0.00  0.00    +0.000 C 
ATOM      2  C   UNL     1       1.328   8.223  18.643  0.00  0.00    +0.000 C 
ATOM      3  C   UNL     1       1.579   7.112  17.617  0.00  0.00    +0.000 C 
ATOM      4  C   UNL     1       3.031   6.778  17.816  0.00  0.00    +0.000 C 
ATOM      5  C   UNL     1       3.394   7.159  19.226  0.00  0.00    +0.000 C 
ATOM      6  C   UNL     1       2.160   7.755  19.847  0.00  0.00    +0.000 C 
ATOM      7  C   UNL     1       3.613   5.720  18.760  0.00  0.00    +0.000 C 
ENDROOT
BRANCH   7   8
ATOM      8  C   UNL     1       2.675   4.642  19.313  0.00  0.00    +0.000 A 
ATOM      9  C   UNL     1       1.802   3.925  18.476  0.00  0.00    +0.000 A 
ATOM     10  C   UNL     1       0.825   3.075  19.001  0.00  0.00    +0.000 A 
ATOM     11  C   UNL     1       0.727   2.895  20.378  0.00  0.00    +0.000 A 
ATOM     12  C   UNL     1       1.633   3.526  21.225  0.00  0.00    +0.000 A 
ATOM     13  C   UNL     1       2.603   4.376  20.693  0.00  0.00    +0.000 A 
ENDBRANCH   7   8
BRANCH   7  14
ATOM     14  N   UNL     1       4.997   5.197  18.464  0.00  0.00    +0.000 NA
ATOM     15  C   UNL     1       5.109   3.889  17.787  0.00  0.00    +0.000 C 
ATOM     16  C   UNL     1       4.744   3.916  16.293  0.00  0.00    +0.000 C 
ATOM     17  N   UNL     1       5.512   4.954  15.590  0.00  0.00    +0.000 N 
ATOM     18  C   UNL     1       5.640   6.275  16.230  0.00  0.00    +0.000 C 
ATOM     19  C   UNL     1       5.885   6.143  17.753  0.00  0.00    +0.000 C 
BRANCH  17  20
ATOM     20  C   UNL     1       6.121   4.676  14.384  0.00  0.00    +0.000 A 
ATOM     21  C   UNL     1       7.297   5.316  13.965  0.00  0.00    +0.000 A 
ATOM     22  C   UNL     1       7.880   5.023  12.728  0.00  0.00    +0.000 A 
ATOM     23  C   UNL     1       7.303   4.072  11.889  0.00  0.00    +0.000 A 
ATOM     24  C   UNL     1       6.148   3.413  12.283  0.00  0.00    +0.000 A 
ATOM     25  C   UNL     1       5.573   3.709  13.517  0.00  0.00    +0.000 A 
ENDBRANCH  17  20
ENDBRANCH   7  14
TORSDOF 3
ENDMDL
MODEL 5
REMARK VINA RESULT:      -7.8      0.817      3.469
REMARK  Name = 
REMARK  4 active torsions:
REMARK  status: ('A' for Active; 'I' for Inactive)
REMARK    1  A    between atoms: C_1  and  C_2
REMARK    2  A    between atoms: C_7  and  C_8
REMARK    3  A    between atoms: C_7  and  N_14
REMARK    4  A    between atoms: N_17  and  C_18
REMARK                            x       y       z     vdW  Elec       q    Type
REMARK                         _______ _______ _______ _____ _____    ______ ____
ROOT
ATOM      1  C   UNL     1       2.011   9.429  17.806  0.00  0.00    +0.000 C 
ATOM      2  C   UNL     1       1.443   8.168  18.467  0.00  0.00    +0.000 C 
ATOM      3  C   UNL     1       1.563   6.954  17.538  0.00  0.00    +0.000 C 
ATOM      4  C   UNL     1       2.992   6.520  17.717  0.00  0.00    +0.000 C 
ATOM      5  C   UNL     1       3.441   6.992  19.073  0.00  0.00    +0.000 C 
ATOM      6  C   UNL     1       2.285   7.739  19.679  0.00  0.00    +0.000 C 
ATOM      7  C   UNL     1       3.526   5.505  18.732  0.00  0.00    +0.000 C 
ENDROOT
BRANCH   7   8
ATOM      8  C   UNL     1       2.529   4.560  19.411  0.00  0.00    +0.000 A 
ATOM      9  C   UNL     1       2.449   4.455  20.810  0.00  0.00    +0.000 A 
ATOM     10  C   UNL     1       1.672   3.468  21.422  0.00  0.00    +0.000 A 
ATOM     11  C   UNL     1       0.927   2.587  20.644  0.00  0.00    +0.000 A 
ATOM     12  C   UNL     1       0.922   2.721  19.259  0.00  0.00    +0.000 A 
ATOM     13  C   UNL     1       1.702   3.707  18.655  0.00  0.00    +0.000 A 
ENDBRANCH   7   8
BRANCH   7  14
ATOM     14  N   UNL     1       4.851   4.845  18.437  0.00  0.00    +0.000 NA
ATOM     15  C   UNL     1       4.842   3.616  17.619  0.00  0.00    +0.000 C 
ATOM     16  C   UNL     1       4.569   3.853  16.124  0.00  0.00    +0.000 C 
ATOM     17  N   UNL     1       5.498   4.855  15.580  0.00  0.00    +0.000 N 
ATOM     18  C   UNL     1       5.748   6.072  16.374  0.00  0.00    +0.000 C 
ATOM     19  C   UNL     1       5.886   5.743  17.881  0.00  0.00    +0.000 C 
BRANCH  17  20
ATOM     20  C   UNL     1       6.136   4.636  14.378  0.00  0.00    +0.000 A 
ATOM     21  C   UNL     1       5.702   3.672  13.454  0.00  0.00    +0.000 A 
ATOM     22  C   UNL     1       6.383   3.464  12.251  0.00  0.00    +0.000 A 
ATOM     23  C   UNL     1       7.508   4.225  11.940  0.00  0.00    +0.000 A 
ATOM     24  C   UNL     1       7.952   5.194  12.827  0.00  0.00    +0.000 A 
ATOM     25  C   UNL     1       7.269   5.398  14.024  0.00  0.00    +0.000 A 
ENDBRANCH  17  20
ENDBRANCH   7  14
TORSDOF 3
ENDMDL
MODEL 6
REMARK VINA RESULT:      -7.4      1.515      6.889
REMARK  Name = 
REMARK  4 active torsions:
REMARK  status: ('A' for Active; 'I' for Inactive)
REMARK    1  A    between atoms: C_1  and  C_2
REMARK    2  A    between atoms: C_7  and  C_8
REMARK    3  A    between atoms: C_7  and  N_14
REMARK    4  A    between atoms: N_17  and  C_18
REMARK                            x       y       z     vdW  Elec       q    Type
REMARK                         _______ _______ _______ _____ _____    ______ ____
ROOT
ATOM      1  C   UNL     1       7.102   4.779  13.367  0.00  0.00    +0.000 C 
ATOM      2  C   UNL     1       6.190   3.877  14.207  0.00  0.00    +0.000 C 
ATOM      3  C   UNL     1       6.786   3.629  15.598  0.00  0.00    +0.000 C 
ATOM      4  C   UNL     1       6.419   4.872  16.359  0.00  0.00    +0.000 C 
ATOM      5  C   UNL     1       5.193   5.455  15.710  0.00  0.00    +0.000 C 
ATOM      6  C   UNL     1       4.860   4.572  14.538  0.00  0.00    +0.000 C 
ATOM      7  C   UNL     1       5.155   5.100  17.196  0.00  0.00    +0.000 C 
ENDROOT
BRANCH   7   8
ATOM      8  C   UNL     1       4.330   3.880  17.617  0.00  0.00    +0.000 A 
ATOM      9  C   UNL     1       3.087   3.591  17.028  0.00  0.00    +0.000 A 
ATOM     10  C   UNL     1       2.257   2.589  17.536  0.00  0.00    +0.000 A 
ATOM     11  C   UNL     1       2.672   1.825  18.622  0.00  0.00    +0.000 A 
ATOM     12  C   UNL     1       3.934   2.032  19.172  0.00  0.00    +0.000 A 
ATOM     13  C   UNL     1       4.756   3.038  18.662  0.00  0.00    +0.000 A 
ENDBRANCH   7   8
BRANCH   7  14
ATOM     14  N   UNL     1       5.198   6.173  18.256  0.00  0.00    +0.000 NA
ATOM     15  C   UNL     1       5.019   7.575  17.826  0.00  0.00    +0.000 C 
ATOM     16  C   UNL     1       3.574   7.939  17.442  0.00  0.00    +0.000 C 
ATOM     17  N   UNL     1       2.645   7.585  18.525  0.00  0.00    +0.000 N 
ATOM     18  C   UNL     1       2.810   6.275  19.180  0.00  0.00    +0.000 C 
ATOM     19  C   UNL     1       4.305   5.945  19.413  0.00  0.00    +0.000 C 
BRANCH  17  20
ATOM     20  C   UNL     1       1.674   8.476  18.931  0.00  0.00    +0.000 A 
ATOM     21  C   UNL     1       1.034   9.355  18.043  0.00  0.00    +0.000 A 
ATOM     22  C   UNL     1       0.065  10.258  18.491  0.00  0.00    +0.000 A 
ATOM     23  C   UNL     1      -0.294  10.292  19.837  0.00  0.00    +0.000 A 
ATOM     24  C   UNL     1       0.311   9.426  20.735  0.00  0.00    +0.000 A 
ATOM     25  C   UNL     1       1.276   8.528  20.283  0.00  0.00    +0.000 A 
ENDBRANCH  17  20
ENDBRANCH   7  14
TORSDOF 3
ENDMDL
MODEL 7
REMARK VINA RESULT:      -7.1      4.175      7.983
REMARK  Name = 
REMARK  4 active torsions:
REMARK  status: ('A' for Active; 'I' for Inactive)
REMARK    1  A    between atoms: C_1  and  C_2
REMARK    2  A    between atoms: C_7  and  C_8
REMARK    3  A    between atoms: C_7  and  N_14
REMARK    4  A    between atoms: N_17  and  C_18
REMARK                            x       y       z     vdW  Elec       q    Type
REMARK                         _______ _______ _______ _____ _____    ______ ____
ROOT
ATOM      1  C   UNL     1       2.925  14.554  18.407  0.00  0.00    +0.000 C 
ATOM      2  C   UNL     1       1.814  14.653  19.460  0.00  0.00    +0.000 C 
ATOM      3  C   UNL     1       0.439  14.375  18.840  0.00  0.00    +0.000 C 
ATOM      4  C   UNL     1       0.382  12.874  18.783  0.00  0.00    +0.000 C 
ATOM      5  C   UNL     1       1.303  12.344  19.848  0.00  0.00    +0.000 C 
ATOM      6  C   UNL     1       1.933  13.539  20.511  0.00  0.00    +0.000 C 
ATOM      7  C   UNL     1      -0.168  11.930  19.858  0.00  0.00    +0.000 C 
ENDROOT
BRANCH   7   8
ATOM      8  C   UNL     1      -1.067  12.516  20.951  0.00  0.00    +0.000 A 
ATOM      9  C   UNL     1      -0.598  12.720  22.260  0.00  0.00    +0.000 A 
ATOM     10  C   UNL     1      -1.464  13.082  23.295  0.00  0.00    +0.000 A 
ATOM     11  C   UNL     1      -2.816  13.287  23.032  0.00  0.00    +0.000 A 
ATOM     12  C   UNL     1      -3.291  13.175  21.729  0.00  0.00    +0.000 A 
ATOM     13  C   UNL     1      -2.421  12.809  20.702  0.00  0.00    +0.000 A 
ENDBRANCH   7   8
BRANCH   7  14
ATOM     14  N   UNL     1      -0.592  10.546  19.429  0.00  0.00    +0.000 NA
ATOM     15  C   UNL     1      -0.118  10.054  18.120  0.00  0.00    +0.000 C 
ATOM     16  C   UNL     1       1.369   9.662  18.092  0.00  0.00    +0.000 C 
ATOM     17  N   UNL     1       1.674   8.709  19.169  0.00  0.00    +0.000 N 
ATOM     18  C   UNL     1       1.119   8.974  20.508  0.00  0.00    +0.000 C 
ATOM     19  C   UNL     1      -0.342   9.480  20.423  0.00  0.00    +0.000 C 
BRANCH  17  20
ATOM     20  C   UNL     1       2.429   7.584  18.913  0.00  0.00    +0.000 A 
ATOM     21  C   UNL     1       2.412   6.454  19.745  0.00  0.00    +0.000 A 
ATOM     22  C   UNL     1       3.203   5.335  19.465  0.00  0.00    +0.000 A 
ATOM     23  C   UNL     1       4.021   5.319  18.338  0.00  0.00    +0.000 A 
ATOM     24  C   UNL     1       4.048   6.416  17.489  0.00  0.00    +0.000 A 
ATOM     25  C   UNL     1       3.258   7.527  17.773  0.00  0.00    +0.000 A 
ENDBRANCH  17  20
ENDBRANCH   7  14
TORSDOF 3
ENDMDL
MODEL 8
REMARK VINA RESULT:      -7.1      1.595      6.869
REMARK  Name = 
REMARK  4 active torsions:
REMARK  status: ('A' for Active; 'I' for Inactive)
REMARK    1  A    between atoms: C_1  and  C_2
REMARK    2  A    between atoms: C_7  and  C_8
REMARK    3  A    between atoms: C_7  and  N_14
REMARK    4  A    between atoms: N_17  and  C_18
REMARK                            x       y       z     vdW  Elec       q    Type
REMARK                         _______ _______ _______ _____ _____    ______ ____
ROOT
ATOM      1  C   UNL     1       7.102   4.728  13.509  0.00  0.00    +0.000 C 
ATOM      2  C   UNL     1       6.192   3.854  14.381  0.00  0.00    +0.000 C 
ATOM      3  C   UNL     1       6.780   3.671  15.785  0.00  0.00    +0.000 C 
ATOM      4  C   UNL     1       6.395   4.942  16.490  0.00  0.00    +0.000 C 
ATOM      5  C   UNL     1       5.170   5.485  15.808  0.00  0.00    +0.000 C 
ATOM      6  C   UNL     1       4.854   4.550  14.672  0.00  0.00    +0.000 C 
ATOM      7  C   UNL     1       5.124   5.194  17.307  0.00  0.00    +0.000 C 
ENDROOT
BRANCH   7   8
ATOM      8  C   UNL     1       4.306   3.985  17.774  0.00  0.00    +0.000 A 
ATOM      9  C   UNL     1       4.745   3.159  18.824  0.00  0.00    +0.000 A 
ATOM     10  C   UNL     1       4.094   1.961  19.128  0.00  0.00    +0.000 A 
ATOM     11  C   UNL     1       2.963   1.582  18.410  0.00  0.00    +0.000 A 
ATOM     12  C   UNL     1       2.457   2.422  17.422  0.00  0.00    +0.000 A 
ATOM     13  C   UNL     1       3.115   3.615  17.122  0.00  0.00    +0.000 A 
ENDBRANCH   7   8
BRANCH   7  14
ATOM     14  N   UNL     1       5.149   6.312  18.321  0.00  0.00    +0.000 NA
ATOM     15  C   UNL     1       4.920   7.687  17.836  0.00  0.00    +0.000 C 
ATOM     16  C   UNL     1       3.460   7.992  17.460  0.00  0.00    +0.000 C 
ATOM     17  N   UNL     1       2.558   7.656  18.572  0.00  0.00    +0.000 N 
ATOM     18  C   UNL     1       2.773   6.380  19.278  0.00  0.00    +0.000 C 
ATOM     19  C   UNL     1       4.280   6.105  19.500  0.00  0.00    +0.000 C 
BRANCH  17  20
ATOM     20  C   UNL     1       1.566   8.533  18.956  0.00  0.00    +0.000 A 
ATOM     21  C   UNL     1       1.157   8.676  20.291  0.00  0.00    +0.000 A 
ATOM     22  C   UNL     1       0.136   9.564  20.644  0.00  0.00    +0.000 A 
ATOM     23  C   UNL     1      -0.491  10.337  19.669  0.00  0.00    +0.000 A 
ATOM     24  C   UNL     1      -0.097  10.227  18.343  0.00  0.00    +0.000 A 
ATOM     25  C   UNL     1       0.921   9.342  17.997  0.00  0.00    +0.000 A 
ENDBRANCH  17  20
ENDBRANCH   7  14
TORSDOF 3
ENDMDL
MODEL 9
REMARK VINA RESULT:      -7.1      4.326      8.165
REMARK  Name = 
REMARK  4 active torsions:
REMARK  status: ('A' for Active; 'I' for Inactive)
REMARK    1  A    between atoms: C_1  and  C_2
REMARK    2  A    between atoms: C_7  and  C_8
REMARK    3  A    between atoms: C_7  and  N_14
REMARK    4  A    between atoms: N_17  and  C_18
REMARK                            x       y       z     vdW  Elec       q    Type
REMARK                         _______ _______ _______ _____ _____    ______ ____
ROOT
ATOM      1  C   UNL     1       2.550  14.732  18.426  0.00  0.00    +0.000 C 
ATOM      2  C   UNL     1       1.485  14.784  19.528  0.00  0.00    +0.000 C 
ATOM      3  C   UNL     1       0.095  14.456  18.969  0.00  0.00    +0.000 C 
ATOM      4  C   UNL     1       0.093  12.954  18.904  0.00  0.00    +0.000 C 
ATOM      5  C   UNL     1       1.080  12.456  19.924  0.00  0.00    +0.000 C 
ATOM      6  C   UNL     1       1.694  13.671  20.566  0.00  0.00    +0.000 C 
ATOM      7  C   UNL     1      -0.371  11.985  19.997  0.00  0.00    +0.000 C 
ENDROOT
BRANCH   7   8
ATOM      8  C   UNL     1      -1.242  12.531  21.133  0.00  0.00    +0.000 A 
ATOM      9  C   UNL     1      -2.606  12.816  20.945  0.00  0.00    +0.000 A 
ATOM     10  C   UNL     1      -3.352  13.480  21.923  0.00  0.00    +0.000 A 
ATOM     11  C   UNL     1      -2.756  13.839  23.129  0.00  0.00    +0.000 A 
ATOM     12  C   UNL     1      -1.431  13.494  23.375  0.00  0.00    +0.000 A 
ATOM     13  C   UNL     1      -0.692  12.834  22.393  0.00  0.00    +0.000 A 
ENDBRANCH   7   8
BRANCH   7  14
ATOM     14  N   UNL     1      -0.762  10.588  19.579  0.00  0.00    +0.000 NA
ATOM     15  C   UNL     1      -0.316  10.115  18.254  0.00  0.00    +0.000 C 
ATOM     16  C   UNL     1       1.183   9.775  18.174  0.00  0.00    +0.000 C 
ATOM     17  N   UNL     1       1.557   8.831  19.238  0.00  0.00    +0.000 N 
ATOM     18  C   UNL     1       1.039   9.075  20.596  0.00  0.00    +0.000 C 
ATOM     19  C   UNL     1      -0.441   9.530  20.561  0.00  0.00    +0.000 C 
BRANCH  17  20
ATOM     20  C   UNL     1       2.342   7.734  18.953  0.00  0.00    +0.000 A 
ATOM     21  C   UNL     1       3.123   7.643  17.790  0.00  0.00    +0.000 A 
ATOM     22  C   UNL     1       3.895   6.508  17.523  0.00  0.00    +0.000 A 
ATOM     23  C   UNL     1       3.912   5.443  18.421  0.00  0.00    +0.000 A 
ATOM     24  C   UNL     1       3.161   5.511  19.586  0.00  0.00    +0.000 A 
ATOM     25  C   UNL     1       2.394   6.644  19.846  0.00  0.00    +0.000 A 
ENDBRANCH  17  20
ENDBRANCH   7  14
TORSDOF 3
ENDMDL
