MODEL 1
REMARK VINA RESULT:      -8.8      0.000      0.000
REMARK  Name = 
REMARK  9 active torsions:
REMARK  status: ('A' for Active; 'I' for Inactive)
REMARK    1  A    between atoms: C_1  and  O_2
REMARK    2  A    between atoms: O_2  and  C_3
REMARK    3  A    between atoms: C_3  and  C_5
REMARK    4  A    between atoms: C_5  and  N_6
REMARK    5  A    between atoms: N_6  and  S_7
REMARK    6  A    between atoms: S_7  and  C_10
REMARK    7  A    between atoms: C_13  and  N_14
REMARK    8  A    between atoms: N_14  and  C_15
REMARK    9  A    between atoms: C_24  and  C_25
REMARK                            x       y       z     vdW  Elec       q    Type
REMARK                         _______ _______ _______ _____ _____    ______ ____
ROOT
ATOM      1  C   UNL     1       3.246   5.128  19.158  0.00  0.00    +0.000 A 
ATOM      2  C   UNL     1       3.246   6.487  18.802  0.00  0.00    +0.000 A 
ATOM      3  C   UNL     1       2.425   7.399  19.472  0.00  0.00    +0.000 A 
ATOM      4  C   UNL     1       1.581   6.972  20.494  0.00  0.00    +0.000 A 
ATOM      5  C   UNL     1       1.579   5.613  20.826  0.00  0.00    +0.000 A 
ATOM      6  C   UNL     1       2.407   4.667  20.184  0.00  0.00    +0.000 A 
ENDROOT
BRANCH   6   7
ATOM      7  C   UNL     1       2.310   3.258  20.711  0.00  0.00    +0.000 C 
ATOM      8  F   UNL     1       3.475   2.655  21.055  0.00  0.00    +0.000 F 
ATOM      9  F   UNL     1       1.572   3.225  21.861  0.00  0.00    +0.000 F 
ATOM     10  F   UNL     1       1.673   2.416  19.852  0.00  0.00    +0.000 F 
ENDBRANCH   6   7
BRANCH   1  11
ATOM     11  S   UNL     1       4.277   4.024  18.203  0.00  0.00    +0.000 S 
ATOM     12  O   UNL     1       3.421   3.026  17.617  0.00  0.00    +0.000 OA
ATOM     13  O   UNL     1       5.362   3.644  19.081  0.00  0.00    +0.000 OA
BRANCH  11  14
ATOM     14  N   UNL     1       4.882   5.035  17.030  0.00  0.00    +0.000 NA
ATOM     15  H   UNL     1       4.324   5.878  16.863  0.00  0.00    +0.000 HD
BRANCH  14  16
ATOM     16  C   UNL     1       5.963   4.728  16.074  0.00  0.00    +0.000 C 
ATOM     17  C   UNL     1       5.782   4.886  14.581  0.00  0.00    +0.000 C 
ATOM     18  C   UNL     1       5.988   3.519  15.166  0.00  0.00    +0.000 C 
BRANCH  16  19
ATOM     19  C   UNL     1       7.281   5.166  16.670  0.00  0.00    +0.000 C 
ATOM     20  O   UNL     1       8.009   4.383  17.270  0.00  0.00    +0.000 OA
BRANCH  19  22
ATOM     21  C   UNL     1       7.567   7.310  17.571  0.00  0.00    +0.000 C 
ATOM     22  O   UNL     1       7.552   6.475  16.413  0.00  0.00    +0.000 OA
ENDBRANCH  19  22
ENDBRANCH  16  19
ENDBRANCH  14  16
ENDBRANCH  11  14
ENDBRANCH   1  11
BRANCH   4  23
ATOM     23  N   UNL     1       0.837   7.905  21.231  0.00  0.00    +0.000 N 
ATOM     24  H   UNL     1       0.647   7.655  22.198  0.00  0.00    +0.000 HD
BRANCH  23  25
ATOM     25  C   UNL     1       0.401   9.195  20.861  0.00  0.00    +0.000 A 
ATOM     26  C   UNL     1       0.502   9.631  19.529  0.00  0.00    +0.000 A 
ATOM     27  C   UNL     1       0.099  10.913  19.153  0.00  0.00    +0.000 A 
ATOM     28  C   UNL     1      -0.401  11.786  20.113  0.00  0.00    +0.000 A 
ATOM     29 CL   UNL     1      -0.920  13.356  19.643  0.00  0.00    +0.000 Cl
ATOM     30  C   UNL     1      -0.490  11.395  21.447  0.00  0.00    +0.000 A 
ATOM     31  C   UNL     1      -0.087  10.108  21.816  0.00  0.00    +0.000 A 
ATOM     32 CL   UNL     1      -0.186   9.669  23.487  0.00  0.00    +0.000 Cl
ENDBRANCH  23  25
ENDBRANCH   4  23
TORSDOF 8
ENDMDL
MODEL 2
REMARK VINA RESULT:      -8.4      0.932      1.304
REMARK  Name = 
REMARK  9 active torsions:
REMARK  status: ('A' for Active; 'I' for Inactive)
REMARK    1  A    between atoms: C_1  and  O_2
REMARK    2  A    between atoms: O_2  and  C_3
REMARK    3  A    between atoms: C_3  and  C_5
REMARK    4  A    between atoms: C_5  and  N_6
REMARK    5  A    between atoms: N_6  and  S_7
REMARK    6  A    between atoms: S_7  and  C_10
REMARK    7  A    between atoms: C_13  and  N_14
REMARK    8  A    between atoms: N_14  and  C_15
REMARK    9  A    between atoms: C_24  and  C_25
REMARK                            x       y       z     vdW  Elec       q    Type
REMARK                         _______ _______ _______ _____ _____    ______ ____
ROOT
ATOM      1  C   UNL     1       2.763   5.057  18.689  0.00  0.00    +0.000 A 
ATOM      2  C   UNL     1       2.978   6.403  18.347  0.00  0.00    +0.000 A 
ATOM      3  C   UNL     1       2.511   7.431  19.171  0.00  0.00    +0.000 A 
ATOM      4  C   UNL     1       1.810   7.138  20.338  0.00  0.00    +0.000 A 
ATOM      5  C   UNL     1       1.588   5.794  20.656  0.00  0.00    +0.000 A 
ATOM      6  C   UNL     1       2.060   4.730  19.858  0.00  0.00    +0.000 A 
ENDROOT
BRANCH   6   7
ATOM      7  C   UNL     1       1.775   3.347  20.386  0.00  0.00    +0.000 C 
ATOM      8  F   UNL     1       1.048   2.527  19.587  0.00  0.00    +0.000 F 
ATOM      9  F   UNL     1       2.939   2.661  20.590  0.00  0.00    +0.000 F 
ATOM     10  F   UNL     1       1.152   3.363  21.597  0.00  0.00    +0.000 F 
ENDBRANCH   6   7
BRANCH   1  11
ATOM     11  S   UNL     1       3.336   3.812  17.542  0.00  0.00    +0.000 S 
ATOM     12  O   UNL     1       2.180   3.121  17.035  0.00  0.00    +0.000 OA
ATOM     13  O   UNL     1       4.383   3.093  18.236  0.00  0.00    +0.000 OA
BRANCH  11  14
ATOM     14  N   UNL     1       4.037   4.731  16.347  0.00  0.00    +0.000 NA
ATOM     15  H   UNL     1       3.376   5.137  15.676  0.00  0.00    +0.000 HD
BRANCH  14  16
ATOM     16  C   UNL     1       5.475   4.812  16.025  0.00  0.00    +0.000 C 
ATOM     17  C   UNL     1       5.990   4.664  14.611  0.00  0.00    +0.000 C 
ATOM     18  C   UNL     1       6.336   3.629  15.642  0.00  0.00    +0.000 C 
BRANCH  16  19
ATOM     19  C   UNL     1       6.111   5.871  16.896  0.00  0.00    +0.000 C 
ATOM     20  O   UNL     1       6.332   7.002  16.478  0.00  0.00    +0.000 OA
BRANCH  19  22
ATOM     21  C   UNL     1       7.686   5.595  18.607  0.00  0.00    +0.000 C 
ATOM     22  O   UNL     1       6.341   5.426  18.162  0.00  0.00    +0.000 OA
ENDBRANCH  19  22
ENDBRANCH  16  19
ENDBRANCH  14  16
ENDBRANCH  11  14
ENDBRANCH   1  11
BRANCH   4  23
ATOM     23  N   UNL     1       1.434   8.167  21.213  0.00  0.00    +0.000 N 
ATOM     24  H   UNL     1       1.896   8.170  22.118  0.00  0.00    +0.000 HD
BRANCH  23  25
ATOM     25  C   UNL     1       0.584   9.271  20.985  0.00  0.00    +0.000 A 
ATOM     26  C   UNL     1       0.404   9.779  19.688  0.00  0.00    +0.000 A 
ATOM     27  C   UNL     1      -0.413  10.885  19.449  0.00  0.00    +0.000 A 
ATOM     28  C   UNL     1      -1.054  11.509  20.514  0.00  0.00    +0.000 A 
ATOM     29 CL   UNL     1      -2.079  12.856  20.216  0.00  0.00    +0.000 Cl
ATOM     30  C   UNL     1      -0.876  11.047  21.816  0.00  0.00    +0.000 A 
ATOM     31  C   UNL     1      -0.058   9.936  22.047  0.00  0.00    +0.000 A 
ATOM     32 CL   UNL     1       0.162   9.409  23.680  0.00  0.00    +0.000 Cl
ENDBRANCH  23  25
ENDBRANCH   4  23
TORSDOF 8
ENDMDL
MODEL 3
REMARK VINA RESULT:      -8.4      0.944      1.237
REMARK  Name = 
REMARK  9 active torsions:
REMARK  status: ('A' for Active; 'I' for Inactive)
REMARK    1  A    between atoms: C_1  and  O_2
REMARK    2  A    between atoms: O_2  and  C_3
REMARK    3  A    between atoms: C_3  and  C_5
REMARK    4  A    between atoms: C_5  and  N_6
REMARK    5  A    between atoms: N_6  and  S_7
REMARK    6  A    between atoms: S_7  and  C_10
REMARK    7  A    between atoms: C_13  and  N_14
REMARK    8  A    between atoms: N_14  and  C_15
REMARK    9  A    between atoms: C_24  and  C_25
REMARK                            x       y       z     vdW  Elec       q    Type
REMARK                         _______ _______ _______ _____ _____    ______ ____
ROOT
ATOM      1  C   UNL     1       3.503   4.535  19.477  0.00  0.00    +0.000 A 
ATOM      2  C   UNL     1       3.784   5.859  19.103  0.00  0.00    +0.000 A 
ATOM      3  C   UNL     1       3.020   6.919  19.602  0.00  0.00    +0.000 A 
ATOM      4  C   UNL     1       1.956   6.676  20.467  0.00  0.00    +0.000 A 
ATOM      5  C   UNL     1       1.678   5.350  20.817  0.00  0.00    +0.000 A 
ATOM      6  C   UNL     1       2.438   4.258  20.347  0.00  0.00    +0.000 A 
ENDROOT
BRANCH   6   7
ATOM      7  C   UNL     1       2.026   2.907  20.874  0.00  0.00    +0.000 C 
ATOM      8  F   UNL     1       1.904   1.909  19.963  0.00  0.00    +0.000 F 
ATOM      9  F   UNL     1       2.954   2.432  21.758  0.00  0.00    +0.000 F 
ATOM     10  F   UNL     1       0.856   2.946  21.569  0.00  0.00    +0.000 F 
ENDBRANCH   6   7
BRANCH   1  11
ATOM     11  S   UNL     1       4.490   3.241  18.738  0.00  0.00    +0.000 S 
ATOM     12  O   UNL     1       3.694   2.616  17.715  0.00  0.00    +0.000 OA
ATOM     13  O   UNL     1       5.014   2.468  19.843  0.00  0.00    +0.000 OA
BRANCH  11  14
ATOM     14  N   UNL     1       5.743   4.098  18.059  0.00  0.00    +0.000 NA
ATOM     15  H   UNL     1       6.435   4.446  18.730  0.00  0.00    +0.000 HD
BRANCH  14  16
ATOM     16  C   UNL     1       5.821   4.598  16.673  0.00  0.00    +0.000 C 
ATOM     17  C   UNL     1       4.819   4.191  15.616  0.00  0.00    +0.000 C 
ATOM     18  C   UNL     1       6.253   3.767  15.485  0.00  0.00    +0.000 C 
BRANCH  16  19
ATOM     19  C   UNL     1       6.264   6.042  16.699  0.00  0.00    +0.000 C 
ATOM     20  O   UNL     1       5.706   6.900  16.025  0.00  0.00    +0.000 OA
BRANCH  19  22
ATOM     21  C   UNL     1       7.714   7.608  17.665  0.00  0.00    +0.000 C 
ATOM     22  O   UNL     1       7.287   6.250  17.574  0.00  0.00    +0.000 OA
ENDBRANCH  19  22
ENDBRANCH  16  19
ENDBRANCH  14  16
ENDBRANCH  11  14
ENDBRANCH   1  11
BRANCH   4  23
ATOM     23  N   UNL     1       1.259   7.745  21.045  0.00  0.00    +0.000 N 
ATOM     24  H   UNL     1       1.127   7.696  22.052  0.00  0.00    +0.000 HD
BRANCH  23  25
ATOM     25  C   UNL     1       0.801   8.941  20.452  0.00  0.00    +0.000 A 
ATOM     26  C   UNL     1       1.180   9.281  19.143  0.00  0.00    +0.000 A 
ATOM     27  C   UNL     1       0.758  10.473  18.551  0.00  0.00    +0.000 A 
ATOM     28  C   UNL     1      -0.046  11.350  19.271  0.00  0.00    +0.000 A 
ATOM     29 CL   UNL     1      -0.587  12.805  18.532  0.00  0.00    +0.000 Cl
ATOM     30  C   UNL     1      -0.419  11.056  20.580  0.00  0.00    +0.000 A 
ATOM     31  C   UNL     1       0.006   9.860  21.165  0.00  0.00    +0.000 A 
ATOM     32 CL   UNL     1      -0.453   9.542  22.803  0.00  0.00    +0.000 Cl
ENDBRANCH  23  25
ENDBRANCH   4  23
TORSDOF 8
ENDMDL
MODEL 4
REMARK VINA RESULT:      -8.4      1.729      2.194
REMARK  Name = 
REMARK  9 active torsions:
REMARK  status: ('A' for Active; 'I' for Inactive)
REMARK    1  A    between atoms: C_1  and  O_2
REMARK    2  A    between atoms: O_2  and  C_3
REMARK    3  A    between atoms: C_3  and  C_5
REMARK    4  A    between atoms: C_5  and  N_6
REMARK    5  A    between atoms: N_6  and  S_7
REMARK    6  A    between atoms: S_7  and  C_10
REMARK    7  A    between atoms: C_13  and  N_14
REMARK    8  A    between atoms: N_14  and  C_15
REMARK    9  A    between atoms: C_24  and  C_25
REMARK                            x       y       z     vdW  Elec       q    Type
REMARK                         _______ _______ _______ _____ _____    ______ ____
ROOT
ATOM      1  C   UNL     1       3.182   6.505  18.247  0.00  0.00    +0.000 A 
ATOM      2  C   UNL     1       3.365   7.677  17.495  0.00  0.00    +0.000 A 
ATOM      3  C   UNL     1       2.647   8.838  17.799  0.00  0.00    +0.000 A 
ATOM      4  C   UNL     1       1.725   8.846  18.843  0.00  0.00    +0.000 A 
ATOM      5  C   UNL     1       1.541   7.665  19.571  0.00  0.00    +0.000 A 
ATOM      6  C   UNL     1       2.260   6.481  19.304  0.00  0.00    +0.000 A 
ENDROOT
BRANCH   6   7
ATOM      7  C   UNL     1       1.970   5.324  20.227  0.00  0.00    +0.000 C 
ATOM      8  F   UNL     1       1.430   4.216  19.662  0.00  0.00    +0.000 F 
ATOM      9  F   UNL     1       3.121   4.870  20.806  0.00  0.00    +0.000 F 
ATOM     10  F   UNL     1       1.158   5.668  21.264  0.00  0.00    +0.000 F 
ENDBRANCH   6   7
BRANCH   1  11
ATOM     11  S   UNL     1       4.093   5.051  17.745  0.00  0.00    +0.000 S 
ATOM     12  O   UNL     1       3.136   4.042  17.376  0.00  0.00    +0.000 OA
ATOM     13  O   UNL     1       5.055   4.809  18.798  0.00  0.00    +0.000 OA
BRANCH  11  14
ATOM     14  N   UNL     1       4.912   5.596  16.403  0.00  0.00    +0.000 NA
ATOM     15  H   UNL     1       4.440   6.347  15.891  0.00  0.00    +0.000 HD
BRANCH  14  16
ATOM     16  C   UNL     1       6.081   4.960  15.765  0.00  0.00    +0.000 C 
ATOM     17  C   UNL     1       6.230   4.880  14.263  0.00  0.00    +0.000 C 
ATOM     18  C   UNL     1       6.052   3.622  15.062  0.00  0.00    +0.000 C 
BRANCH  16  19
ATOM     19  C   UNL     1       7.315   5.284  16.576  0.00  0.00    +0.000 C 
ATOM     20  O   UNL     1       7.979   4.407  17.117  0.00  0.00    +0.000 OA
BRANCH  19  22
ATOM     21  C   UNL     1       7.710   7.193  17.875  0.00  0.00    +0.000 C 
ATOM     22  O   UNL     1       7.596   6.616  16.575  0.00  0.00    +0.000 OA
ENDBRANCH  19  22
ENDBRANCH  16  19
ENDBRANCH  14  16
ENDBRANCH  11  14
ENDBRANCH   1  11
BRANCH   4  23
ATOM     23  N   UNL     1       1.084  10.037  19.209  0.00  0.00    +0.000 N 
ATOM     24  H   UNL     1       1.669  10.733  19.664  0.00  0.00    +0.000 HD
BRANCH  23  25
ATOM     25  C   UNL     1      -0.235  10.462  18.944  0.00  0.00    +0.000 A 
ATOM     26  C   UNL     1      -0.936   9.968  17.831  0.00  0.00    +0.000 A 
ATOM     27  C   UNL     1      -2.232  10.398  17.540  0.00  0.00    +0.000 A 
ATOM     28  C   UNL     1      -2.842  11.344  18.357  0.00  0.00    +0.000 A 
ATOM     29 CL   UNL     1      -4.447  11.854  18.012  0.00  0.00    +0.000 Cl
ATOM     30  C   UNL     1      -2.165  11.874  19.453  0.00  0.00    +0.000 A 
ATOM     31  C   UNL     1      -0.869  11.436  19.740  0.00  0.00    +0.000 A 
ATOM     32 CL   UNL     1      -0.050  12.139  21.092  0.00  0.00    +0.000 Cl
ENDBRANCH  23  25
ENDBRANCH   4  23
TORSDOF 8
ENDMDL
MODEL 5
REMARK VINA RESULT:      -8.4      0.833      1.633
REMARK  Name = 
REMARK  9 active torsions:
REMARK  status: ('A' for Active; 'I' for Inactive)
REMARK    1  A    between atoms: C_1  and  O_2
REMARK    2  A    between atoms: O_2  and  C_3
REMARK    3  A    between atoms: C_3  and  C_5
REMARK    4  A    between atoms: C_5  and  N_6
REMARK    5  A    between atoms: N_6  and  S_7
REMARK    6  A    between atoms: S_7  and  C_10
REMARK    7  A    between atoms: C_13  and  N_14
REMARK    8  A    between atoms: N_14  and  C_15
REMARK    9  A    between atoms: C_24  and  C_25
REMARK                            x       y       z     vdW  Elec       q    Type
REMARK                         _______ _______ _______ _____ _____    ______ ____
ROOT
ATOM      1  C   UNL     1       3.140   4.865  19.222  0.00  0.00    +0.000 A 
ATOM      2  C   UNL     1       3.163   6.199  18.782  0.00  0.00    +0.000 A 
ATOM      3  C   UNL     1       2.392   7.174  19.422  0.00  0.00    +0.000 A 
ATOM      4  C   UNL     1       1.574   6.835  20.497  0.00  0.00    +0.000 A 
ATOM      5  C   UNL     1       1.548   5.499  20.913  0.00  0.00    +0.000 A 
ATOM      6  C   UNL     1       2.327   4.492  20.303  0.00  0.00    +0.000 A 
ENDROOT
BRANCH   6   7
ATOM      7  C   UNL     1       2.213   3.122  20.919  0.00  0.00    +0.000 C 
ATOM      8  F   UNL     1       1.593   3.045  22.124  0.00  0.00    +0.000 F 
ATOM      9  F   UNL     1       1.476   2.294  20.118  0.00  0.00    +0.000 F 
ATOM     10  F   UNL     1       3.418   2.505  21.061  0.00  0.00    +0.000 F 
ENDBRANCH   6   7
BRANCH   1  11
ATOM     11  S   UNL     1       4.107   3.676  18.303  0.00  0.00    +0.000 S 
ATOM     12  O   UNL     1       3.222   2.619  17.892  0.00  0.00    +0.000 OA
ATOM     13  O   UNL     1       5.265   3.394  19.123  0.00  0.00    +0.000 OA
BRANCH  11  14
ATOM     14  N   UNL     1       4.602   4.566  16.988  0.00  0.00    +0.000 NA
ATOM     15  H   UNL     1       4.024   4.447  16.150  0.00  0.00    +0.000 HD
BRANCH  14  16
ATOM     16  C   UNL     1       5.881   5.288  16.842  0.00  0.00    +0.000 C 
ATOM     17  C   UNL     1       6.406   6.215  17.914  0.00  0.00    +0.000 C 
ATOM     18  C   UNL     1       6.003   6.772  16.579  0.00  0.00    +0.000 C 
BRANCH  16  19
ATOM     19  C   UNL     1       6.874   4.383  16.149  0.00  0.00    +0.000 C 
ATOM     20  O   UNL     1       8.047   4.324  16.500  0.00  0.00    +0.000 OA
BRANCH  19  22
ATOM     21  C   UNL     1       6.432   4.199  13.855  0.00  0.00    +0.000 C 
ATOM     22  O   UNL     1       6.295   3.644  15.163  0.00  0.00    +0.000 OA
ENDBRANCH  19  22
ENDBRANCH  16  19
ENDBRANCH  14  16
ENDBRANCH  11  14
ENDBRANCH   1  11
BRANCH   4  23
ATOM     23  N   UNL     1       0.882   7.831  21.199  0.00  0.00    +0.000 N 
ATOM     24  H   UNL     1       0.621   7.600  22.154  0.00  0.00    +0.000 HD
BRANCH  23  25
ATOM     25  C   UNL     1       0.585   9.156  20.815  0.00  0.00    +0.000 A 
ATOM     26  C   UNL     1       0.820   9.589  19.499  0.00  0.00    +0.000 A 
ATOM     27  C   UNL     1       0.556  10.903  19.109  0.00  0.00    +0.000 A 
ATOM     28  C   UNL     1       0.062  11.810  20.040  0.00  0.00    +0.000 A 
ATOM     29 CL   UNL     1      -0.286  13.421  19.553  0.00  0.00    +0.000 Cl
ATOM     30  C   UNL     1      -0.157  11.421  21.359  0.00  0.00    +0.000 A 
ATOM     31  C   UNL     1       0.107  10.102  21.742  0.00  0.00    +0.000 A 
ATOM     32 CL   UNL     1      -0.151   9.664  23.396  0.00  0.00    +0.000 Cl
ENDBRANCH  23  25
ENDBRANCH   4  23
TORSDOF 8
ENDMDL
MODEL 6
REMARK VINA RESULT:      -8.3      0.946      1.578
REMARK  Name = 
REMARK  9 active torsions:
REMARK  status: ('A' for Active; 'I' for Inactive)
REMARK    1  A    between atoms: C_1  and  O_2
REMARK    2  A    between atoms: O_2  and  C_3
REMARK    3  A    between atoms: C_3  and  C_5
REMARK    4  A    between atoms: C_5  and  N_6
REMARK    5  A    between atoms: N_6  and  S_7
REMARK    6  A    between atoms: S_7  and  C_10
REMARK    7  A    between atoms: C_13  and  N_14
REMARK    8  A    between atoms: N_14  and  C_15
REMARK    9  A    between atoms: C_24  and  C_25
REMARK                            x       y       z     vdW  Elec       q    Type
REMARK                         _______ _______ _______ _____ _____    ______ ____
ROOT
ATOM      1  C   UNL     1       3.286   4.770  19.320  0.00  0.00    +0.000 A 
ATOM      2  C   UNL     1       3.397   6.090  18.854  0.00  0.00    +0.000 A 
ATOM      3  C   UNL     1       2.648   7.118  19.436  0.00  0.00    +0.000 A 
ATOM      4  C   UNL     1       1.765   6.845  20.478  0.00  0.00    +0.000 A 
ATOM      5  C   UNL     1       1.652   5.523  20.920  0.00  0.00    +0.000 A 
ATOM      6  C   UNL     1       2.405   4.464  20.369  0.00  0.00    +0.000 A 
ENDROOT
BRANCH   6   7
ATOM      7  C   UNL     1       2.192   3.116  21.009  0.00  0.00    +0.000 C 
ATOM      8  F   UNL     1       3.301   2.459  21.431  0.00  0.00    +0.000 F 
ATOM      9  F   UNL     1       1.431   3.234  22.138  0.00  0.00    +0.000 F 
ATOM     10  F   UNL     1       1.510   2.253  20.206  0.00  0.00    +0.000 F 
ENDBRANCH   6   7
BRANCH   1  11
ATOM     11  S   UNL     1       4.231   3.512  18.473  0.00  0.00    +0.000 S 
ATOM     12  O   UNL     1       3.305   2.524  17.986  0.00  0.00    +0.000 OA
ATOM     13  O   UNL     1       5.296   3.144  19.382  0.00  0.00    +0.000 OA
BRANCH  11  14
ATOM     14  N   UNL     1       4.895   4.363  17.208  0.00  0.00    +0.000 NA
ATOM     15  H   UNL     1       4.439   4.208  16.303  0.00  0.00    +0.000 HD
BRANCH  14  16
ATOM     16  C   UNL     1       6.175   5.097  17.213  0.00  0.00    +0.000 C 
ATOM     17  C   UNL     1       7.446   4.488  17.762  0.00  0.00    +0.000 C 
ATOM     18  C   UNL     1       6.829   5.671  18.450  0.00  0.00    +0.000 C 
BRANCH  16  19
ATOM     19  C   UNL     1       6.278   5.907  15.942  0.00  0.00    +0.000 C 
ATOM     20  O   UNL     1       5.490   6.811  15.688  0.00  0.00    +0.000 OA
BRANCH  19  22
ATOM     21  C   UNL     1       7.015   4.769  14.031  0.00  0.00    +0.000 C 
ATOM     22  O   UNL     1       7.349   5.541  15.184  0.00  0.00    +0.000 OA
ENDBRANCH  19  22
ENDBRANCH  16  19
ENDBRANCH  14  16
ENDBRANCH  11  14
ENDBRANCH   1  11
BRANCH   4  23
ATOM     23  N   UNL     1       1.094   7.892  21.125  0.00  0.00    +0.000 N 
ATOM     24  H   UNL     1       1.016   7.810  22.136  0.00  0.00    +0.000 HD
BRANCH  23  25
ATOM     25  C   UNL     1       0.600   9.103  20.595  0.00  0.00    +0.000 A 
ATOM     26  C   UNL     1       0.887   9.474  19.271  0.00  0.00    +0.000 A 
ATOM     27  C   UNL     1       0.428  10.681  18.740  0.00  0.00    +0.000 A 
ATOM     28  C   UNL     1      -0.319  11.542  19.536  0.00  0.00    +0.000 A 
ATOM     29 CL   UNL     1      -0.905  13.016  18.873  0.00  0.00    +0.000 Cl
ATOM     30  C   UNL     1      -0.599  11.216  20.861  0.00  0.00    +0.000 A 
ATOM     31  C   UNL     1      -0.139  10.005  21.385  0.00  0.00    +0.000 A 
ATOM     32 CL   UNL     1      -0.482   9.648  23.043  0.00  0.00    +0.000 Cl
ENDBRANCH  23  25
ENDBRANCH   4  23
TORSDOF 8
ENDMDL
MODEL 7
REMARK VINA RESULT:      -8.2      1.145      1.386
REMARK  Name = 
REMARK  9 active torsions:
REMARK  status: ('A' for Active; 'I' for Inactive)
REMARK    1  A    between atoms: C_1  and  O_2
REMARK    2  A    between atoms: O_2  and  C_3
REMARK    3  A    between atoms: C_3  and  C_5
REMARK    4  A    between atoms: C_5  and  N_6
REMARK    5  A    between atoms: N_6  and  S_7
REMARK    6  A    between atoms: S_7  and  C_10
REMARK    7  A    between atoms: C_13  and  N_14
REMARK    8  A    between atoms: N_14  and  C_15
REMARK    9  A    between atoms: C_24  and  C_25
REMARK                            x       y       z     vdW  Elec       q    Type
REMARK                         _______ _______ _______ _____ _____    ______ ____
ROOT
ATOM      1  C   UNL     1       3.489   4.463  19.636  0.00  0.00    +0.000 A 
ATOM      2  C   UNL     1       3.768   5.790  19.267  0.00  0.00    +0.000 A 
ATOM      3  C   UNL     1       2.935   6.834  19.681  0.00  0.00    +0.000 A 
ATOM      4  C   UNL     1       1.805   6.574  20.453  0.00  0.00    +0.000 A 
ATOM      5  C   UNL     1       1.531   5.246  20.797  0.00  0.00    +0.000 A 
ATOM      6  C   UNL     1       2.359   4.169  20.413  0.00  0.00    +0.000 A 
ENDROOT
BRANCH   6   7
ATOM      7  C   UNL     1       1.937   2.814  20.922  0.00  0.00    +0.000 C 
ATOM      8  F   UNL     1       0.715   2.736  21.505  0.00  0.00    +0.000 F 
ATOM      9  F   UNL     1       1.868   1.915  19.895  0.00  0.00    +0.000 F 
ATOM     10  F   UNL     1       2.826   2.282  21.805  0.00  0.00    +0.000 F 
ENDBRANCH   6   7
BRANCH   1  11
ATOM     11  S   UNL     1       4.571   3.187  19.006  0.00  0.00    +0.000 S 
ATOM     12  O   UNL     1       4.003   2.702  17.776  0.00  0.00    +0.000 OA
ATOM     13  O   UNL     1       4.806   2.290  20.117  0.00  0.00    +0.000 OA
BRANCH  11  14
ATOM     14  N   UNL     1       5.973   4.030  18.708  0.00  0.00    +0.000 NA
ATOM     15  H   UNL     1       6.572   4.167  19.529  0.00  0.00    +0.000 HD
BRANCH  14  16
ATOM     16  C   UNL     1       6.307   4.782  17.484  0.00  0.00    +0.000 C 
ATOM     17  C   UNL     1       5.299   5.003  16.379  0.00  0.00    +0.000 C 
ATOM     18  C   UNL     1       6.512   4.156  16.122  0.00  0.00    +0.000 C 
BRANCH  16  19
ATOM     19  C   UNL     1       7.208   5.938  17.852  0.00  0.00    +0.000 C 
ATOM     20  O   UNL     1       8.000   5.866  18.785  0.00  0.00    +0.000 OA
BRANCH  19  22
ATOM     21  C   UNL     1       7.640   8.211  17.482  0.00  0.00    +0.000 C 
ATOM     22  O   UNL     1       7.058   6.996  17.009  0.00  0.00    +0.000 OA
ENDBRANCH  19  22
ENDBRANCH  16  19
ENDBRANCH  14  16
ENDBRANCH  11  14
ENDBRANCH   1  11
BRANCH   4  23
ATOM     23  N   UNL     1       1.032   7.632  20.950  0.00  0.00    +0.000 N 
ATOM     24  H   UNL     1       0.525   7.443  21.812  0.00  0.00    +0.000 HD
BRANCH  23  25
ATOM     25  C   UNL     1       0.933   8.963  20.492  0.00  0.00    +0.000 A 
ATOM     26  C   UNL     1       1.254   9.287  19.163  0.00  0.00    +0.000 A 
ATOM     27  C   UNL     1       1.187  10.602  18.701  0.00  0.00    +0.000 A 
ATOM     28  C   UNL     1       0.807  11.618  19.571  0.00  0.00    +0.000 A 
ATOM     29 CL   UNL     1       0.701  13.234  18.994  0.00  0.00    +0.000 Cl
ATOM     30  C   UNL     1       0.509  11.335  20.902  0.00  0.00    +0.000 A 
ATOM     31  C   UNL     1       0.575  10.015  21.357  0.00  0.00    +0.000 A 
ATOM     32 CL   UNL     1       0.225   9.706  23.023  0.00  0.00    +0.000 Cl
ENDBRANCH  23  25
ENDBRANCH   4  23
TORSDOF 8
ENDMDL
MODEL 8
REMARK VINA RESULT:      -8.2      0.898      1.278
REMARK  Name = 
REMARK  9 active torsions:
REMARK  status: ('A' for Active; 'I' for Inactive)
REMARK    1  A    between atoms: C_1  and  O_2
REMARK    2  A    between atoms: O_2  and  C_3
REMARK    3  A    between atoms: C_3  and  C_5
REMARK    4  A    between atoms: C_5  and  N_6
REMARK    5  A    between atoms: N_6  and  S_7
REMARK    6  A    between atoms: S_7  and  C_10
REMARK    7  A    between atoms: C_13  and  N_14
REMARK    8  A    between atoms: N_14  and  C_15
REMARK    9  A    between atoms: C_24  and  C_25
REMARK                            x       y       z     vdW  Elec       q    Type
REMARK                         _______ _______ _______ _____ _____    ______ ____
ROOT
ATOM      1  C   UNL     1       3.254   4.586  19.009  0.00  0.00    +0.000 A 
ATOM      2  C   UNL     1       3.673   5.886  18.682  0.00  0.00    +0.000 A 
ATOM      3  C   UNL     1       3.118   6.997  19.327  0.00  0.00    +0.000 A 
ATOM      4  C   UNL     1       2.128   6.832  20.293  0.00  0.00    +0.000 A 
ATOM      5  C   UNL     1       1.710   5.531  20.595  0.00  0.00    +0.000 A 
ATOM      6  C   UNL     1       2.260   4.387  19.979  0.00  0.00    +0.000 A 
ENDROOT
BRANCH   6   7
ATOM      7  C   UNL     1       1.724   3.066  20.470  0.00  0.00    +0.000 C 
ATOM      8  F   UNL     1       0.661   3.114  21.310  0.00  0.00    +0.000 F 
ATOM      9  F   UNL     1       1.281   2.307  19.422  0.00  0.00    +0.000 F 
ATOM     10  F   UNL     1       2.673   2.308  21.085  0.00  0.00    +0.000 F 
ENDBRANCH   6   7
BRANCH   1  11
ATOM     11  S   UNL     1       3.970   3.232  18.088  0.00  0.00    +0.000 S 
ATOM     12  O   UNL     1       3.193   3.061  16.889  0.00  0.00    +0.000 OA
ATOM     13  O   UNL     1       4.118   2.148  19.035  0.00  0.00    +0.000 OA
BRANCH  11  14
ATOM     14  N   UNL     1       5.484   3.817  17.723  0.00  0.00    +0.000 NA
ATOM     15  H   UNL     1       6.127   3.864  18.520  0.00  0.00    +0.000 HD
BRANCH  14  16
ATOM     16  C   UNL     1       5.896   4.478  16.470  0.00  0.00    +0.000 C 
ATOM     17  C   UNL     1       4.960   4.613  15.289  0.00  0.00    +0.000 C 
ATOM     18  C   UNL     1       6.187   3.754  15.174  0.00  0.00    +0.000 C 
BRANCH  16  19
ATOM     19  C   UNL     1       6.772   5.662  16.808  0.00  0.00    +0.000 C 
ATOM     20  O   UNL     1       6.540   6.783  16.370  0.00  0.00    +0.000 OA
BRANCH  19  22
ATOM     21  C   UNL     1       7.848   6.154  18.831  0.00  0.00    +0.000 C 
ATOM     22  O   UNL     1       7.775   5.329  17.668  0.00  0.00    +0.000 OA
ENDBRANCH  19  22
ENDBRANCH  16  19
ENDBRANCH  14  16
ENDBRANCH  11  14
ENDBRANCH   1  11
BRANCH   4  23
ATOM     23  N   UNL     1       1.649   7.938  21.008  0.00  0.00    +0.000 N 
ATOM     24  H   UNL     1       1.971   8.017  21.969  0.00  0.00    +0.000 HD
BRANCH  23  25
ATOM     25  C   UNL     1       0.867   9.024  20.560  0.00  0.00    +0.000 A 
ATOM     26  C   UNL     1       0.904   9.425  19.214  0.00  0.00    +0.000 A 
ATOM     27  C   UNL     1       0.157  10.513  18.760  0.00  0.00    +0.000 A 
ATOM     28  C   UNL     1      -0.633  11.226  19.656  0.00  0.00    +0.000 A 
ATOM     29 CL   UNL     1      -1.572  12.550  19.091  0.00  0.00    +0.000 Cl
ATOM     30  C   UNL     1      -0.671  10.872  21.002  0.00  0.00    +0.000 A 
ATOM     31  C   UNL     1       0.078   9.779  21.449  0.00  0.00    +0.000 A 
ATOM     32 CL   UNL     1       0.026   9.386  23.133  0.00  0.00    +0.000 Cl
ENDBRANCH  23  25
ENDBRANCH   4  23
TORSDOF 8
ENDMDL
MODEL 9
REMARK VINA RESULT:      -8.2      1.798      2.622
REMARK  Name = 
REMARK  9 active torsions:
REMARK  status: ('A' for Active; 'I' for Inactive)
REMARK    1  A    between atoms: C_1  and  O_2
REMARK    2  A    between atoms: O_2  and  C_3
REMARK    3  A    between atoms: C_3  and  C_5
REMARK    4  A    between atoms: C_5  and  N_6
REMARK    5  A    between atoms: N_6  and  S_7
REMARK    6  A    between atoms: S_7  and  C_10
REMARK    7  A    between atoms: C_13  and  N_14
REMARK    8  A    between atoms: N_14  and  C_15
REMARK    9  A    between atoms: C_24  and  C_25
REMARK                            x       y       z     vdW  Elec       q    Type
REMARK                         _______ _______ _______ _____ _____    ______ ____
ROOT
ATOM      1  C   UNL     1       3.245   6.455  18.338  0.00  0.00    +0.000 A 
ATOM      2  C   UNL     1       3.419   7.682  17.676  0.00  0.00    +0.000 A 
ATOM      3  C   UNL     1       2.638   8.792  18.014  0.00  0.00    +0.000 A 
ATOM      4  C   UNL     1       1.662   8.694  19.003  0.00  0.00    +0.000 A 
ATOM      5  C   UNL     1       1.488   7.460  19.640  0.00  0.00    +0.000 A 
ATOM      6  C   UNL     1       2.270   6.325  19.338  0.00  0.00    +0.000 A 
ENDROOT
BRANCH   6   7
ATOM      7  C   UNL     1       1.979   5.099  20.165  0.00  0.00    +0.000 C 
ATOM      8  F   UNL     1       0.828   5.107  20.882  0.00  0.00    +0.000 F 
ATOM      9  F   UNL     1       1.859   3.997  19.365  0.00  0.00    +0.000 F 
ATOM     10  F   UNL     1       2.980   4.801  21.038  0.00  0.00    +0.000 F 
ENDBRANCH   6   7
BRANCH   1  11
ATOM     11  S   UNL     1       4.242   5.075  17.793  0.00  0.00    +0.000 S 
ATOM     12  O   UNL     1       3.381   4.172  17.076  0.00  0.00    +0.000 OA
ATOM     13  O   UNL     1       4.969   4.632  18.963  0.00  0.00    +0.000 OA
BRANCH  11  14
ATOM     14  N   UNL     1       5.316   5.805  16.755  0.00  0.00    +0.000 NA
ATOM     15  H   UNL     1       4.958   5.956  15.807  0.00  0.00    +0.000 HD
BRANCH  14  16
ATOM     16  C   UNL     1       6.758   6.021  16.986  0.00  0.00    +0.000 C 
ATOM     17  C   UNL     1       7.302   6.420  18.339  0.00  0.00    +0.000 C 
ATOM     18  C   UNL     1       7.400   7.376  17.185  0.00  0.00    +0.000 C 
BRANCH  16  19
ATOM     19  C   UNL     1       7.537   5.001  16.189  0.00  0.00    +0.000 C 
ATOM     20  O   UNL     1       8.103   4.057  16.729  0.00  0.00    +0.000 OA
BRANCH  19  22
ATOM     21  C   UNL     1       6.643   4.337  14.128  0.00  0.00    +0.000 C 
ATOM     22  O   UNL     1       7.479   5.241  14.850  0.00  0.00    +0.000 OA
ENDBRANCH  19  22
ENDBRANCH  16  19
ENDBRANCH  14  16
ENDBRANCH  11  14
ENDBRANCH   1  11
BRANCH   4  23
ATOM     23  N   UNL     1       0.953   9.832  19.410  0.00  0.00    +0.000 N 
ATOM     24  H   UNL     1       1.447  10.460  20.039  0.00  0.00    +0.000 HD
BRANCH  23  25
ATOM     25  C   UNL     1      -0.311  10.297  18.990  0.00  0.00    +0.000 A 
ATOM     26  C   UNL     1      -0.817   9.954  17.725  0.00  0.00    +0.000 A 
ATOM     27  C   UNL     1      -2.054  10.427  17.285  0.00  0.00    +0.000 A 
ATOM     28  C   UNL     1      -2.801  11.265  18.106  0.00  0.00    +0.000 A 
ATOM     29 CL   UNL     1      -4.336  11.826  17.573  0.00  0.00    +0.000 Cl
ATOM     30  C   UNL     1      -2.318  11.646  19.355  0.00  0.00    +0.000 A 
ATOM     31  C   UNL     1      -1.079  11.166  19.790  0.00  0.00    +0.000 A 
ATOM     32 CL   UNL     1      -0.498  11.685  21.336  0.00  0.00    +0.000 Cl
ENDBRANCH  23  25
ENDBRANCH   4  23
TORSDOF 8
ENDMDL
