MODEL 1
REMARK VINA RESULT:      -7.0      0.000      0.000
REMARK  Name = 
REMARK  6 active torsions:
REMARK  status: ('A' for Active; 'I' for Inactive)
REMARK    1  A    between atoms: C_1  and  C_2
REMARK    2  A    between atoms: N_4  and  C_5
REMARK    3  A    between atoms: C_11  and  N_12
REMARK    4  A    between atoms: C_18  and  O_19
REMARK    5  A    between atoms: C_20  and  C_21
REMARK    6  A    between atoms: C_20  and  C_22
REMARK                            x       y       z     vdW  Elec       q    Type
REMARK                         _______ _______ _______ _____ _____    ______ ____
ROOT
ATOM      1  C   UNL     1       6.739   7.073  17.626  0.00  0.00    +0.000 A 
ATOM      2  C   UNL     1       7.504   6.017  18.165  0.00  0.00    +0.000 A 
ATOM      3  C   UNL     1       6.924   4.771  18.400  0.00  0.00    +0.000 A 
ATOM      4  C   UNL     1       5.569   4.548  18.143  0.00  0.00    +0.000 A 
ATOM      5  C   UNL     1       4.774   5.593  17.608  0.00  0.00    +0.000 A 
ATOM      6  C   UNL     1       5.393   6.830  17.327  0.00  0.00    +0.000 A 
ATOM      7  C   UNL     1       3.272   5.387  17.356  0.00  0.00    +0.000 C 
ATOM      8  C   UNL     1       2.914   3.875  17.506  0.00  0.00    +0.000 C 
ATOM      9  C   UNL     1       3.706   3.068  18.603  0.00  0.00    +0.000 C 
ATOM     10  C   UNL     1       3.383   3.373  20.078  0.00  0.00    +0.000 C 
ATOM     11  C   UNL     1       3.468   1.555  18.401  0.00  0.00    +0.000 C 
ATOM     12  O   UNL     1       5.056   3.320  18.424  0.00  0.00    +0.000 OA
ENDROOT
BRANCH   7  13
ATOM     13  N   UNL     1       2.354   6.344  18.099  0.00  0.00    +0.000 NA
ATOM     14  C   UNL     1       2.657   6.497  19.553  0.00  0.00    +0.000 C 
ATOM     15  C   UNL     1       1.897   7.625  20.250  0.00  0.00    +0.000 C 
ATOM     16  C   UNL     1       2.126   8.932  19.517  0.00  0.00    +0.000 C 
ATOM     17  C   UNL     1       1.542   8.764  18.122  0.00  0.00    +0.000 C 
ATOM     18  C   UNL     1       2.287   7.652  17.374  0.00  0.00    +0.000 C 
ENDBRANCH   7  13
BRANCH   1  22
ATOM     19  C   UNL     1       8.636  10.420  17.734  0.00  0.00    +0.000 C 
ATOM     20  C   UNL     1       8.247   9.016  18.087  0.00  0.00    +0.000 C 
ATOM     21  O   UNL     1       8.802   8.481  19.032  0.00  0.00    +0.000 OA
ATOM     22  N   UNL     1       7.256   8.396  17.389  0.00  0.00    +0.000 N 
ATOM     23  H   UNL     1       6.784   8.953  16.656  0.00  0.00    +0.000 HD
ENDBRANCH   1  22
BRANCH   8  24
ATOM     24  O   UNL     1       1.524   3.651  17.462  0.00  0.00    +0.000 OA
ATOM     25  H   UNL     1       1.153   4.089  16.658  0.00  0.00    +0.000 HD
ENDBRANCH   8  24
TORSDOF 3
ENDMDL
MODEL 2
REMARK VINA RESULT:      -6.7      6.273      9.913
REMARK  Name = 
REMARK  6 active torsions:
REMARK  status: ('A' for Active; 'I' for Inactive)
REMARK    1  A    between atoms: C_1  and  C_2
REMARK    2  A    between atoms: N_4  and  C_5
REMARK    3  A    between atoms: C_11  and  N_12
REMARK    4  A    between atoms: C_18  and  O_19
REMARK    5  A    between atoms: C_20  and  C_21
REMARK    6  A    between atoms: C_20  and  C_22
REMARK                            x       y       z     vdW  Elec       q    Type
REMARK                         _______ _______ _______ _____ _____    ______ ____
ROOT
ATOM      1  C   UNL     1      -3.627  11.553  17.410  0.00  0.00    +0.000 A 
ATOM      2  C   UNL     1      -3.138  10.595  16.497  0.00  0.00    +0.000 A 
ATOM      3  C   UNL     1      -1.966   9.891  16.769  0.00  0.00    +0.000 A 
ATOM      4  C   UNL     1      -1.231  10.140  17.930  0.00  0.00    +0.000 A 
ATOM      5  C   UNL     1      -1.694  11.102  18.863  0.00  0.00    +0.000 A 
ATOM      6  C   UNL     1      -2.910  11.765  18.594  0.00  0.00    +0.000 A 
ATOM      7  C   UNL     1      -0.882  11.425  20.127  0.00  0.00    +0.000 C 
ATOM      8  C   UNL     1       0.265  10.379  20.300  0.00  0.00    +0.000 C 
ATOM      9  C   UNL     1       0.934   9.841  18.980  0.00  0.00    +0.000 C 
ATOM     10  C   UNL     1       1.832  10.814  18.194  0.00  0.00    +0.000 C 
ATOM     11  C   UNL     1       1.801   8.606  19.309  0.00  0.00    +0.000 C 
ATOM     12  O   UNL     1      -0.078   9.443  18.122  0.00  0.00    +0.000 OA
ENDROOT
BRANCH   7  13
ATOM     13  N   UNL     1      -0.456  12.877  20.269  0.00  0.00    +0.000 NA
ATOM     14  C   UNL     1      -0.339  13.623  18.981  0.00  0.00    +0.000 C 
ATOM     15  C   UNL     1      -0.144  15.132  19.129  0.00  0.00    +0.000 C 
ATOM     16  C   UNL     1      -1.252  15.714  19.984  0.00  0.00    +0.000 C 
ATOM     17  C   UNL     1      -1.123  15.086  21.364  0.00  0.00    +0.000 C 
ATOM     18  C   UNL     1      -1.330  13.569  21.269  0.00  0.00    +0.000 C 
ENDBRANCH   7  13
BRANCH   1  22
ATOM     19  C   UNL     1      -7.207  12.952  17.208  0.00  0.00    +0.000 C 
ATOM     20  C   UNL     1      -6.078  12.030  17.562  0.00  0.00    +0.000 C 
ATOM     21  O   UNL     1      -6.340  10.990  18.143  0.00  0.00    +0.000 OA
ATOM     22  N   UNL     1      -4.809  12.345  17.184  0.00  0.00    +0.000 N 
ATOM     23  H   UNL     1      -4.689  13.206  16.625  0.00  0.00    +0.000 HD
ENDBRANCH   1  22
BRANCH   8  24
ATOM     24  O   UNL     1       1.148  10.727  21.340  0.00  0.00    +0.000 OA
ATOM     25  H   UNL     1       1.218   9.971  21.971  0.00  0.00    +0.000 HD
ENDBRANCH   8  24
TORSDOF 3
ENDMDL
MODEL 3
REMARK VINA RESULT:      -6.6      6.141     10.105
REMARK  Name = 
REMARK  6 active torsions:
REMARK  status: ('A' for Active; 'I' for Inactive)
REMARK    1  A    between atoms: C_1  and  C_2
REMARK    2  A    between atoms: N_4  and  C_5
REMARK    3  A    between atoms: C_11  and  N_12
REMARK    4  A    between atoms: C_18  and  O_19
REMARK    5  A    between atoms: C_20  and  C_21
REMARK    6  A    between atoms: C_20  and  C_22
REMARK                            x       y       z     vdW  Elec       q    Type
REMARK                         _______ _______ _______ _____ _____    ______ ____
ROOT
ATOM      1  C   UNL     1      -3.315  11.862  17.867  0.00  0.00    +0.000 A 
ATOM      2  C   UNL     1      -4.364  11.925  18.808  0.00  0.00    +0.000 A 
ATOM      3  C   UNL     1      -4.115  12.330  20.118  0.00  0.00    +0.000 A 
ATOM      4  C   UNL     1      -2.823  12.649  20.540  0.00  0.00    +0.000 A 
ATOM      5  C   UNL     1      -1.748  12.588  19.618  0.00  0.00    +0.000 A 
ATOM      6  C   UNL     1      -2.029  12.227  18.283  0.00  0.00    +0.000 A 
ATOM      7  C   UNL     1      -0.309  12.893  20.066  0.00  0.00    +0.000 C 
ATOM      8  C   UNL     1      -0.323  13.507  21.502  0.00  0.00    +0.000 C 
ATOM      9  C   UNL     1      -1.420  12.962  22.492  0.00  0.00    +0.000 C 
ATOM     10  C   UNL     1      -1.246  11.526  23.022  0.00  0.00    +0.000 C 
ATOM     11  C   UNL     1      -1.500  13.884  23.729  0.00  0.00    +0.000 C 
ATOM     12  O   UNL     1      -2.641  13.008  21.841  0.00  0.00    +0.000 OA
ENDROOT
BRANCH   7  13
ATOM     13  N   UNL     1       0.686  11.764  19.858  0.00  0.00    +0.000 NA
ATOM     14  C   UNL     1       0.111  10.392  19.982  0.00  0.00    +0.000 C 
ATOM     15  C   UNL     1       1.044   9.264  19.545  0.00  0.00    +0.000 C 
ATOM     16  C   UNL     1       1.527   9.513  18.130  0.00  0.00    +0.000 C 
ATOM     17  C   UNL     1       2.332  10.804  18.158  0.00  0.00    +0.000 C 
ATOM     18  C   UNL     1       1.432  11.973  18.575  0.00  0.00    +0.000 C 
ENDBRANCH   7  13
BRANCH   1  22
ATOM     19  C   UNL     1      -3.147  10.041  14.480  0.00  0.00    +0.000 C 
ATOM     20  C   UNL     1      -2.894  10.337  15.928  0.00  0.00    +0.000 C 
ATOM     21  O   UNL     1      -2.121   9.620  16.540  0.00  0.00    +0.000 OA
ATOM     22  N   UNL     1      -3.484  11.419  16.507  0.00  0.00    +0.000 N 
ATOM     23  H   UNL     1      -4.061  12.019  15.893  0.00  0.00    +0.000 HD
ENDBRANCH   1  22
BRANCH   8  24
ATOM     24  O   UNL     1       0.974  13.642  22.034  0.00  0.00    +0.000 OA
ATOM     25  H   UNL     1       1.158  12.877  22.632  0.00  0.00    +0.000 HD
ENDBRANCH   8  24
TORSDOF 3
ENDMDL
MODEL 4
REMARK VINA RESULT:      -6.5      3.765      6.068
REMARK  Name = 
REMARK  6 active torsions:
REMARK  status: ('A' for Active; 'I' for Inactive)
REMARK    1  A    between atoms: C_1  and  C_2
REMARK    2  A    between atoms: N_4  and  C_5
REMARK    3  A    between atoms: C_11  and  N_12
REMARK    4  A    between atoms: C_18  and  O_19
REMARK    5  A    between atoms: C_20  and  C_21
REMARK    6  A    between atoms: C_20  and  C_22
REMARK                            x       y       z     vdW  Elec       q    Type
REMARK                         _______ _______ _______ _____ _____    ______ ____
ROOT
ATOM      1  C   UNL     1       6.276   3.667  13.838  0.00  0.00    +0.000 A 
ATOM      2  C   UNL     1       6.908   4.840  13.375  0.00  0.00    +0.000 A 
ATOM      3  C   UNL     1       7.383   5.791  14.276  0.00  0.00    +0.000 A 
ATOM      4  C   UNL     1       7.214   5.626  15.652  0.00  0.00    +0.000 A 
ATOM      5  C   UNL     1       6.577   4.461  16.147  0.00  0.00    +0.000 A 
ATOM      6  C   UNL     1       6.151   3.485  15.221  0.00  0.00    +0.000 A 
ATOM      7  C   UNL     1       6.341   4.274  17.654  0.00  0.00    +0.000 C 
ATOM      8  C   UNL     1       7.129   5.362  18.451  0.00  0.00    +0.000 C 
ATOM      9  C   UNL     1       7.241   6.783  17.782  0.00  0.00    +0.000 C 
ATOM     10  C   UNL     1       5.963   7.640  17.722  0.00  0.00    +0.000 C 
ATOM     11  C   UNL     1       8.301   7.622  18.530  0.00  0.00    +0.000 C 
ATOM     12  O   UNL     1       7.672   6.607  16.478  0.00  0.00    +0.000 OA
ENDROOT
BRANCH   7  13
ATOM     13  N   UNL     1       4.888   4.101  18.065  0.00  0.00    +0.000 NA
ATOM     14  C   UNL     1       3.897   4.725  17.139  0.00  0.00    +0.000 C 
ATOM     15  C   UNL     1       2.441   4.357  17.416  0.00  0.00    +0.000 C 
ATOM     16  C   UNL     1       2.283   2.849  17.427  0.00  0.00    +0.000 C 
ATOM     17  C   UNL     1       3.127   2.325  18.579  0.00  0.00    +0.000 C 
ATOM     18  C   UNL     1       4.605   2.655  18.338  0.00  0.00    +0.000 C 
ENDBRANCH   7  13
BRANCH   1  22
ATOM     19  C   UNL     1       5.574   1.133  11.028  0.00  0.00    +0.000 C 
ATOM     20  C   UNL     1       6.304   2.158  11.842  0.00  0.00    +0.000 C 
ATOM     21  O   UNL     1       7.385   2.556  11.441  0.00  0.00    +0.000 OA
ATOM     22  N   UNL     1       5.728   2.656  12.971  0.00  0.00    +0.000 N 
ATOM     23  H   UNL     1       4.775   2.322  13.194  0.00  0.00    +0.000 HD
ENDBRANCH   1  22
BRANCH   8  24
ATOM     24  O   UNL     1       6.811   5.350  19.823  0.00  0.00    +0.000 OA
ATOM     25  H   UNL     1       7.628   5.537  20.345  0.00  0.00    +0.000 HD
ENDBRANCH   8  24
TORSDOF 3
ENDMDL
MODEL 5
REMARK VINA RESULT:      -6.4      9.342     12.658
REMARK  Name = 
REMARK  6 active torsions:
REMARK  status: ('A' for Active; 'I' for Inactive)
REMARK    1  A    between atoms: C_1  and  C_2
REMARK    2  A    between atoms: N_4  and  C_5
REMARK    3  A    between atoms: C_11  and  N_12
REMARK    4  A    between atoms: C_18  and  O_19
REMARK    5  A    between atoms: C_20  and  C_21
REMARK    6  A    between atoms: C_20  and  C_22
REMARK                            x       y       z     vdW  Elec       q    Type
REMARK                         _______ _______ _______ _____ _____    ______ ____
ROOT
ATOM      1  C   UNL     1      -4.807  12.099  18.953  0.00  0.00    +0.000 A 
ATOM      2  C   UNL     1      -6.063  11.487  19.147  0.00  0.00    +0.000 A 
ATOM      3  C   UNL     1      -6.817  11.767  20.285  0.00  0.00    +0.000 A 
ATOM      4  C   UNL     1      -6.336  12.627  21.275  0.00  0.00    +0.000 A 
ATOM      5  C   UNL     1      -5.074  13.250  21.111  0.00  0.00    +0.000 A 
ATOM      6  C   UNL     1      -4.349  12.996  19.926  0.00  0.00    +0.000 A 
ATOM      7  C   UNL     1      -4.502  14.168  22.203  0.00  0.00    +0.000 C 
ATOM      8  C   UNL     1      -5.605  14.474  23.265  0.00  0.00    +0.000 C 
ATOM      9  C   UNL     1      -6.621  13.313  23.582  0.00  0.00    +0.000 C 
ATOM     10  C   UNL     1      -6.088  12.101  24.368  0.00  0.00    +0.000 C 
ATOM     11  C   UNL     1      -7.810  13.877  24.391  0.00  0.00    +0.000 C 
ATOM     12  O   UNL     1      -7.107  12.833  22.378  0.00  0.00    +0.000 OA
ENDROOT
BRANCH   7  13
ATOM     13  N   UNL     1      -3.160  13.738  22.773  0.00  0.00    +0.000 NA
ATOM     14  C   UNL     1      -2.913  12.265  22.748  0.00  0.00    +0.000 C 
ATOM     15  C   UNL     1      -1.485  11.849  23.097  0.00  0.00    +0.000 C 
ATOM     16  C   UNL     1      -0.503  12.570  22.195  0.00  0.00    +0.000 C 
ATOM     17  C   UNL     1      -0.643  14.056  22.487  0.00  0.00    +0.000 C 
ATOM     18  C   UNL     1      -2.059  14.527  22.134  0.00  0.00    +0.000 C 
ENDBRANCH   7  13
BRANCH   1  22
ATOM     19  C   UNL     1      -2.556  10.529  16.255  0.00  0.00    +0.000 C 
ATOM     20  C   UNL     1      -3.473  10.621  17.437  0.00  0.00    +0.000 C 
ATOM     21  O   UNL     1      -3.727   9.601  18.055  0.00  0.00    +0.000 OA
ATOM     22  N   UNL     1      -3.953  11.835  17.823  0.00  0.00    +0.000 N 
ATOM     23  H   UNL     1      -3.622  12.658  17.291  0.00  0.00    +0.000 HD
ENDBRANCH   1  22
BRANCH   8  24
ATOM     24  O   UNL     1      -5.091  15.163  24.381  0.00  0.00    +0.000 OA
ATOM     25  H   UNL     1      -4.911  16.101  24.126  0.00  0.00    +0.000 HD
ENDBRANCH   8  24
TORSDOF 3
ENDMDL
MODEL 6
REMARK VINA RESULT:      -6.3      8.309     11.660
REMARK  Name = 
REMARK  6 active torsions:
REMARK  status: ('A' for Active; 'I' for Inactive)
REMARK    1  A    between atoms: C_1  and  C_2
REMARK    2  A    between atoms: N_4  and  C_5
REMARK    3  A    between atoms: C_11  and  N_12
REMARK    4  A    between atoms: C_18  and  O_19
REMARK    5  A    between atoms: C_20  and  C_21
REMARK    6  A    between atoms: C_20  and  C_22
REMARK                            x       y       z     vdW  Elec       q    Type
REMARK                         _______ _______ _______ _____ _____    ______ ____
ROOT
ATOM      1  C   UNL     1       7.674  14.759  21.551  0.00  0.00    +0.000 A 
ATOM      2  C   UNL     1       7.914  16.060  22.039  0.00  0.00    +0.000 A 
ATOM      3  C   UNL     1       8.579  16.999  21.252  0.00  0.00    +0.000 A 
ATOM      4  C   UNL     1       9.054  16.667  19.981  0.00  0.00    +0.000 A 
ATOM      5  C   UNL     1       8.833  15.364  19.468  0.00  0.00    +0.000 A 
ATOM      6  C   UNL     1       8.111  14.445  20.258  0.00  0.00    +0.000 A 
ATOM      7  C   UNL     1       9.381  14.959  18.090  0.00  0.00    +0.000 C 
ATOM      8  C   UNL     1       9.903  16.224  17.337  0.00  0.00    +0.000 C 
ATOM      9  C   UNL     1      10.575  17.343  18.219  0.00  0.00    +0.000 C 
ATOM     10  C   UNL     1      11.957  17.034  18.823  0.00  0.00    +0.000 C 
ATOM     11  C   UNL     1      10.735  18.631  17.381  0.00  0.00    +0.000 C 
ATOM     12  O   UNL     1       9.723  17.619  19.276  0.00  0.00    +0.000 OA
ENDROOT
BRANCH   7  13
ATOM     13  N   UNL     1      10.332  13.774  18.095  0.00  0.00    +0.000 NA
ATOM     14  C   UNL     1      11.200  13.673  19.306  0.00  0.00    +0.000 C 
ATOM     15  C   UNL     1      11.983  12.367  19.427  0.00  0.00    +0.000 C 
ATOM     16  C   UNL     1      11.033  11.187  19.351  0.00  0.00    +0.000 C 
ATOM     17  C   UNL     1      10.391  11.224  17.973  0.00  0.00    +0.000 C 
ATOM     18  C   UNL     1       9.576  12.513  17.809  0.00  0.00    +0.000 C 
ENDBRANCH   7  13
BRANCH   1  22
ATOM     19  C   UNL     1       6.799  11.647  23.640  0.00  0.00    +0.000 C 
ATOM     20  C   UNL     1       7.631  12.662  22.915  0.00  0.00    +0.000 C 
ATOM     21  O   UNL     1       8.835  12.480  22.843  0.00  0.00    +0.000 OA
ATOM     22  N   UNL     1       7.026  13.724  22.315  0.00  0.00    +0.000 N 
ATOM     23  H   UNL     1       5.994  13.756  22.358  0.00  0.00    +0.000 HD
ENDBRANCH   1  22
BRANCH   8  24
ATOM     24  O   UNL     1      10.577  15.892  16.146  0.00  0.00    +0.000 OA
ATOM     25  H   UNL     1       9.921  15.566  15.484  0.00  0.00    +0.000 HD
ENDBRANCH   8  24
TORSDOF 3
ENDMDL
MODEL 7
REMARK VINA RESULT:      -6.3      3.863      5.797
REMARK  Name = 
REMARK  6 active torsions:
REMARK  status: ('A' for Active; 'I' for Inactive)
REMARK    1  A    between atoms: C_1  and  C_2
REMARK    2  A    between atoms: N_4  and  C_5
REMARK    3  A    between atoms: C_11  and  N_12
REMARK    4  A    between atoms: C_18  and  O_19
REMARK    5  A    between atoms: C_20  and  C_21
REMARK    6  A    between atoms: C_20  and  C_22
REMARK                            x       y       z     vdW  Elec       q    Type
REMARK                         _______ _______ _______ _____ _____    ______ ____
ROOT
ATOM      1  C   UNL     1       5.978   3.618  13.076  0.00  0.00    +0.000 A 
ATOM      2  C   UNL     1       6.959   4.610  12.865  0.00  0.00    +0.000 A 
ATOM      3  C   UNL     1       7.482   5.327  13.938  0.00  0.00    +0.000 A 
ATOM      4  C   UNL     1       7.026   5.110  15.240  0.00  0.00    +0.000 A 
ATOM      5  C   UNL     1       6.035   4.125  15.482  0.00  0.00    +0.000 A 
ATOM      6  C   UNL     1       5.558   3.372  14.389  0.00  0.00    +0.000 A 
ATOM      7  C   UNL     1       5.486   3.895  16.899  0.00  0.00    +0.000 C 
ATOM      8  C   UNL     1       6.360   4.667  17.937  0.00  0.00    +0.000 C 
ATOM      9  C   UNL     1       6.947   6.053  17.472  0.00  0.00    +0.000 C 
ATOM     10  C   UNL     1       5.960   7.224  17.314  0.00  0.00    +0.000 C 
ATOM     11  C   UNL     1       8.027   6.516  18.475  0.00  0.00    +0.000 C 
ATOM     12  O   UNL     1       7.554   5.866  16.241  0.00  0.00    +0.000 OA
ENDROOT
BRANCH   7  13
ATOM     13  N   UNL     1       3.986   4.088  17.050  0.00  0.00    +0.000 NA
ATOM     14  C   UNL     1       3.264   2.932  17.660  0.00  0.00    +0.000 C 
ATOM     15  C   UNL     1       1.807   3.209  18.029  0.00  0.00    +0.000 C 
ATOM     16  C   UNL     1       1.726   4.425  18.931  0.00  0.00    +0.000 C 
ATOM     17  C   UNL     1       2.238   5.609  18.125  0.00  0.00    +0.000 C 
ATOM     18  C   UNL     1       3.707   5.386  17.745  0.00  0.00    +0.000 C 
ENDBRANCH   7  13
BRANCH   1  22
ATOM     19  C   UNL     1       3.776   2.324  10.196  0.00  0.00    +0.000 C 
ATOM     20  C   UNL     1       4.326   3.260  11.231  0.00  0.00    +0.000 C 
ATOM     21  O   UNL     1       3.791   4.346  11.373  0.00  0.00    +0.000 OA
ATOM     22  N   UNL     1       5.364   2.860  12.017  0.00  0.00    +0.000 N 
ATOM     23  H   UNL     1       5.703   1.892  11.883  0.00  0.00    +0.000 HD
ENDBRANCH   1  22
BRANCH   8  24
ATOM     24  O   UNL     1       5.801   4.638  19.229  0.00  0.00    +0.000 OA
ATOM     25  H   UNL     1       6.386   4.108  19.822  0.00  0.00    +0.000 HD
ENDBRANCH   8  24
TORSDOF 3
ENDMDL
MODEL 8
REMARK VINA RESULT:      -6.3      7.883     11.543
REMARK  Name = 
REMARK  6 active torsions:
REMARK  status: ('A' for Active; 'I' for Inactive)
REMARK    1  A    between atoms: C_1  and  C_2
REMARK    2  A    between atoms: N_4  and  C_5
REMARK    3  A    between atoms: C_11  and  N_12
REMARK    4  A    between atoms: C_18  and  O_19
REMARK    5  A    between atoms: C_20  and  C_21
REMARK    6  A    between atoms: C_20  and  C_22
REMARK                            x       y       z     vdW  Elec       q    Type
REMARK                         _______ _______ _______ _____ _____    ______ ____
ROOT
ATOM      1  C   UNL     1       6.726  15.547  20.126  0.00  0.00    +0.000 A 
ATOM      2  C   UNL     1       7.096  16.843  20.541  0.00  0.00    +0.000 A 
ATOM      3  C   UNL     1       8.278  17.423  20.085  0.00  0.00    +0.000 A 
ATOM      4  C   UNL     1       9.141  16.725  19.237  0.00  0.00    +0.000 A 
ATOM      5  C   UNL     1       8.799  15.417  18.808  0.00  0.00    +0.000 A 
ATOM      6  C   UNL     1       7.572  14.870  19.239  0.00  0.00    +0.000 A 
ATOM      7  C   UNL     1       9.750  14.611  17.909  0.00  0.00    +0.000 C 
ATOM      8  C   UNL     1      10.891  15.539  17.382  0.00  0.00    +0.000 C 
ATOM      9  C   UNL     1      11.402  16.657  18.366  0.00  0.00    +0.000 C 
ATOM     10  C   UNL     1      12.225  16.205  19.587  0.00  0.00    +0.000 C 
ATOM     11  C   UNL     1      12.279  17.664  17.589  0.00  0.00    +0.000 C 
ATOM     12  O   UNL     1      10.296  17.333  18.852  0.00  0.00    +0.000 OA
ENDROOT
BRANCH   7  13
ATOM     13  N   UNL     1      10.214  13.283  18.484  0.00  0.00    +0.000 NA
ATOM     14  C   UNL     1      10.329  13.252  19.972  0.00  0.00    +0.000 C 
ATOM     15  C   UNL     1      10.563  11.865  20.568  0.00  0.00    +0.000 C 
ATOM     16  C   UNL     1       9.482  10.911  20.097  0.00  0.00    +0.000 C 
ATOM     17  C   UNL     1       9.618  10.802  18.585  0.00  0.00    +0.000 C 
ATOM     18  C   UNL     1       9.372  12.171  17.938  0.00  0.00    +0.000 C 
ENDBRANCH   7  13
BRANCH   1  22
ATOM     19  C   UNL     1       3.165  14.177  20.633  0.00  0.00    +0.000 C 
ATOM     20  C   UNL     1       4.308  14.914  20.003  0.00  0.00    +0.000 C 
ATOM     21  O   UNL     1       4.089  15.581  19.006  0.00  0.00    +0.000 OA
ATOM     22  N   UNL     1       5.540  14.867  20.580  0.00  0.00    +0.000 N 
ATOM     23  H   UNL     1       5.618  14.344  21.469  0.00  0.00    +0.000 HD
ENDBRANCH   1  22
BRANCH   8  24
ATOM     24  O   UNL     1      11.889  14.817  16.699  0.00  0.00    +0.000 OA
ATOM     25  H   UNL     1      12.295  15.399  16.013  0.00  0.00    +0.000 HD
ENDBRANCH   8  24
TORSDOF 3
ENDMDL
MODEL 9
REMARK VINA RESULT:      -6.3      7.755     11.105
REMARK  Name = 
REMARK  6 active torsions:
REMARK  status: ('A' for Active; 'I' for Inactive)
REMARK    1  A    between atoms: C_1  and  C_2
REMARK    2  A    between atoms: N_4  and  C_5
REMARK    3  A    between atoms: C_11  and  N_12
REMARK    4  A    between atoms: C_18  and  O_19
REMARK    5  A    between atoms: C_20  and  C_21
REMARK    6  A    between atoms: C_20  and  C_22
REMARK                            x       y       z     vdW  Elec       q    Type
REMARK                         _______ _______ _______ _____ _____    ______ ____
ROOT
ATOM      1  C   UNL     1      -3.107  11.656  18.682  0.00  0.00    +0.000 A 
ATOM      2  C   UNL     1      -4.437  11.989  19.011  0.00  0.00    +0.000 A 
ATOM      3  C   UNL     1      -4.721  12.700  20.176  0.00  0.00    +0.000 A 
ATOM      4  C   UNL     1      -3.705  13.067  21.061  0.00  0.00    +0.000 A 
ATOM      5  C   UNL     1      -2.359  12.739  20.760  0.00  0.00    +0.000 A 
ATOM      6  C   UNL     1      -2.087  12.066  19.549  0.00  0.00    +0.000 A 
ATOM      7  C   UNL     1      -1.226  13.093  21.737  0.00  0.00    +0.000 C 
ATOM      8  C   UNL     1      -1.768  14.046  22.850  0.00  0.00    +0.000 C 
ATOM      9  C   UNL     1      -3.250  13.805  23.325  0.00  0.00    +0.000 C 
ATOM     10  C   UNL     1      -3.530  12.541  24.159  0.00  0.00    +0.000 C 
ATOM     11  C   UNL     1      -3.721  15.008  24.171  0.00  0.00    +0.000 C 
ATOM     12  O   UNL     1      -4.051  13.731  22.197  0.00  0.00    +0.000 OA
ENDROOT
BRANCH   7  13
ATOM     13  N   UNL     1      -0.412  11.913  22.240  0.00  0.00    +0.000 NA
ATOM     14  C   UNL     1      -1.204  10.864  22.949  0.00  0.00    +0.000 C 
ATOM     15  C   UNL     1      -0.439   9.575  23.246  0.00  0.00    +0.000 C 
ATOM     16  C   UNL     1       0.155   9.021  21.966  0.00  0.00    +0.000 C 
ATOM     17  C   UNL     1       1.152  10.052  21.458  0.00  0.00    +0.000 C 
ATOM     18  C   UNL     1       0.426  11.362  21.128  0.00  0.00    +0.000 C 
ENDBRANCH   7  13
BRANCH   1  22
ATOM     19  C   UNL     1      -2.872  10.013  15.209  0.00  0.00    +0.000 C 
ATOM     20  C   UNL     1      -3.365  10.904  16.309  0.00  0.00    +0.000 C 
ATOM     21  O   UNL     1      -4.355  11.586  16.104  0.00  0.00    +0.000 OA
ATOM     22  N   UNL     1      -2.736  10.894  17.517  0.00  0.00    +0.000 N 
ATOM     23  H   UNL     1      -1.955  10.226  17.629  0.00  0.00    +0.000 HD
ENDBRANCH   1  22
BRANCH   8  24
ATOM     24  O   UNL     1      -0.822  14.262  23.870  0.00  0.00    +0.000 OA
ATOM     25  H   UNL     1      -0.407  13.399  24.114  0.00  0.00    +0.000 HD
ENDBRANCH   8  24
TORSDOF 3
ENDMDL
