MODEL 1
REMARK VINA RESULT:      -7.9      0.000      0.000
REMARK  Name = 
REMARK  1 active torsions:
REMARK  status: ('A' for Active; 'I' for Inactive)
REMARK    1  A    between atoms: C_5  and  C_6
REMARK                            x       y       z     vdW  Elec       q    Type
REMARK                         _______ _______ _______ _____ _____    ______ ____
ROOT
ATOM      1  C   UNL     1       1.259   5.799  20.681  0.00  0.00    +0.000 A 
ATOM      2  C   UNL     1       2.183   6.502  19.917  0.00  0.00    +0.000 A 
ATOM      3  C   UNL     1       3.032   5.820  19.041  0.00  0.00    +0.000 A 
ATOM      4  C   UNL     1       2.980   4.412  18.909  0.00  0.00    +0.000 A 
ATOM      5  C   UNL     1       3.825   3.662  18.049  0.00  0.00    +0.000 A 
ATOM      6  C   UNL     1       3.669   2.276  18.017  0.00  0.00    +0.000 A 
ATOM      7  N   UNL     1       2.759   1.593  18.745  0.00  0.00    +0.000 NA
ATOM      8  C   UNL     1       1.966   2.327  19.556  0.00  0.00    +0.000 A 
ATOM      9  C   UNL     1       2.028   3.715  19.687  0.00  0.00    +0.000 A 
ATOM     10  C   UNL     1       1.178   4.413  20.565  0.00  0.00    +0.000 A 
ENDROOT
BRANCH   5  11
ATOM     11  C   UNL     1       4.867   4.281  17.211  0.00  0.00    +0.000 A 
ATOM     12  C   UNL     1       4.753   4.223  15.865  0.00  0.00    +0.000 A 
ATOM     13  C   UNL     1       5.798   4.798  15.031  0.00  0.00    +0.000 A 
ATOM     14  C   UNL     1       6.876   5.402  15.568  0.00  0.00    +0.000 A 
ATOM     15  C   UNL     1       7.002   5.495  16.980  0.00  0.00    +0.000 A 
ATOM     16  N   UNL     1       7.938   6.042  17.728  0.00  0.00    +0.000 NA
ATOM     17  C   UNL     1       7.539   5.830  19.021  0.00  0.00    +0.000 A 
ATOM     18  C   UNL     1       6.350   5.143  19.066  0.00  0.00    +0.000 A 
ATOM     19  N   UNL     1       5.991   4.926  17.755  0.00  0.00    +0.000 N 
ENDBRANCH   5  11
TORSDOF 1
ENDMDL
MODEL 2
REMARK VINA RESULT:      -7.9      0.907      2.131
REMARK  Name = 
REMARK  1 active torsions:
REMARK  status: ('A' for Active; 'I' for Inactive)
REMARK    1  A    between atoms: C_5  and  C_6
REMARK                            x       y       z     vdW  Elec       q    Type
REMARK                         _______ _______ _______ _____ _____    ______ ____
ROOT
ATOM      1  C   UNL     1       0.845   5.043  20.608  0.00  0.00    +0.000 A 
ATOM      2  C   UNL     1       1.880   5.937  20.360  0.00  0.00    +0.000 A 
ATOM      3  C   UNL     1       3.018   5.516  19.667  0.00  0.00    +0.000 A 
ATOM      4  C   UNL     1       3.152   4.185  19.204  0.00  0.00    +0.000 A 
ATOM      5  C   UNL     1       4.288   3.695  18.509  0.00  0.00    +0.000 A 
ATOM      6  C   UNL     1       4.290   2.358  18.110  0.00  0.00    +0.000 A 
ATOM      7  N   UNL     1       3.276   1.493  18.333  0.00  0.00    +0.000 NA
ATOM      8  C   UNL     1       2.206   1.981  18.997  0.00  0.00    +0.000 A 
ATOM      9  C   UNL     1       2.085   3.294  19.457  0.00  0.00    +0.000 A 
ATOM     10  C   UNL     1       0.943   3.728  20.156  0.00  0.00    +0.000 A 
ENDROOT
BRANCH   5  11
ATOM     11  C   UNL     1       5.466   4.529  18.211  0.00  0.00    +0.000 A 
ATOM     12  C   UNL     1       6.168   5.070  19.232  0.00  0.00    +0.000 A 
ATOM     13  C   UNL     1       7.308   5.927  18.943  0.00  0.00    +0.000 A 
ATOM     14  C   UNL     1       7.693   6.187  17.678  0.00  0.00    +0.000 A 
ATOM     15  C   UNL     1       6.982   5.607  16.592  0.00  0.00    +0.000 A 
ATOM     16  N   UNL     1       7.174   5.696  15.292  0.00  0.00    +0.000 NA
ATOM     17  C   UNL     1       6.186   4.934  14.728  0.00  0.00    +0.000 A 
ATOM     18  C   UNL     1       5.380   4.376  15.691  0.00  0.00    +0.000 A 
ATOM     19  N   UNL     1       5.887   4.799  16.897  0.00  0.00    +0.000 N 
ENDBRANCH   5  11
TORSDOF 1
ENDMDL
MODEL 3
REMARK VINA RESULT:      -7.8      1.460      2.505
REMARK  Name = 
REMARK  1 active torsions:
REMARK  status: ('A' for Active; 'I' for Inactive)
REMARK    1  A    between atoms: C_5  and  C_6
REMARK                            x       y       z     vdW  Elec       q    Type
REMARK                         _______ _______ _______ _____ _____    ______ ____
ROOT
ATOM      1  C   UNL     1       1.386   2.866  20.695  0.00  0.00    +0.000 A 
ATOM      2  C   UNL     1       2.356   2.328  19.858  0.00  0.00    +0.000 A 
ATOM      3  C   UNL     1       3.119   3.166  19.040  0.00  0.00    +0.000 A 
ATOM      4  C   UNL     1       2.929   4.568  19.037  0.00  0.00    +0.000 A 
ATOM      5  C   UNL     1       3.660   5.469  18.220  0.00  0.00    +0.000 A 
ATOM      6  C   UNL     1       3.370   6.830  18.316  0.00  0.00    +0.000 A 
ATOM      7  N   UNL     1       2.441   7.356  19.144  0.00  0.00    +0.000 NA
ATOM      8  C   UNL     1       1.757   6.481  19.912  0.00  0.00    +0.000 A 
ATOM      9  C   UNL     1       1.945   5.098  19.903  0.00  0.00    +0.000 A 
ATOM     10  C   UNL     1       1.183   4.244  20.722  0.00  0.00    +0.000 A 
ENDROOT
BRANCH   5  11
ATOM     11  C   UNL     1       4.693   5.026  17.266  0.00  0.00    +0.000 A 
ATOM     12  C   UNL     1       4.335   4.727  15.997  0.00  0.00    +0.000 A 
ATOM     13  C   UNL     1       5.343   4.251  15.062  0.00  0.00    +0.000 A 
ATOM     14  C   UNL     1       6.633   4.112  15.424  0.00  0.00    +0.000 A 
ATOM     15  C   UNL     1       7.033   4.445  16.747  0.00  0.00    +0.000 A 
ATOM     16  N   UNL     1       8.217   4.410  17.324  0.00  0.00    +0.000 NA
ATOM     17  C   UNL     1       8.006   4.838  18.608  0.00  0.00    +0.000 A 
ATOM     18  C   UNL     1       6.681   5.132  18.821  0.00  0.00    +0.000 A 
ATOM     19  N   UNL     1       6.045   4.888  17.626  0.00  0.00    +0.000 N 
ENDBRANCH   5  11
TORSDOF 1
ENDMDL
MODEL 4
REMARK VINA RESULT:      -7.8      1.396      5.585
REMARK  Name = 
REMARK  1 active torsions:
REMARK  status: ('A' for Active; 'I' for Inactive)
REMARK    1  A    between atoms: C_5  and  C_6
REMARK                            x       y       z     vdW  Elec       q    Type
REMARK                         _______ _______ _______ _____ _____    ______ ____
ROOT
ATOM      1  C   UNL     1       6.731   4.767  14.393  0.00  0.00    +0.000 A 
ATOM      2  C   UNL     1       5.461   4.218  14.522  0.00  0.00    +0.000 A 
ATOM      3  C   UNL     1       4.902   4.035  15.790  0.00  0.00    +0.000 A 
ATOM      4  C   UNL     1       5.604   4.395  16.965  0.00  0.00    +0.000 A 
ATOM      5  C   UNL     1       5.097   4.220  18.279  0.00  0.00    +0.000 A 
ATOM      6  C   UNL     1       5.896   4.617  19.352  0.00  0.00    +0.000 A 
ATOM      7  N   UNL     1       7.122   5.169  19.227  0.00  0.00    +0.000 NA
ATOM      8  C   UNL     1       7.585   5.326  17.968  0.00  0.00    +0.000 A 
ATOM      9  C   UNL     1       6.890   4.960  16.813  0.00  0.00    +0.000 A 
ATOM     10  C   UNL     1       7.442   5.140  15.531  0.00  0.00    +0.000 A 
ENDROOT
BRANCH   5  11
ATOM     11  C   UNL     1       3.779   3.621  18.556  0.00  0.00    +0.000 A 
ATOM     12  C   UNL     1       3.479   2.412  18.030  0.00  0.00    +0.000 A 
ATOM     13  C   UNL     1       2.165   1.834  18.267  0.00  0.00    +0.000 A 
ATOM     14  C   UNL     1       1.238   2.468  19.011  0.00  0.00    +0.000 A 
ATOM     15  C   UNL     1       1.543   3.729  19.593  0.00  0.00    +0.000 A 
ATOM     16  N   UNL     1       0.823   4.522  20.360  0.00  0.00    +0.000 NA
ATOM     17  C   UNL     1       1.624   5.601  20.618  0.00  0.00    +0.000 A 
ATOM     18  C   UNL     1       2.845   5.472  20.000  0.00  0.00    +0.000 A 
ATOM     19  N   UNL     1       2.806   4.265  19.341  0.00  0.00    +0.000 N 
ENDBRANCH   5  11
TORSDOF 1
ENDMDL
MODEL 5
REMARK VINA RESULT:      -7.7      1.121      1.385
REMARK  Name = 
REMARK  1 active torsions:
REMARK  status: ('A' for Active; 'I' for Inactive)
REMARK    1  A    between atoms: C_5  and  C_6
REMARK                            x       y       z     vdW  Elec       q    Type
REMARK                         _______ _______ _______ _____ _____    ______ ____
ROOT
ATOM      1  C   UNL     1       1.331   7.623  20.406  0.00  0.00    +0.000 A 
ATOM      2  C   UNL     1       2.209   7.795  19.342  0.00  0.00    +0.000 A 
ATOM      3  C   UNL     1       2.961   6.716  18.871  0.00  0.00    +0.000 A 
ATOM      4  C   UNL     1       2.855   5.431  19.456  0.00  0.00    +0.000 A 
ATOM      5  C   UNL     1       3.601   4.300  19.033  0.00  0.00    +0.000 A 
ATOM      6  C   UNL     1       3.400   3.091  19.699  0.00  0.00    +0.000 A 
ATOM      7  N   UNL     1       2.532   2.917  20.720  0.00  0.00    +0.000 NA
ATOM      8  C   UNL     1       1.833   4.006  21.106  0.00  0.00    +0.000 A 
ATOM      9  C   UNL     1       1.950   5.272  20.529  0.00  0.00    +0.000 A 
ATOM     10  C   UNL     1       1.198   6.367  20.995  0.00  0.00    +0.000 A 
ENDROOT
BRANCH   5  11
ATOM     11  C   UNL     1       4.588   4.356  17.940  0.00  0.00    +0.000 A 
ATOM     12  C   UNL     1       4.226   3.951  16.701  0.00  0.00    +0.000 A 
ATOM     13  C   UNL     1       5.208   3.967  15.627  0.00  0.00    +0.000 A 
ATOM     14  C   UNL     1       6.471   4.387  15.831  0.00  0.00    +0.000 A 
ATOM     15  C   UNL     1       6.864   4.839  17.120  0.00  0.00    +0.000 A 
ATOM     16  N   UNL     1       8.016   5.306  17.556  0.00  0.00    +0.000 NA
ATOM     17  C   UNL     1       7.817   5.583  18.882  0.00  0.00    +0.000 A 
ATOM     18  C   UNL     1       6.532   5.279  19.264  0.00  0.00    +0.000 A 
ATOM     19  N   UNL     1       5.907   4.804  18.134  0.00  0.00    +0.000 N 
ENDBRANCH   5  11
TORSDOF 1
ENDMDL
MODEL 6
REMARK VINA RESULT:      -7.6      1.116      5.676
REMARK  Name = 
REMARK  1 active torsions:
REMARK  status: ('A' for Active; 'I' for Inactive)
REMARK    1  A    between atoms: C_5  and  C_6
REMARK                            x       y       z     vdW  Elec       q    Type
REMARK                         _______ _______ _______ _____ _____    ______ ____
ROOT
ATOM      1  C   UNL     1       6.328   4.502  14.604  0.00  0.00    +0.000 A 
ATOM      2  C   UNL     1       4.982   4.477  14.952  0.00  0.00    +0.000 A 
ATOM      3  C   UNL     1       4.601   4.633  16.287  0.00  0.00    +0.000 A 
ATOM      4  C   UNL     1       5.559   4.817  17.313  0.00  0.00    +0.000 A 
ATOM      5  C   UNL     1       5.235   4.965  18.686  0.00  0.00    +0.000 A 
ATOM      6  C   UNL     1       6.281   5.139  19.594  0.00  0.00    +0.000 A 
ATOM      7  N   UNL     1       7.587   5.184  19.255  0.00  0.00    +0.000 NA
ATOM      8  C   UNL     1       7.872   5.040  17.943  0.00  0.00    +0.000 A 
ATOM      9  C   UNL     1       6.921   4.850  16.938  0.00  0.00    +0.000 A 
ATOM     10  C   UNL     1       7.294   4.693  15.590  0.00  0.00    +0.000 A 
ENDROOT
BRANCH   5  11
ATOM     11  C   UNL     1       3.852   4.924  19.192  0.00  0.00    +0.000 A 
ATOM     12  C   UNL     1       3.268   6.068  19.615  0.00  0.00    +0.000 A 
ATOM     13  C   UNL     1       1.916   6.027  20.152  0.00  0.00    +0.000 A 
ATOM     14  C   UNL     1       1.222   4.875  20.228  0.00  0.00    +0.000 A 
ATOM     15  C   UNL     1       1.809   3.666  19.765  0.00  0.00    +0.000 A 
ATOM     16  N   UNL     1       1.332   2.439  19.720  0.00  0.00    +0.000 NA
ATOM     17  C   UNL     1       2.337   1.681  19.181  0.00  0.00    +0.000 A 
ATOM     18  C   UNL     1       3.441   2.449  18.898  0.00  0.00    +0.000 A 
ATOM     19  N   UNL     1       3.109   3.732  19.266  0.00  0.00    +0.000 N 
ENDBRANCH   5  11
TORSDOF 1
ENDMDL
MODEL 7
REMARK VINA RESULT:      -7.6      1.673      2.472
REMARK  Name = 
REMARK  1 active torsions:
REMARK  status: ('A' for Active; 'I' for Inactive)
REMARK    1  A    between atoms: C_5  and  C_6
REMARK                            x       y       z     vdW  Elec       q    Type
REMARK                         _______ _______ _______ _____ _____    ______ ____
ROOT
ATOM      1  C   UNL     1       1.526   9.190  18.910  0.00  0.00    +0.000 A 
ATOM      2  C   UNL     1       2.399   8.865  17.877  0.00  0.00    +0.000 A 
ATOM      3  C   UNL     1       3.033   7.620  17.861  0.00  0.00    +0.000 A 
ATOM      4  C   UNL     1       2.811   6.665  18.883  0.00  0.00    +0.000 A 
ATOM      5  C   UNL     1       3.436   5.392  18.929  0.00  0.00    +0.000 A 
ATOM      6  C   UNL     1       3.129   4.546  19.996  0.00  0.00    +0.000 A 
ATOM      7  N   UNL     1       2.266   4.853  20.989  0.00  0.00    +0.000 NA
ATOM      8  C   UNL     1       1.684   6.070  20.924  0.00  0.00    +0.000 A 
ATOM      9  C   UNL     1       1.914   7.010  19.918  0.00  0.00    +0.000 A 
ATOM     10  C   UNL     1       1.281   8.267  19.923  0.00  0.00    +0.000 A 
ENDROOT
BRANCH   5  11
ATOM     11  C   UNL     1       4.404   4.937  17.916  0.00  0.00    +0.000 A 
ATOM     12  C   UNL     1       3.950   4.394  16.764  0.00  0.00    +0.000 A 
ATOM     13  C   UNL     1       4.902   3.907  15.777  0.00  0.00    +0.000 A 
ATOM     14  C   UNL     1       6.231   3.994  15.976  0.00  0.00    +0.000 A 
ATOM     15  C   UNL     1       6.729   4.584  17.169  0.00  0.00    +0.000 A 
ATOM     16  N   UNL     1       7.963   4.795  17.577  0.00  0.00    +0.000 NA
ATOM     17  C   UNL     1       7.843   5.393  18.803  0.00  0.00    +0.000 A 
ATOM     18  C   UNL     1       6.522   5.546  19.152  0.00  0.00    +0.000 A 
ATOM     19  N   UNL     1       5.795   5.033  18.103  0.00  0.00    +0.000 N 
ENDBRANCH   5  11
TORSDOF 1
ENDMDL
MODEL 8
REMARK VINA RESULT:      -7.5      1.776      2.618
REMARK  Name = 
REMARK  1 active torsions:
REMARK  status: ('A' for Active; 'I' for Inactive)
REMARK    1  A    between atoms: C_5  and  C_6
REMARK                            x       y       z     vdW  Elec       q    Type
REMARK                         _______ _______ _______ _____ _____    ______ ____
ROOT
ATOM      1  C   UNL     1       2.769   2.541  21.448  0.00  0.00    +0.000 A 
ATOM      2  C   UNL     1       3.720   2.221  20.486  0.00  0.00    +0.000 A 
ATOM      3  C   UNL     1       4.057   3.150  19.497  0.00  0.00    +0.000 A 
ATOM      4  C   UNL     1       3.446   4.426  19.443  0.00  0.00    +0.000 A 
ATOM      5  C   UNL     1       3.734   5.404  18.456  0.00  0.00    +0.000 A 
ATOM      6  C   UNL     1       3.057   6.622  18.519  0.00  0.00    +0.000 A 
ATOM      7  N   UNL     1       2.147   6.942  19.465  0.00  0.00    +0.000 NA
ATOM      8  C   UNL     1       1.889   5.996  20.393  0.00  0.00    +0.000 A 
ATOM      9  C   UNL     1       2.489   4.736  20.435  0.00  0.00    +0.000 A 
ATOM     10  C   UNL     1       2.159   3.794  21.426  0.00  0.00    +0.000 A 
ENDROOT
BRANCH   5  11
ATOM     11  C   UNL     1       4.697   5.179  17.363  0.00  0.00    +0.000 A 
ATOM     12  C   UNL     1       4.449   4.211  16.452  0.00  0.00    +0.000 A 
ATOM     13  C   UNL     1       5.416   3.959  15.394  0.00  0.00    +0.000 A 
ATOM     14  C   UNL     1       6.551   4.676  15.289  0.00  0.00    +0.000 A 
ATOM     15  C   UNL     1       6.817   5.715  16.222  0.00  0.00    +0.000 A 
ATOM     16  N   UNL     1       7.831   6.551  16.315  0.00  0.00    +0.000 NA
ATOM     17  C   UNL     1       7.559   7.330  17.407  0.00  0.00    +0.000 A 
ATOM     18  C   UNL     1       6.369   6.965  17.992  0.00  0.00    +0.000 A 
ATOM     19  N   UNL     1       5.880   5.928  17.232  0.00  0.00    +0.000 N 
ENDBRANCH   5  11
TORSDOF 1
ENDMDL
MODEL 9
REMARK VINA RESULT:      -7.3      1.442      1.936
REMARK  Name = 
REMARK  1 active torsions:
REMARK  status: ('A' for Active; 'I' for Inactive)
REMARK    1  A    between atoms: C_5  and  C_6
REMARK                            x       y       z     vdW  Elec       q    Type
REMARK                         _______ _______ _______ _____ _____    ______ ____
ROOT
ATOM      1  C   UNL     1       1.507   8.368  19.549  0.00  0.00    +0.000 A 
ATOM      2  C   UNL     1       2.279   8.403  18.393  0.00  0.00    +0.000 A 
ATOM      3  C   UNL     1       3.054   7.298  18.034  0.00  0.00    +0.000 A 
ATOM      4  C   UNL     1       3.080   6.125  18.826  0.00  0.00    +0.000 A 
ATOM      5  C   UNL     1       3.858   4.977  18.522  0.00  0.00    +0.000 A 
ATOM      6  C   UNL     1       3.791   3.888  19.391  0.00  0.00    +0.000 A 
ATOM      7  N   UNL     1       3.027   3.844  20.504  0.00  0.00    +0.000 NA
ATOM      8  C   UNL     1       2.296   4.947  20.773  0.00  0.00    +0.000 A 
ATOM      9  C   UNL     1       2.282   6.104  19.991  0.00  0.00    +0.000 A 
ATOM     10  C   UNL     1       1.504   7.223  20.343  0.00  0.00    +0.000 A 
ENDROOT
BRANCH   5  11
ATOM     11  C   UNL     1       4.742   4.897  17.346  0.00  0.00    +0.000 A 
ATOM     12  C   UNL     1       4.442   4.033  16.351  0.00  0.00    +0.000 A 
ATOM     13  C   UNL     1       5.333   3.921  15.206  0.00  0.00    +0.000 A 
ATOM     14  C   UNL     1       6.448   4.669  15.103  0.00  0.00    +0.000 A 
ATOM     15  C   UNL     1       6.768   5.602  16.128  0.00  0.00    +0.000 A 
ATOM     16  N   UNL     1       7.775   6.443  16.244  0.00  0.00    +0.000 NA
ATOM     17  C   UNL     1       7.572   7.089  17.434  0.00  0.00    +0.000 A 
ATOM     18  C   UNL     1       6.433   6.636  18.055  0.00  0.00    +0.000 A 
ATOM     19  N   UNL     1       5.903   5.681  17.219  0.00  0.00    +0.000 N 
ENDBRANCH   5  11
TORSDOF 1
ENDMDL
