MODEL 1
REMARK VINA RESULT:      -8.3      0.000      0.000
REMARK  Name = 
REMARK  5 active torsions:
REMARK  status: ('A' for Active; 'I' for Inactive)
REMARK    1  A    between atoms: C_1  and  N_2
REMARK    2  A    between atoms: C_3  and  C_4
REMARK    3  A    between atoms: C_3  and  C_27
REMARK    4  A    between atoms: C_4  and  N_5
REMARK    5  A    between atoms: C_32  and  N_33
REMARK                            x       y       z     vdW  Elec       q    Type
REMARK                         _______ _______ _______ _____ _____    ______ ____
ROOT
ATOM      1  N   UNL     1       5.157   4.210  17.618  0.00  0.00    +0.000 N 
ATOM      2  C   UNL     1       4.388   3.145  16.985  0.00  0.00    +0.000 C 
ATOM      3  C   UNL     1       2.878   3.353  17.076  0.00  0.00    +0.000 C 
ATOM      4  C   UNL     1       2.451   3.742  18.493  0.00  0.00    +0.000 C 
ATOM      5  C   UNL     1       3.310   4.904  19.046  0.00  0.00    +0.000 C 
ATOM      6  C   UNL     1       3.172   6.198  18.199  0.00  0.00    +0.000 C 
ATOM      7  C   UNL     1       1.807   6.852  18.349  0.00  0.00    +0.000 C 
ATOM      8  N   UNL     1       1.628   7.134  19.762  0.00  0.00    +0.000 N 
ATOM      9  C   UNL     1       1.359   8.431  20.135  0.00  0.00    +0.000 A 
ATOM     10  C   UNL     1       1.736   8.959  21.367  0.00  0.00    +0.000 A 
ATOM     11  N   UNL     1       1.538  10.250  21.744  0.00  0.00    +0.000 NA
ATOM     12  C   UNL     1       0.930  11.035  20.839  0.00  0.00    +0.000 A 
ATOM     13  C   UNL     1       0.688  12.370  21.137  0.00  0.00    +0.000 A 
ATOM     14  C   UNL     1       0.046  13.212  20.228  0.00  0.00    +0.000 A 
ATOM     15  C   UNL     1      -0.358  12.710  18.997  0.00  0.00    +0.000 A 
ATOM     16  C   UNL     1      -0.109  11.373  18.685  0.00  0.00    +0.000 A 
ATOM     17  C   UNL     1       0.528  10.526  19.585  0.00  0.00    +0.000 A 
ATOM     18  N   UNL     1       0.751   9.243  19.242  0.00  0.00    +0.000 NA
ATOM     19  C   UNL     1       1.637   5.999  20.671  0.00  0.00    +0.000 C 
ATOM     20  C   UNL     1       2.949   5.225  20.517  0.00  0.00    +0.000 C 
ATOM     21  C   UNL     1       4.784   4.490  18.936  0.00  0.00    +0.000 C 
ATOM     22  O   UNL     1       5.566   4.478  19.880  0.00  0.00    +0.000 OA
ENDROOT
BRANCH   1  23
ATOM     23  C   UNL     1       6.566   4.383  17.241  0.00  0.00    +0.000 C 
BRANCH  23  26
ATOM     24  C   UNL     1       7.014   7.381  17.214  0.00  0.00    +0.000 C 
ATOM     25  N   UNL     1       6.926   6.559  16.038  0.00  0.00    +0.000 NA
ATOM     26  C   UNL     1       6.744   5.279  15.992  0.00  0.00    +0.000 C 
BRANCH  26  27
ATOM     27  C   UNL     1       6.693   4.689  14.580  0.00  0.00    +0.000 A 
ATOM     28  C   UNL     1       5.665   3.825  14.163  0.00  0.00    +0.000 A 
ATOM     29  C   UNL     1       5.575   3.419  12.819  0.00  0.00    +0.000 A 
ATOM     30  C   UNL     1       6.505   3.853  11.881  0.00  0.00    +0.000 A 
ATOM     31  C   UNL     1       7.543   4.687  12.278  0.00  0.00    +0.000 A 
ATOM     32  C   UNL     1       7.625   5.139  13.603  0.00  0.00    +0.000 A 
BRANCH  32  33
ATOM     33  N   UNL     1       8.783   5.885  13.951  0.00  0.00    +0.000 N 
ATOM     34  H   UNL     1       8.689   6.872  13.741  0.00  0.00    +0.000 HD
ATOM     35  H   UNL     1       8.962   5.741  14.955  0.00  0.00    +0.000 HD
ENDBRANCH  32  33
ENDBRANCH  26  27
ENDBRANCH  23  26
ENDBRANCH   1  23
TORSDOF 4
ENDMDL
MODEL 2
REMARK VINA RESULT:      -8.0      5.480     11.791
REMARK  Name = 
REMARK  5 active torsions:
REMARK  status: ('A' for Active; 'I' for Inactive)
REMARK    1  A    between atoms: C_1  and  N_2
REMARK    2  A    between atoms: C_3  and  C_4
REMARK    3  A    between atoms: C_3  and  C_27
REMARK    4  A    between atoms: C_4  and  N_5
REMARK    5  A    between atoms: C_32  and  N_33
REMARK                            x       y       z     vdW  Elec       q    Type
REMARK                         _______ _______ _______ _____ _____    ______ ____
ROOT
ATOM      1  N   UNL     1      -5.452  13.922  21.206  0.00  0.00    +0.000 N 
ATOM      2  C   UNL     1      -5.234  15.355  21.043  0.00  0.00    +0.000 C 
ATOM      3  C   UNL     1      -3.767  15.723  20.824  0.00  0.00    +0.000 C 
ATOM      4  C   UNL     1      -2.857  15.012  21.828  0.00  0.00    +0.000 C 
ATOM      5  C   UNL     1      -3.152  13.495  21.888  0.00  0.00    +0.000 C 
ATOM      6  C   UNL     1      -2.905  12.789  20.528  0.00  0.00    +0.000 C 
ATOM      7  C   UNL     1      -1.428  12.704  20.174  0.00  0.00    +0.000 C 
ATOM      8  N   UNL     1      -0.776  11.990  21.258  0.00  0.00    +0.000 N 
ATOM      9  C   UNL     1      -0.054  10.860  20.946  0.00  0.00    +0.000 A 
ATOM     10  C   UNL     1       0.107   9.796  21.831  0.00  0.00    +0.000 A 
ATOM     11  N   UNL     1       0.763   8.644  21.536  0.00  0.00    +0.000 NA
ATOM     12  C   UNL     1       1.280   8.567  20.299  0.00  0.00    +0.000 A 
ATOM     13  C   UNL     1       1.966   7.424  19.908  0.00  0.00    +0.000 A 
ATOM     14  C   UNL     1       2.529   7.314  18.636  0.00  0.00    +0.000 A 
ATOM     15  C   UNL     1       2.400   8.364  17.737  0.00  0.00    +0.000 A 
ATOM     16  C   UNL     1       1.703   9.512  18.116  0.00  0.00    +0.000 A 
ATOM     17  C   UNL     1       1.140   9.632  19.382  0.00  0.00    +0.000 A 
ATOM     18  N   UNL     1       0.473  10.756  19.707  0.00  0.00    +0.000 NA
ATOM     19  C   UNL     1      -0.842  12.589  22.581  0.00  0.00    +0.000 C 
ATOM     20  C   UNL     1      -2.306  12.795  22.980  0.00  0.00    +0.000 C 
ATOM     21  C   UNL     1      -4.650  13.321  22.180  0.00  0.00    +0.000 C 
ATOM     22  O   UNL     1      -5.095  12.668  23.117  0.00  0.00    +0.000 OA
ENDROOT
BRANCH   1  23
ATOM     23  C   UNL     1      -6.799  13.384  20.984  0.00  0.00    +0.000 C 
BRANCH  23  26
ATOM     24  C   UNL     1      -6.896  14.193  18.063  0.00  0.00    +0.000 C 
ATOM     25  N   UNL     1      -6.916  12.835  18.535  0.00  0.00    +0.000 NA
ATOM     26  C   UNL     1      -6.869  12.434  19.763  0.00  0.00    +0.000 C 
BRANCH  26  27
ATOM     27  C   UNL     1      -6.909  10.914  19.944  0.00  0.00    +0.000 A 
ATOM     28  C   UNL     1      -7.810  10.285  20.823  0.00  0.00    +0.000 A 
ATOM     29  C   UNL     1      -7.914   8.883  20.854  0.00  0.00    +0.000 A 
ATOM     30  C   UNL     1      -7.122   8.092  20.029  0.00  0.00    +0.000 A 
ATOM     31  C   UNL     1      -6.209   8.693  19.172  0.00  0.00    +0.000 A 
ATOM     32  C   UNL     1      -6.121  10.090  19.093  0.00  0.00    +0.000 A 
BRANCH  32  33
ATOM     33  N   UNL     1      -5.078  10.618  18.286  0.00  0.00    +0.000 N 
ATOM     34  H   UNL     1      -5.419  11.017  17.419  0.00  0.00    +0.000 HD
ATOM     35  H   UNL     1      -4.576  11.326  18.840  0.00  0.00    +0.000 HD
ENDBRANCH  32  33
ENDBRANCH  26  27
ENDBRANCH  23  26
ENDBRANCH   1  23
TORSDOF 4
ENDMDL
MODEL 3
REMARK VINA RESULT:      -7.6      4.443      8.333
REMARK  Name = 
REMARK  5 active torsions:
REMARK  status: ('A' for Active; 'I' for Inactive)
REMARK    1  A    between atoms: C_1  and  N_2
REMARK    2  A    between atoms: C_3  and  C_4
REMARK    3  A    between atoms: C_3  and  C_27
REMARK    4  A    between atoms: C_4  and  N_5
REMARK    5  A    between atoms: C_32  and  N_33
REMARK                            x       y       z     vdW  Elec       q    Type
REMARK                         _______ _______ _______ _____ _____    ______ ____
ROOT
ATOM      1  N   UNL     1      -0.629  10.623  19.832  0.00  0.00    +0.000 N 
ATOM      2  C   UNL     1      -1.548  10.721  18.703  0.00  0.00    +0.000 C 
ATOM      3  C   UNL     1      -1.160  11.805  17.699  0.00  0.00    +0.000 C 
ATOM      4  C   UNL     1      -0.812  13.119  18.402  0.00  0.00    +0.000 C 
ATOM      5  C   UNL     1       0.195  12.899  19.555  0.00  0.00    +0.000 C 
ATOM      6  C   UNL     1       1.548  12.322  19.056  0.00  0.00    +0.000 C 
ATOM      7  C   UNL     1       2.355  13.335  18.258  0.00  0.00    +0.000 C 
ATOM      8  N   UNL     1       2.565  14.482  19.123  0.00  0.00    +0.000 N 
ATOM      9  C   UNL     1       3.860  14.890  19.356  0.00  0.00    +0.000 A 
ATOM     10  C   UNL     1       4.256  15.518  20.534  0.00  0.00    +0.000 A 
ATOM     11  N   UNL     1       5.534  15.881  20.819  0.00  0.00    +0.000 NA
ATOM     12  C   UNL     1       6.445  15.601  19.873  0.00  0.00    +0.000 A 
ATOM     13  C   UNL     1       7.778  15.933  20.079  0.00  0.00    +0.000 A 
ATOM     14  C   UNL     1       8.750  15.671  19.113  0.00  0.00    +0.000 A 
ATOM     15  C   UNL     1       8.384  15.062  17.920  0.00  0.00    +0.000 A 
ATOM     16  C   UNL     1       7.049  14.713  17.709  0.00  0.00    +0.000 A 
ATOM     17  C   UNL     1       6.073  14.972  18.665  0.00  0.00    +0.000 A 
ATOM     18  N   UNL     1       4.796  14.617  18.421  0.00  0.00    +0.000 NA
ATOM     19  C   UNL     1       1.382  15.185  19.590  0.00  0.00    +0.000 C 
ATOM     20  C   UNL     1       0.463  14.211  20.332  0.00  0.00    +0.000 C 
ATOM     21  C   UNL     1      -0.391  11.833  20.491  0.00  0.00    +0.000 C 
ATOM     22  O   UNL     1      -0.561  11.995  21.694  0.00  0.00    +0.000 OA
ENDROOT
BRANCH   1  23
ATOM     23  C   UNL     1      -0.609   9.385  20.620  0.00  0.00    +0.000 C 
BRANCH  23  26
ATOM     24  C   UNL     1       0.948   9.389  23.221  0.00  0.00    +0.000 C 
ATOM     25  N   UNL     1       1.445   8.875  21.974  0.00  0.00    +0.000 NA
ATOM     26  C   UNL     1       0.824   8.841  20.840  0.00  0.00    +0.000 C 
BRANCH  26  27
ATOM     27  C   UNL     1       1.625   8.229  19.687  0.00  0.00    +0.000 A 
ATOM     28  C   UNL     1       1.888   8.933  18.499  0.00  0.00    +0.000 A 
ATOM     29  C   UNL     1       2.747   8.391  17.525  0.00  0.00    +0.000 A 
ATOM     30  C   UNL     1       3.341   7.149  17.712  0.00  0.00    +0.000 A 
ATOM     31  C   UNL     1       3.075   6.427  18.868  0.00  0.00    +0.000 A 
ATOM     32  C   UNL     1       2.258   6.967  19.871  0.00  0.00    +0.000 A 
BRANCH  32  33
ATOM     33  N   UNL     1       1.938   6.114  20.961  0.00  0.00    +0.000 N 
ATOM     34  H   UNL     1       2.254   5.162  20.818  0.00  0.00    +0.000 HD
ATOM     35  H   UNL     1       2.359   6.515  21.812  0.00  0.00    +0.000 HD
ENDBRANCH  32  33
ENDBRANCH  26  27
ENDBRANCH  23  26
ENDBRANCH   1  23
TORSDOF 4
ENDMDL
MODEL 4
REMARK VINA RESULT:      -7.5      7.429      9.613
REMARK  Name = 
REMARK  5 active torsions:
REMARK  status: ('A' for Active; 'I' for Inactive)
REMARK    1  A    between atoms: C_1  and  N_2
REMARK    2  A    between atoms: C_3  and  C_4
REMARK    3  A    between atoms: C_3  and  C_27
REMARK    4  A    between atoms: C_4  and  N_5
REMARK    5  A    between atoms: C_32  and  N_33
REMARK                            x       y       z     vdW  Elec       q    Type
REMARK                         _______ _______ _______ _____ _____    ______ ____
ROOT
ATOM      1  N   UNL     1       7.562  16.081  20.422  0.00  0.00    +0.000 N 
ATOM      2  C   UNL     1       8.027  16.172  21.802  0.00  0.00    +0.000 C 
ATOM      3  C   UNL     1       6.964  15.777  22.825  0.00  0.00    +0.000 C 
ATOM      4  C   UNL     1       5.620  16.443  22.521  0.00  0.00    +0.000 C 
ATOM      5  C   UNL     1       5.212  16.250  21.041  0.00  0.00    +0.000 C 
ATOM      6  C   UNL     1       5.031  14.754  20.667  0.00  0.00    +0.000 C 
ATOM      7  C   UNL     1       3.799  14.137  21.309  0.00  0.00    +0.000 C 
ATOM      8  N   UNL     1       2.658  14.924  20.875  0.00  0.00    +0.000 N 
ATOM      9  C   UNL     1       1.624  14.271  20.243  0.00  0.00    +0.000 A 
ATOM     10  C   UNL     1       0.809  14.883  19.293  0.00  0.00    +0.000 A 
ATOM     11  N   UNL     1      -0.182  14.254  18.609  0.00  0.00    +0.000 NA
ATOM     12  C   UNL     1      -0.358  12.954  18.902  0.00  0.00    +0.000 A 
ATOM     13  C   UNL     1      -1.347  12.229  18.250  0.00  0.00    +0.000 A 
ATOM     14  C   UNL     1      -1.569  10.882  18.538  0.00  0.00    +0.000 A 
ATOM     15  C   UNL     1      -0.785  10.247  19.493  0.00  0.00    +0.000 A 
ATOM     16  C   UNL     1       0.219  10.965  20.145  0.00  0.00    +0.000 A 
ATOM     17  C   UNL     1       0.446  12.308  19.866  0.00  0.00    +0.000 A 
ATOM     18  N   UNL     1       1.427  12.963  20.517  0.00  0.00    +0.000 NA
ATOM     19  C   UNL     1       2.645  16.330  21.242  0.00  0.00    +0.000 C 
ATOM     20  C   UNL     1       3.907  17.013  20.708  0.00  0.00    +0.000 C 
ATOM     21  C   UNL     1       6.367  16.760  20.167  0.00  0.00    +0.000 C 
ATOM     22  O   UNL     1       6.242  17.611  19.294  0.00  0.00    +0.000 OA
ENDROOT
BRANCH   1  23
ATOM     23  C   UNL     1       8.558  15.997  19.347  0.00  0.00    +0.000 C 
BRANCH  23  26
ATOM     24  C   UNL     1       6.595  14.666  17.458  0.00  0.00    +0.000 C 
ATOM     25  N   UNL     1       7.798  14.051  17.951  0.00  0.00    +0.000 NA
ATOM     26  C   UNL     1       8.672  14.573  18.749  0.00  0.00    +0.000 C 
BRANCH  26  27
ATOM     27  C   UNL     1       9.853  13.661  19.093  0.00  0.00    +0.000 A 
ATOM     28  C   UNL     1      10.035  13.123  20.380  0.00  0.00    +0.000 A 
ATOM     29  C   UNL     1      11.049  12.177  20.619  0.00  0.00    +0.000 A 
ATOM     30  C   UNL     1      11.894  11.766  19.595  0.00  0.00    +0.000 A 
ATOM     31  C   UNL     1      11.745  12.304  18.324  0.00  0.00    +0.000 A 
ATOM     32  C   UNL     1      10.714  13.214  18.053  0.00  0.00    +0.000 A 
BRANCH  32  33
ATOM     33  N   UNL     1      10.711  13.808  16.763  0.00  0.00    +0.000 N 
ATOM     34  H   UNL     1      11.597  13.704  16.283  0.00  0.00    +0.000 HD
ATOM     35  H   UNL     1       9.949  13.378  16.218  0.00  0.00    +0.000 HD
ENDBRANCH  32  33
ENDBRANCH  26  27
ENDBRANCH  23  26
ENDBRANCH   1  23
TORSDOF 4
ENDMDL
MODEL 5
REMARK VINA RESULT:      -7.4      6.839      9.729
REMARK  Name = 
REMARK  5 active torsions:
REMARK  status: ('A' for Active; 'I' for Inactive)
REMARK    1  A    between atoms: C_1  and  N_2
REMARK    2  A    between atoms: C_3  and  C_4
REMARK    3  A    between atoms: C_3  and  C_27
REMARK    4  A    between atoms: C_4  and  N_5
REMARK    5  A    between atoms: C_32  and  N_33
REMARK                            x       y       z     vdW  Elec       q    Type
REMARK                         _______ _______ _______ _____ _____    ______ ____
ROOT
ATOM      1  N   UNL     1       7.998  16.187  20.023  0.00  0.00    +0.000 N 
ATOM      2  C   UNL     1       8.449  16.603  21.346  0.00  0.00    +0.000 C 
ATOM      3  C   UNL     1       7.395  16.411  22.434  0.00  0.00    +0.000 C 
ATOM      4  C   UNL     1       6.030  16.942  21.989  0.00  0.00    +0.000 C 
ATOM      5  C   UNL     1       5.639  16.406  20.592  0.00  0.00    +0.000 C 
ATOM      6  C   UNL     1       5.514  14.859  20.565  0.00  0.00    +0.000 C 
ATOM      7  C   UNL     1       4.299  14.358  21.332  0.00  0.00    +0.000 C 
ATOM      8  N   UNL     1       3.134  14.985  20.733  0.00  0.00    +0.000 N 
ATOM      9  C   UNL     1       2.128  14.170  20.266  0.00  0.00    +0.000 A 
ATOM     10  C   UNL     1       1.299  14.523  19.204  0.00  0.00    +0.000 A 
ATOM     11  N   UNL     1       0.335  13.720  18.682  0.00  0.00    +0.000 NA
ATOM     12  C   UNL     1       0.203  12.515  19.260  0.00  0.00    +0.000 A 
ATOM     13  C   UNL     1      -0.755  11.626  18.790  0.00  0.00    +0.000 A 
ATOM     14  C   UNL     1      -0.931  10.371  19.375  0.00  0.00    +0.000 A 
ATOM     15  C   UNL     1      -0.132   9.997  20.447  0.00  0.00    +0.000 A 
ATOM     16  C   UNL     1       0.842  10.879  20.919  0.00  0.00    +0.000 A 
ATOM     17  C   UNL     1       1.023  12.132  20.344  0.00  0.00    +0.000 A 
ATOM     18  N   UNL     1       1.976  12.952  20.828  0.00  0.00    +0.000 NA
ATOM     19  C   UNL     1       3.069  16.437  20.773  0.00  0.00    +0.000 C 
ATOM     20  C   UNL     1       4.310  17.027  20.097  0.00  0.00    +0.000 C 
ATOM     21  C   UNL     1       6.781  16.747  19.624  0.00  0.00    +0.000 C 
ATOM     22  O   UNL     1       6.632  17.374  18.581  0.00  0.00    +0.000 OA
ENDROOT
BRANCH   1  23
ATOM     23  C   UNL     1       9.003  15.898  18.993  0.00  0.00    +0.000 C 
BRANCH  23  26
ATOM     24  C   UNL     1      11.817  16.381  20.012  0.00  0.00    +0.000 C 
ATOM     25  N   UNL     1      11.216  15.084  19.860  0.00  0.00    +0.000 NA
ATOM     26  C   UNL     1      10.022  14.821  19.439  0.00  0.00    +0.000 C 
BRANCH  26  27
ATOM     27  C   UNL     1       9.673  13.331  19.387  0.00  0.00    +0.000 A 
ATOM     28  C   UNL     1       9.509  12.640  18.173  0.00  0.00    +0.000 A 
ATOM     29  C   UNL     1       9.331  11.244  18.165  0.00  0.00    +0.000 A 
ATOM     30  C   UNL     1       9.303  10.524  19.354  0.00  0.00    +0.000 A 
ATOM     31  C   UNL     1       9.439  11.192  20.565  0.00  0.00    +0.000 A 
ATOM     32  C   UNL     1       9.662  12.575  20.593  0.00  0.00    +0.000 A 
BRANCH  32  33
ATOM     33  N   UNL     1       9.665  13.195  21.871  0.00  0.00    +0.000 N 
ATOM     34  H   UNL     1       8.767  13.133  22.337  0.00  0.00    +0.000 HD
ATOM     35  H   UNL     1      10.402  12.749  22.437  0.00  0.00    +0.000 HD
ENDBRANCH  32  33
ENDBRANCH  26  27
ENDBRANCH  23  26
ENDBRANCH   1  23
TORSDOF 4
ENDMDL
MODEL 6
REMARK VINA RESULT:      -7.4      6.432     11.003
REMARK  Name = 
REMARK  5 active torsions:
REMARK  status: ('A' for Active; 'I' for Inactive)
REMARK    1  A    between atoms: C_1  and  N_2
REMARK    2  A    between atoms: C_3  and  C_4
REMARK    3  A    between atoms: C_3  and  C_27
REMARK    4  A    between atoms: C_4  and  N_5
REMARK    5  A    between atoms: C_32  and  N_33
REMARK                            x       y       z     vdW  Elec       q    Type
REMARK                         _______ _______ _______ _____ _____    ______ ____
ROOT
ATOM      1  N   UNL     1       1.807  15.186  20.969  0.00  0.00    +0.000 N 
ATOM      2  C   UNL     1       1.300  16.264  20.127  0.00  0.00    +0.000 C 
ATOM      3  C   UNL     1       2.382  16.926  19.275  0.00  0.00    +0.000 C 
ATOM      4  C   UNL     1       3.628  17.247  20.104  0.00  0.00    +0.000 C 
ATOM      5  C   UNL     1       4.095  16.023  20.926  0.00  0.00    +0.000 C 
ATOM      6  C   UNL     1       4.491  14.821  20.025  0.00  0.00    +0.000 C 
ATOM      7  C   UNL     1       5.781  15.068  19.257  0.00  0.00    +0.000 C 
ATOM      8  N   UNL     1       6.812  15.342  20.243  0.00  0.00    +0.000 N 
ATOM      9  C   UNL     1       7.942  14.556  20.233  0.00  0.00    +0.000 A 
ATOM     10  C   UNL     1       8.688  14.287  21.379  0.00  0.00    +0.000 A 
ATOM     11  N   UNL     1       9.773  13.471  21.416  0.00  0.00    +0.000 NA
ATOM     12  C   UNL     1      10.121  12.909  20.246  0.00  0.00    +0.000 A 
ATOM     13  C   UNL     1      11.217  12.058  20.189  0.00  0.00    +0.000 A 
ATOM     14  C   UNL     1      11.616  11.467  18.989  0.00  0.00    +0.000 A 
ATOM     15  C   UNL     1      10.904  11.730  17.826  0.00  0.00    +0.000 A 
ATOM     16  C   UNL     1       9.795  12.575  17.876  0.00  0.00    +0.000 A 
ATOM     17  C   UNL     1       9.390  13.169  19.066  0.00  0.00    +0.000 A 
ATOM     18  N   UNL     1       8.312  13.976  19.071  0.00  0.00    +0.000 NA
ATOM     19  C   UNL     1       6.621  16.502  21.097  0.00  0.00    +0.000 C 
ATOM     20  C   UNL     1       5.290  16.379  21.844  0.00  0.00    +0.000 C 
ATOM     21  C   UNL     1       2.903  15.538  21.763  0.00  0.00    +0.000 C 
ATOM     22  O   UNL     1       2.931  15.403  22.981  0.00  0.00    +0.000 OA
ENDROOT
BRANCH   1  23
ATOM     23  C   UNL     1       0.860  14.193  21.490  0.00  0.00    +0.000 C 
BRANCH  23  26
ATOM     24  C   UNL     1      -2.049  14.653  20.772  0.00  0.00    +0.000 C 
ATOM     25  N   UNL     1      -1.184  13.715  20.110  0.00  0.00    +0.000 NA
ATOM     26  C   UNL     1       0.062  13.484  20.369  0.00  0.00    +0.000 C 
BRANCH  26  27
ATOM     27  C   UNL     1       0.715  12.418  19.485  0.00  0.00    +0.000 A 
ATOM     28  C   UNL     1       1.754  12.720  18.587  0.00  0.00    +0.000 A 
ATOM     29  C   UNL     1       2.423  11.691  17.899  0.00  0.00    +0.000 A 
ATOM     30  C   UNL     1       2.064  10.361  18.084  0.00  0.00    +0.000 A 
ATOM     31  C   UNL     1       1.024  10.044  18.948  0.00  0.00    +0.000 A 
ATOM     32  C   UNL     1       0.374  11.049  19.677  0.00  0.00    +0.000 A 
BRANCH  32  33
ATOM     33  N   UNL     1      -0.756  10.653  20.441  0.00  0.00    +0.000 N 
ATOM     34  H   UNL     1      -1.572  10.474  19.867  0.00  0.00    +0.000 HD
ATOM     35  H   UNL     1      -0.497   9.814  20.979  0.00  0.00    +0.000 HD
ENDBRANCH  32  33
ENDBRANCH  26  27
ENDBRANCH  23  26
ENDBRANCH   1  23
TORSDOF 4
ENDMDL
MODEL 7
REMARK VINA RESULT:      -7.3      6.570     10.853
REMARK  Name = 
REMARK  5 active torsions:
REMARK  status: ('A' for Active; 'I' for Inactive)
REMARK    1  A    between atoms: C_1  and  N_2
REMARK    2  A    between atoms: C_3  and  C_4
REMARK    3  A    between atoms: C_3  and  C_27
REMARK    4  A    between atoms: C_4  and  N_5
REMARK    5  A    between atoms: C_32  and  N_33
REMARK                            x       y       z     vdW  Elec       q    Type
REMARK                         _______ _______ _______ _____ _____    ______ ____
ROOT
ATOM      1  N   UNL     1       0.218  14.303  21.063  0.00  0.00    +0.000 N 
ATOM      2  C   UNL     1      -0.743  14.529  19.989  0.00  0.00    +0.000 C 
ATOM      3  C   UNL     1      -0.089  14.907  18.661  0.00  0.00    +0.000 C 
ATOM      4  C   UNL     1       0.978  15.989  18.851  0.00  0.00    +0.000 C 
ATOM      5  C   UNL     1       1.961  15.625  19.989  0.00  0.00    +0.000 C 
ATOM      6  C   UNL     1       2.742  14.315  19.699  0.00  0.00    +0.000 C 
ATOM      7  C   UNL     1       3.761  14.478  18.581  0.00  0.00    +0.000 C 
ATOM      8  N   UNL     1       4.661  15.543  18.984  0.00  0.00    +0.000 N 
ATOM      9  C   UNL     1       6.009  15.268  19.035  0.00  0.00    +0.000 A 
ATOM     10  C   UNL     1       6.882  15.910  19.909  0.00  0.00    +0.000 A 
ATOM     11  N   UNL     1       8.205  15.623  20.026  0.00  0.00    +0.000 NA
ATOM     12  C   UNL     1       8.663  14.649  19.221  0.00  0.00    +0.000 A 
ATOM     13  C   UNL     1      10.003  14.286  19.272  0.00  0.00    +0.000 A 
ATOM     14  C   UNL     1      10.517  13.290  18.442  0.00  0.00    +0.000 A 
ATOM     15  C   UNL     1       9.676  12.642  17.546  0.00  0.00    +0.000 A 
ATOM     16  C   UNL     1       8.326  12.993  17.495  0.00  0.00    +0.000 A 
ATOM     17  C   UNL     1       7.805  13.985  18.318  0.00  0.00    +0.000 A 
ATOM     18  N   UNL     1       6.495  14.291  18.238  0.00  0.00    +0.000 NA
ATOM     19  C   UNL     1       4.079  16.858  19.197  0.00  0.00    +0.000 C 
ATOM     20  C   UNL     1       2.972  16.767  20.251  0.00  0.00    +0.000 C 
ATOM     21  C   UNL     1       1.132  15.344  21.251  0.00  0.00    +0.000 C 
ATOM     22  O   UNL     1       1.302  15.914  22.323  0.00  0.00    +0.000 OA
ENDROOT
BRANCH   1  23
ATOM     23  C   UNL     1      -0.203  13.527  22.235  0.00  0.00    +0.000 C 
BRANCH  23  26
ATOM     24  C   UNL     1      -3.198  13.141  22.508  0.00  0.00    +0.000 C 
ATOM     25  N   UNL     1      -2.291  12.148  21.999  0.00  0.00    +0.000 NA
ATOM     26  C   UNL     1      -1.011  12.262  21.854  0.00  0.00    +0.000 C 
BRANCH  26  27
ATOM     27  C   UNL     1      -0.317  11.021  21.284  0.00  0.00    +0.000 A 
ATOM     28  C   UNL     1       0.204  10.985  19.978  0.00  0.00    +0.000 A 
ATOM     29  C   UNL     1       0.959   9.881  19.541  0.00  0.00    +0.000 A 
ATOM     30  C   UNL     1       1.195   8.802  20.386  0.00  0.00    +0.000 A 
ATOM     31  C   UNL     1       0.668   8.808  21.671  0.00  0.00    +0.000 A 
ATOM     32  C   UNL     1      -0.049   9.917  22.141  0.00  0.00    +0.000 A 
BRANCH  32  33
ATOM     33  N   UNL     1      -0.656   9.789  23.418  0.00  0.00    +0.000 N 
ATOM     34  H   UNL     1      -1.310  10.537  23.617  0.00  0.00    +0.000 HD
ATOM     35  H   UNL     1      -1.127   8.874  23.455  0.00  0.00    +0.000 HD
ENDBRANCH  32  33
ENDBRANCH  26  27
ENDBRANCH  23  26
ENDBRANCH   1  23
TORSDOF 4
ENDMDL
MODEL 8
REMARK VINA RESULT:      -7.3      5.847     10.429
REMARK  Name = 
REMARK  5 active torsions:
REMARK  status: ('A' for Active; 'I' for Inactive)
REMARK    1  A    between atoms: C_1  and  N_2
REMARK    2  A    between atoms: C_3  and  C_4
REMARK    3  A    between atoms: C_3  and  C_27
REMARK    4  A    between atoms: C_4  and  N_5
REMARK    5  A    between atoms: C_32  and  N_33
REMARK                            x       y       z     vdW  Elec       q    Type
REMARK                         _______ _______ _______ _____ _____    ______ ____
ROOT
ATOM      1  N   UNL     1       0.902  14.033  20.721  0.00  0.00    +0.000 N 
ATOM      2  C   UNL     1       0.098  14.741  19.732  0.00  0.00    +0.000 C 
ATOM      3  C   UNL     1       0.934  15.481  18.689  0.00  0.00    +0.000 C 
ATOM      4  C   UNL     1       2.060  16.285  19.344  0.00  0.00    +0.000 C 
ATOM      5  C   UNL     1       2.867  15.423  20.343  0.00  0.00    +0.000 C 
ATOM      6  C   UNL     1       3.560  14.215  19.658  0.00  0.00    +0.000 C 
ATOM      7  C   UNL     1       4.714  14.636  18.760  0.00  0.00    +0.000 C 
ATOM      8  N   UNL     1       5.650  15.370  19.594  0.00  0.00    +0.000 N 
ATOM      9  C   UNL     1       6.954  14.930  19.646  0.00  0.00    +0.000 A 
ATOM     10  C   UNL     1       7.769  15.108  20.760  0.00  0.00    +0.000 A 
ATOM     11  N   UNL     1       9.039  14.637  20.867  0.00  0.00    +0.000 NA
ATOM     12  C   UNL     1       9.503  13.963  19.801  0.00  0.00    +0.000 A 
ATOM     13  C   UNL     1      10.791  13.443  19.821  0.00  0.00    +0.000 A 
ATOM     14  C   UNL     1      11.311  12.750  18.727  0.00  0.00    +0.000 A 
ATOM     15  C   UNL     1      10.529  12.571  17.594  0.00  0.00    +0.000 A 
ATOM     16  C   UNL     1       9.230  13.081  17.569  0.00  0.00    +0.000 A 
ATOM     17  C   UNL     1       8.703  13.774  18.653  0.00  0.00    +0.000 A 
ATOM     18  N   UNL     1       7.443  14.247  18.588  0.00  0.00    +0.000 NA
ATOM     19  C   UNL     1       5.163  16.585  20.226  0.00  0.00    +0.000 C 
ATOM     20  C   UNL     1       3.936  16.264  21.083  0.00  0.00    +0.000 C 
ATOM     21  C   UNL     1       1.875  14.818  21.347  0.00  0.00    +0.000 C 
ATOM     22  O   UNL     1       1.966  14.944  22.563  0.00  0.00    +0.000 OA
ENDROOT
BRANCH   1  23
ATOM     23  C   UNL     1       0.280  12.949  21.491  0.00  0.00    +0.000 C 
BRANCH  23  26
ATOM     24  C   UNL     1      -2.710  12.701  21.049  0.00  0.00    +0.000 C 
ATOM     25  N   UNL     1      -1.722  11.849  20.445  0.00  0.00    +0.000 NA
ATOM     26  C   UNL     1      -0.439  11.914  20.592  0.00  0.00    +0.000 C 
BRANCH  26  27
ATOM     27  C   UNL     1       0.351  10.857  19.814  0.00  0.00    +0.000 A 
ATOM     28  C   UNL     1       1.024  11.155  18.615  0.00  0.00    +0.000 A 
ATOM     29  C   UNL     1       1.855  10.196  18.007  0.00  0.00    +0.000 A 
ATOM     30  C   UNL     1       2.017   8.935  18.571  0.00  0.00    +0.000 A 
ATOM     31  C   UNL     1       1.340   8.614  19.741  0.00  0.00    +0.000 A 
ATOM     32  C   UNL     1       0.543   9.569  20.387  0.00  0.00    +0.000 A 
BRANCH  32  33
ATOM     33  N   UNL     1      -0.209   9.121  21.505  0.00  0.00    +0.000 N 
ATOM     34  H   UNL     1      -0.113   9.730  22.310  0.00  0.00    +0.000 HD
ATOM     35  H   UNL     1      -1.196   9.051  21.217  0.00  0.00    +0.000 HD
ENDBRANCH  32  33
ENDBRANCH  26  27
ENDBRANCH  23  26
ENDBRANCH   1  23
TORSDOF 4
ENDMDL
MODEL 9
REMARK VINA RESULT:      -7.3      6.338      9.266
REMARK  Name = 
REMARK  5 active torsions:
REMARK  status: ('A' for Active; 'I' for Inactive)
REMARK    1  A    between atoms: C_1  and  N_2
REMARK    2  A    between atoms: C_3  and  C_4
REMARK    3  A    between atoms: C_3  and  C_27
REMARK    4  A    between atoms: C_4  and  N_5
REMARK    5  A    between atoms: C_32  and  N_33
REMARK                            x       y       z     vdW  Elec       q    Type
REMARK                         _______ _______ _______ _____ _____    ______ ____
ROOT
ATOM      1  N   UNL     1       6.709  16.182  19.973  0.00  0.00    +0.000 N 
ATOM      2  C   UNL     1       6.355  17.549  20.340  0.00  0.00    +0.000 C 
ATOM      3  C   UNL     1       4.866  17.731  20.630  0.00  0.00    +0.000 C 
ATOM      4  C   UNL     1       4.001  17.077  19.550  0.00  0.00    +0.000 C 
ATOM      5  C   UNL     1       4.444  15.622  19.271  0.00  0.00    +0.000 C 
ATOM      6  C   UNL     1       4.308  14.712  20.521  0.00  0.00    +0.000 C 
ATOM      7  C   UNL     1       2.857  14.428  20.882  0.00  0.00    +0.000 C 
ATOM      8  N   UNL     1       2.247  13.809  19.718  0.00  0.00    +0.000 N 
ATOM      9  C   UNL     1       1.650  12.579  19.877  0.00  0.00    +0.000 A 
ATOM     10  C   UNL     1       1.569  11.638  18.854  0.00  0.00    +0.000 A 
ATOM     11  N   UNL     1       1.039  10.395  18.992  0.00  0.00    +0.000 NA
ATOM     12  C   UNL     1       0.568  10.094  20.214  0.00  0.00    +0.000 A 
ATOM     13  C   UNL     1       0.011   8.844  20.449  0.00  0.00    +0.000 A 
ATOM     14  C   UNL     1      -0.501   8.501  21.701  0.00  0.00    +0.000 A 
ATOM     15  C   UNL     1      -0.451   9.424  22.738  0.00  0.00    +0.000 A 
ATOM     16  C   UNL     1       0.118  10.678  22.514  0.00  0.00    +0.000 A 
ATOM     17  C   UNL     1       0.629  11.029  21.270  0.00  0.00    +0.000 A 
ATOM     18  N   UNL     1       1.172  12.250  21.097  0.00  0.00    +0.000 NA
ATOM     19  C   UNL     1       2.215  14.590  18.492  0.00  0.00    +0.000 C 
ATOM     20  C   UNL     1       3.639  14.998  18.104  0.00  0.00    +0.000 C 
ATOM     21  C   UNL     1       5.942  15.644  18.935  0.00  0.00    +0.000 C 
ATOM     22  O   UNL     1       6.422  15.176  17.908  0.00  0.00    +0.000 OA
ENDROOT
BRANCH   1  23
ATOM     23  C   UNL     1       8.109  15.759  20.096  0.00  0.00    +0.000 C 
BRANCH  23  26
ATOM     24  C   UNL     1       7.458  15.052  22.972  0.00  0.00    +0.000 C 
ATOM     25  N   UNL     1       7.969  14.124  21.999  0.00  0.00    +0.000 NA
ATOM     26  C   UNL     1       8.256  14.368  20.762  0.00  0.00    +0.000 C 
BRANCH  26  27
ATOM     27  C   UNL     1       8.786  13.166  19.976  0.00  0.00    +0.000 A 
ATOM     28  C   UNL     1       8.778  13.124  18.571  0.00  0.00    +0.000 A 
ATOM     29  C   UNL     1       9.404  12.067  17.885  0.00  0.00    +0.000 A 
ATOM     30  C   UNL     1      10.029  11.039  18.581  0.00  0.00    +0.000 A 
ATOM     31  C   UNL     1      10.026  11.049  19.970  0.00  0.00    +0.000 A 
ATOM     32  C   UNL     1       9.448  12.116  20.673  0.00  0.00    +0.000 A 
BRANCH  32  33
ATOM     33  N   UNL     1       9.378  11.986  22.085  0.00  0.00    +0.000 N 
ATOM     34  H   UNL     1       9.907  12.702  22.570  0.00  0.00    +0.000 HD
ATOM     35  H   UNL     1       8.385  12.018  22.358  0.00  0.00    +0.000 HD
ENDBRANCH  32  33
ENDBRANCH  26  27
ENDBRANCH  23  26
ENDBRANCH   1  23
TORSDOF 4
ENDMDL
