MODEL 1
REMARK VINA RESULT:      -5.8      0.000      0.000
REMARK  Name = 
REMARK  7 active torsions:
REMARK  status: ('A' for Active; 'I' for Inactive)
REMARK    1  A    between atoms: N_1  and  CA_2
REMARK    2  A    between atoms: CA_2  and  C_3
REMARK    3  A    between atoms: CA_2  and  C_12
REMARK    4  A    between atoms: C_3  and  C_4
REMARK    5  A    between atoms: C_6  and  C_7
REMARK    6  A    between atoms: C_7  and  O_9
REMARK    7  A    between atoms: C_12  and  OXT_14
REMARK                            x       y       z     vdW  Elec       q    Type
REMARK                         _______ _______ _______ _____ _____    ______ ____
ROOT
ATOM      1  C   UNL     1       4.075   4.574  17.115  0.00  0.00    +0.000 C 
ENDROOT
BRANCH   1   2
ATOM      2  C   UNL     1       3.025   3.502  17.439  0.00  0.00    +0.000 C 
ATOM      3  C   UNL     1       2.158   3.862  18.633  0.00  0.00    +0.000 C 
ATOM      4  C   UNL     1       2.604   2.814  19.562  0.00  0.00    +0.000 C 
ATOM      5  N   UNL     1       3.448   1.937  19.115  0.00  0.00    +0.000 NA
ATOM      6  O   UNL     1       3.685   2.262  17.763  0.00  0.00    +0.000 OA
BRANCH   4   7
ATOM      7  C   UNL     1       2.077   2.748  20.969  0.00  0.00    +0.000 C 
ATOM      8  O   UNL     1       2.792   2.512  21.921  0.00  0.00    +0.000 OA
BRANCH   7   9
ATOM      9  O   UNL     1       0.755   2.987  21.008  0.00  0.00    +0.000 OA
ATOM     10  H   UNL     1       0.586   3.950  20.879  0.00  0.00    +0.000 HD
ENDBRANCH   7   9
ENDBRANCH   4   7
ENDBRANCH   1   2
BRANCH   1  11
ATOM     11  CA  UNL     1       5.516   4.044  17.144  0.00  0.00    +0.000 C 
BRANCH  11  12
ATOM     12  N   UNL     1       6.063   3.868  18.519  0.00  0.00    +0.000 NA
ATOM     13  H1  UNL     1       6.078   4.790  18.973  0.00  0.00    +0.000 HD
ATOM     14  H2  UNL     1       7.063   3.644  18.439  0.00  0.00    +0.000 HD
ENDBRANCH  11  12
BRANCH  11  15
ATOM     15  C   UNL     1       6.467   4.987  16.383  0.00  0.00    +0.000 C 
ATOM     16  O   UNL     1       6.135   5.976  15.750  0.00  0.00    +0.000 OA
BRANCH  15  17
ATOM     17  OXT UNL     1       7.754   4.556  16.481  0.00  0.00    +0.000 OA
ATOM     18  HXT UNL     1       7.744   3.601  16.219  0.00  0.00    +0.000 HD
ENDBRANCH  15  17
ENDBRANCH  11  15
ENDBRANCH   1  11
TORSDOF 7
ENDMDL
MODEL 2
REMARK VINA RESULT:      -5.7      2.002      2.372
REMARK  Name = 
REMARK  7 active torsions:
REMARK  status: ('A' for Active; 'I' for Inactive)
REMARK    1  A    between atoms: N_1  and  CA_2
REMARK    2  A    between atoms: CA_2  and  C_3
REMARK    3  A    between atoms: CA_2  and  C_12
REMARK    4  A    between atoms: C_3  and  C_4
REMARK    5  A    between atoms: C_6  and  C_7
REMARK    6  A    between atoms: C_7  and  O_9
REMARK    7  A    between atoms: C_12  and  OXT_14
REMARK                            x       y       z     vdW  Elec       q    Type
REMARK                         _______ _______ _______ _____ _____    ______ ____
ROOT
ATOM      1  C   UNL     1       5.135   5.062  19.165  0.00  0.00    +0.000 C 
ENDROOT
BRANCH   1   2
ATOM      2  C   UNL     1       3.668   5.512  19.168  0.00  0.00    +0.000 C 
ATOM      3  C   UNL     1       2.787   4.657  20.062  0.00  0.00    +0.000 C 
ATOM      4  C   UNL     1       1.944   4.042  19.027  0.00  0.00    +0.000 C 
ATOM      5  N   UNL     1       2.121   4.428  17.802  0.00  0.00    +0.000 NA
ATOM      6  O   UNL     1       3.129   5.414  17.835  0.00  0.00    +0.000 OA
BRANCH   4   7
ATOM      7  C   UNL     1       0.896   3.024  19.384  0.00  0.00    +0.000 C 
ATOM      8  O   UNL     1       0.376   2.306  18.554  0.00  0.00    +0.000 OA
BRANCH   7   9
ATOM      9  O   UNL     1       0.641   3.025  20.703  0.00  0.00    +0.000 OA
ATOM     10  H   UNL     1       1.111   3.778  21.133  0.00  0.00    +0.000 HD
ENDBRANCH   7   9
ENDBRANCH   4   7
ENDBRANCH   1   2
BRANCH   1  11
ATOM     11  CA  UNL     1       5.671   4.740  17.761  0.00  0.00    +0.000 C 
BRANCH  11  12
ATOM     12  N   UNL     1       5.168   3.451  17.208  0.00  0.00    +0.000 NA
ATOM     13  H1  UNL     1       5.978   2.916  16.870  0.00  0.00    +0.000 HD
ATOM     14  H2  UNL     1       4.658   3.653  16.339  0.00  0.00    +0.000 HD
ENDBRANCH  11  12
BRANCH  11  15
ATOM     15  C   UNL     1       7.210   4.679  17.757  0.00  0.00    +0.000 C 
ATOM     16  O   UNL     1       7.911   4.426  16.790  0.00  0.00    +0.000 OA
BRANCH  15  17
ATOM     17  OXT UNL     1       7.706   4.917  19.001  0.00  0.00    +0.000 OA
ATOM     18  HXT UNL     1       8.606   4.503  19.020  0.00  0.00    +0.000 HD
ENDBRANCH  15  17
ENDBRANCH  11  15
ENDBRANCH   1  11
TORSDOF 7
ENDMDL
MODEL 3
REMARK VINA RESULT:      -5.7      1.918      5.478
REMARK  Name = 
REMARK  7 active torsions:
REMARK  status: ('A' for Active; 'I' for Inactive)
REMARK    1  A    between atoms: N_1  and  CA_2
REMARK    2  A    between atoms: CA_2  and  C_3
REMARK    3  A    between atoms: CA_2  and  C_12
REMARK    4  A    between atoms: C_3  and  C_4
REMARK    5  A    between atoms: C_6  and  C_7
REMARK    6  A    between atoms: C_7  and  O_9
REMARK    7  A    between atoms: C_12  and  OXT_14
REMARK                            x       y       z     vdW  Elec       q    Type
REMARK                         _______ _______ _______ _____ _____    ______ ____
ROOT
ATOM      1  C   UNL     1       2.890   4.439  18.720  0.00  0.00    +0.000 C 
ENDROOT
BRANCH   1   2
ATOM      2  C   UNL     1       4.049   5.444  18.692  0.00  0.00    +0.000 C 
ATOM      3  C   UNL     1       4.855   5.385  17.406  0.00  0.00    +0.000 C 
ATOM      4  C   UNL     1       6.124   4.889  17.956  0.00  0.00    +0.000 C 
ATOM      5  N   UNL     1       6.204   4.743  19.241  0.00  0.00    +0.000 NA
ATOM      6  O   UNL     1       4.963   5.159  19.769  0.00  0.00    +0.000 OA
BRANCH   4   7
ATOM      7  C   UNL     1       7.294   4.589  17.059  0.00  0.00    +0.000 C 
ATOM      8  O   UNL     1       7.285   4.840  15.871  0.00  0.00    +0.000 OA
BRANCH   7   9
ATOM      9  O   UNL     1       8.306   4.032  17.745  0.00  0.00    +0.000 OA
ATOM     10  H   UNL     1       8.040   3.137  18.065  0.00  0.00    +0.000 HD
ENDBRANCH   7   9
ENDBRANCH   4   7
ENDBRANCH   1   2
BRANCH   1  11
ATOM     11  CA  UNL     1       2.257   4.278  20.110  0.00  0.00    +0.000 C 
BRANCH  11  12
ATOM     12  N   UNL     1       2.388   5.486  20.973  0.00  0.00    +0.000 NA
ATOM     13  H1  UNL     1       3.180   5.334  21.610  0.00  0.00    +0.000 HD
ATOM     14  H2  UNL     1       1.587   5.508  21.616  0.00  0.00    +0.000 HD
ENDBRANCH  11  12
BRANCH  11  15
ATOM     15  C   UNL     1       2.886   3.094  20.871  0.00  0.00    +0.000 C 
ATOM     16  O   UNL     1       2.599   2.741  22.003  0.00  0.00    +0.000 OA
BRANCH  15  17
ATOM     17  OXT UNL     1       3.846   2.492  20.118  0.00  0.00    +0.000 OA
ATOM     18  HXT UNL     1       4.494   2.106  20.760  0.00  0.00    +0.000 HD
ENDBRANCH  15  17
ENDBRANCH  11  15
ENDBRANCH   1  11
TORSDOF 7
ENDMDL
MODEL 4
REMARK VINA RESULT:      -5.6      1.222      1.316
REMARK  Name = 
REMARK  7 active torsions:
REMARK  status: ('A' for Active; 'I' for Inactive)
REMARK    1  A    between atoms: N_1  and  CA_2
REMARK    2  A    between atoms: CA_2  and  C_3
REMARK    3  A    between atoms: CA_2  and  C_12
REMARK    4  A    between atoms: C_3  and  C_4
REMARK    5  A    between atoms: C_6  and  C_7
REMARK    6  A    between atoms: C_7  and  O_9
REMARK    7  A    between atoms: C_12  and  OXT_14
REMARK                            x       y       z     vdW  Elec       q    Type
REMARK                         _______ _______ _______ _____ _____    ______ ____
ROOT
ATOM      1  C   UNL     1       4.850   5.687  17.598  0.00  0.00    +0.000 C 
ENDROOT
BRANCH   1   2
ATOM      2  C   UNL     1       3.372   5.273  17.567  0.00  0.00    +0.000 C 
ATOM      3  C   UNL     1       2.670   5.477  18.898  0.00  0.00    +0.000 C 
ATOM      4  C   UNL     1       2.410   4.070  19.235  0.00  0.00    +0.000 C 
ATOM      5  N   UNL     1       2.741   3.173  18.361  0.00  0.00    +0.000 NA
ATOM      6  O   UNL     1       3.270   3.869  17.253  0.00  0.00    +0.000 OA
BRANCH   4   7
ATOM      7  C   UNL     1       1.757   3.693  20.537  0.00  0.00    +0.000 C 
ATOM      8  O   UNL     1       2.398   3.371  21.517  0.00  0.00    +0.000 OA
BRANCH   7   9
ATOM      9  O   UNL     1       0.418   3.770  20.454  0.00  0.00    +0.000 OA
ATOM     10  H   UNL     1       0.084   3.089  19.823  0.00  0.00    +0.000 HD
ENDBRANCH   7   9
ENDBRANCH   4   7
ENDBRANCH   1   2
BRANCH   1  11
ATOM     11  CA  UNL     1       5.818   4.495  17.547  0.00  0.00    +0.000 C 
BRANCH  11  12
ATOM     12  N   UNL     1       5.975   3.794  18.852  0.00  0.00    +0.000 NA
ATOM     13  H1  UNL     1       5.311   3.010  18.872  0.00  0.00    +0.000 HD
ATOM     14  H2  UNL     1       5.613   4.409  19.591  0.00  0.00    +0.000 HD
ENDBRANCH  11  12
BRANCH  11  15
ATOM     15  C   UNL     1       7.219   4.940  17.087  0.00  0.00    +0.000 C 
ATOM     16  O   UNL     1       7.463   5.888  16.359  0.00  0.00    +0.000 OA
BRANCH  15  17
ATOM     17  OXT UNL     1       8.176   4.108  17.580  0.00  0.00    +0.000 OA
ATOM     18  HXT UNL     1       8.833   3.984  16.849  0.00  0.00    +0.000 HD
ENDBRANCH  15  17
ENDBRANCH  11  15
ENDBRANCH   1  11
TORSDOF 7
ENDMDL
MODEL 5
REMARK VINA RESULT:      -5.6      1.240      1.269
REMARK  Name = 
REMARK  7 active torsions:
REMARK  status: ('A' for Active; 'I' for Inactive)
REMARK    1  A    between atoms: N_1  and  CA_2
REMARK    2  A    between atoms: CA_2  and  C_3
REMARK    3  A    between atoms: CA_2  and  C_12
REMARK    4  A    between atoms: C_3  and  C_4
REMARK    5  A    between atoms: C_6  and  C_7
REMARK    6  A    between atoms: C_7  and  O_9
REMARK    7  A    between atoms: C_12  and  OXT_14
REMARK                            x       y       z     vdW  Elec       q    Type
REMARK                         _______ _______ _______ _____ _____    ______ ____
ROOT
ATOM      1  C   UNL     1       4.339   4.816  17.451  0.00  0.00    +0.000 C 
ENDROOT
BRANCH   1   2
ATOM      2  C   UNL     1       3.730   3.467  17.857  0.00  0.00    +0.000 C 
ATOM      3  C   UNL     1       2.369   3.605  18.516  0.00  0.00    +0.000 C 
ATOM      4  C   UNL     1       2.722   3.142  19.865  0.00  0.00    +0.000 C 
ATOM      5  N   UNL     1       3.933   2.720  20.056  0.00  0.00    +0.000 NA
ATOM      6  O   UNL     1       4.591   2.815  18.811  0.00  0.00    +0.000 OA
BRANCH   4   7
ATOM      7  C   UNL     1       1.706   3.134  20.974  0.00  0.00    +0.000 C 
ATOM      8  O   UNL     1       2.017   3.013  22.141  0.00  0.00    +0.000 OA
BRANCH   7   9
ATOM      9  O   UNL     1       0.458   3.283  20.496  0.00  0.00    +0.000 OA
ATOM     10  H   UNL     1       0.414   4.086  19.925  0.00  0.00    +0.000 HD
ENDBRANCH   7   9
ENDBRANCH   4   7
ENDBRANCH   1   2
BRANCH   1  11
ATOM     11  CA  UNL     1       5.568   4.680  16.539  0.00  0.00    +0.000 C 
BRANCH  11  12
ATOM     12  N   UNL     1       5.779   3.300  16.019  0.00  0.00    +0.000 NA
ATOM     13  H1  UNL     1       6.673   3.286  15.512  0.00  0.00    +0.000 HD
ATOM     14  H2  UNL     1       5.097   3.133  15.268  0.00  0.00    +0.000 HD
ENDBRANCH  11  12
BRANCH  11  15
ATOM     15  C   UNL     1       6.853   5.099  17.277  0.00  0.00    +0.000 C 
ATOM     16  O   UNL     1       7.554   6.059  17.000  0.00  0.00    +0.000 OA
BRANCH  15  17
ATOM     17  OXT UNL     1       7.137   4.230  18.284  0.00  0.00    +0.000 OA
ATOM     18  HXT UNL     1       6.385   4.298  18.925  0.00  0.00    +0.000 HD
ENDBRANCH  15  17
ENDBRANCH  11  15
ENDBRANCH   1  11
TORSDOF 7
ENDMDL
MODEL 6
REMARK VINA RESULT:      -5.6      1.510      5.513
REMARK  Name = 
REMARK  7 active torsions:
REMARK  status: ('A' for Active; 'I' for Inactive)
REMARK    1  A    between atoms: N_1  and  CA_2
REMARK    2  A    between atoms: CA_2  and  C_3
REMARK    3  A    between atoms: CA_2  and  C_12
REMARK    4  A    between atoms: C_3  and  C_4
REMARK    5  A    between atoms: C_6  and  C_7
REMARK    6  A    between atoms: C_7  and  O_9
REMARK    7  A    between atoms: C_12  and  OXT_14
REMARK                            x       y       z     vdW  Elec       q    Type
REMARK                         _______ _______ _______ _____ _____    ______ ____
ROOT
ATOM      1  C   UNL     1       2.611   4.562  18.345  0.00  0.00    +0.000 C 
ENDROOT
BRANCH   1   2
ATOM      2  C   UNL     1       3.869   5.352  18.732  0.00  0.00    +0.000 C 
ATOM      3  C   UNL     1       4.710   5.752  17.533  0.00  0.00    +0.000 C 
ATOM      4  C   UNL     1       5.900   4.935  17.807  0.00  0.00    +0.000 C 
ATOM      5  N   UNL     1       5.917   4.253  18.910  0.00  0.00    +0.000 NA
ATOM      6  O   UNL     1       4.708   4.541  19.577  0.00  0.00    +0.000 OA
BRANCH   4   7
ATOM      7  C   UNL     1       7.064   4.914  16.855  0.00  0.00    +0.000 C 
ATOM      8  O   UNL     1       8.045   4.223  17.041  0.00  0.00    +0.000 OA
BRANCH   7   9
ATOM      9  O   UNL     1       6.857   5.735  15.811  0.00  0.00    +0.000 OA
ATOM     10  H   UNL     1       6.290   6.492  16.090  0.00  0.00    +0.000 HD
ENDBRANCH   7   9
ENDBRANCH   4   7
ENDBRANCH   1   2
BRANCH   1  11
ATOM     11  CA  UNL     1       2.472   3.231  19.100  0.00  0.00    +0.000 C 
BRANCH  11  12
ATOM     12  N   UNL     1       3.212   2.103  18.468  0.00  0.00    +0.000 NA
ATOM     13  H1  UNL     1       3.988   1.846  19.091  0.00  0.00    +0.000 HD
ATOM     14  H2  UNL     1       3.703   2.466  17.642  0.00  0.00    +0.000 HD
ENDBRANCH  11  12
BRANCH  11  15
ATOM     15  C   UNL     1       0.994   2.812  19.213  0.00  0.00    +0.000 C 
ATOM     16  O   UNL     1       0.381   2.134  18.403  0.00  0.00    +0.000 OA
BRANCH  15  17
ATOM     17  OXT UNL     1       0.431   3.325  20.340  0.00  0.00    +0.000 OA
ATOM     18  HXT UNL     1       0.079   2.550  20.847  0.00  0.00    +0.000 HD
ENDBRANCH  15  17
ENDBRANCH  11  15
ENDBRANCH   1  11
TORSDOF 7
ENDMDL
MODEL 7
REMARK VINA RESULT:      -5.6      2.312      2.749
REMARK  Name = 
REMARK  7 active torsions:
REMARK  status: ('A' for Active; 'I' for Inactive)
REMARK    1  A    between atoms: N_1  and  CA_2
REMARK    2  A    between atoms: CA_2  and  C_3
REMARK    3  A    between atoms: CA_2  and  C_12
REMARK    4  A    between atoms: C_3  and  C_4
REMARK    5  A    between atoms: C_6  and  C_7
REMARK    6  A    between atoms: C_7  and  O_9
REMARK    7  A    between atoms: C_12  and  OXT_14
REMARK                            x       y       z     vdW  Elec       q    Type
REMARK                         _______ _______ _______ _____ _____    ______ ____
ROOT
ATOM      1  C   UNL     1       5.743   5.321  19.003  0.00  0.00    +0.000 C 
ENDROOT
BRANCH   1   2
ATOM      2  C   UNL     1       5.237   3.963  18.497  0.00  0.00    +0.000 C 
ATOM      3  C   UNL     1       3.960   4.071  17.684  0.00  0.00    +0.000 C 
ATOM      4  C   UNL     1       3.049   3.366  18.596  0.00  0.00    +0.000 C 
ATOM      5  N   UNL     1       3.560   2.844  19.668  0.00  0.00    +0.000 NA
ATOM      6  O   UNL     1       4.945   3.108  19.620  0.00  0.00    +0.000 OA
BRANCH   4   7
ATOM      7  C   UNL     1       1.584   3.233  18.282  0.00  0.00    +0.000 C 
ATOM      8  O   UNL     1       0.876   2.406  18.818  0.00  0.00    +0.000 OA
BRANCH   7   9
ATOM      9  O   UNL     1       1.197   4.134  17.363  0.00  0.00    +0.000 OA
ATOM     10  H   UNL     1       1.712   4.005  16.532  0.00  0.00    +0.000 HD
ENDBRANCH   7   9
ENDBRANCH   4   7
ENDBRANCH   1   2
BRANCH   1  11
ATOM     11  CA  UNL     1       7.270   5.467  18.931  0.00  0.00    +0.000 C 
BRANCH  11  12
ATOM     12  N   UNL     1       7.929   5.534  20.266  0.00  0.00    +0.000 NA
ATOM     13  H1  UNL     1       7.339   5.025  20.935  0.00  0.00    +0.000 HD
ATOM     14  H2  UNL     1       7.866   6.502  20.606  0.00  0.00    +0.000 HD
ENDBRANCH  11  12
BRANCH  11  15
ATOM     15  C   UNL     1       7.669   6.736  18.153  0.00  0.00    +0.000 C 
ATOM     16  O   UNL     1       7.296   7.029  17.028  0.00  0.00    +0.000 OA
BRANCH  15  17
ATOM     17  OXT UNL     1       8.533   7.496  18.878  0.00  0.00    +0.000 OA
ATOM     18  HXT UNL     1       8.895   8.172  18.251  0.00  0.00    +0.000 HD
ENDBRANCH  15  17
ENDBRANCH  11  15
ENDBRANCH   1  11
TORSDOF 7
ENDMDL
MODEL 8
REMARK VINA RESULT:      -5.6      1.904      2.343
REMARK  Name = 
REMARK  7 active torsions:
REMARK  status: ('A' for Active; 'I' for Inactive)
REMARK    1  A    between atoms: N_1  and  CA_2
REMARK    2  A    between atoms: CA_2  and  C_3
REMARK    3  A    between atoms: CA_2  and  C_12
REMARK    4  A    between atoms: C_3  and  C_4
REMARK    5  A    between atoms: C_6  and  C_7
REMARK    6  A    between atoms: C_7  and  O_9
REMARK    7  A    between atoms: C_12  and  OXT_14
REMARK                            x       y       z     vdW  Elec       q    Type
REMARK                         _______ _______ _______ _____ _____    ______ ____
ROOT
ATOM      1  C   UNL     1       5.468   5.001  18.742  0.00  0.00    +0.000 C 
ENDROOT
BRANCH   1   2
ATOM      2  C   UNL     1       3.991   5.169  19.125  0.00  0.00    +0.000 C 
ATOM      3  C   UNL     1       3.381   3.906  19.707  0.00  0.00    +0.000 C 
ATOM      4  C   UNL     1       2.421   3.603  18.636  0.00  0.00    +0.000 C 
ATOM      5  N   UNL     1       2.326   4.451  17.659  0.00  0.00    +0.000 NA
ATOM      6  O   UNL     1       3.223   5.500  17.952  0.00  0.00    +0.000 OA
BRANCH   4   7
ATOM      7  C   UNL     1       1.563   2.369  18.689  0.00  0.00    +0.000 C 
ATOM      8  O   UNL     1       0.355   2.421  18.795  0.00  0.00    +0.000 OA
BRANCH   7   9
ATOM      9  O   UNL     1       2.305   1.253  18.600  0.00  0.00    +0.000 OA
ATOM     10  H   UNL     1       2.270   0.903  17.678  0.00  0.00    +0.000 HD
ENDBRANCH   7   9
ENDBRANCH   4   7
ENDBRANCH   1   2
BRANCH   1  11
ATOM     11  CA  UNL     1       5.693   4.860  17.229  0.00  0.00    +0.000 C 
BRANCH  11  12
ATOM     12  N   UNL     1       5.386   3.501  16.701  0.00  0.00    +0.000 NA
ATOM     13  H1  UNL     1       4.422   3.268  16.971  0.00  0.00    +0.000 HD
ATOM     14  H2  UNL     1       5.937   2.818  17.236  0.00  0.00    +0.000 HD
ENDBRANCH  11  12
BRANCH  11  15
ATOM     15  C   UNL     1       7.151   5.185  16.854  0.00  0.00    +0.000 C 
ATOM     16  O   UNL     1       7.536   6.205  16.304  0.00  0.00    +0.000 OA
BRANCH  15  17
ATOM     17  OXT UNL     1       7.977   4.159  17.192  0.00  0.00    +0.000 OA
ATOM     18  HXT UNL     1       8.857   4.570  17.388  0.00  0.00    +0.000 HD
ENDBRANCH  15  17
ENDBRANCH  11  15
ENDBRANCH   1  11
TORSDOF 7
ENDMDL
MODEL 9
REMARK VINA RESULT:      -5.6      2.074      5.124
REMARK  Name = 
REMARK  7 active torsions:
REMARK  status: ('A' for Active; 'I' for Inactive)
REMARK    1  A    between atoms: N_1  and  CA_2
REMARK    2  A    between atoms: CA_2  and  C_3
REMARK    3  A    between atoms: CA_2  and  C_12
REMARK    4  A    between atoms: C_3  and  C_4
REMARK    5  A    between atoms: C_6  and  C_7
REMARK    6  A    between atoms: C_7  and  O_9
REMARK    7  A    between atoms: C_12  and  OXT_14
REMARK                            x       y       z     vdW  Elec       q    Type
REMARK                         _______ _______ _______ _____ _____    ______ ____
ROOT
ATOM      1  C   UNL     1       3.119   4.572  18.984  0.00  0.00    +0.000 C 
ENDROOT
BRANCH   1   2
ATOM      2  C   UNL     1       4.196   5.662  18.907  0.00  0.00    +0.000 C 
ATOM      3  C   UNL     1       4.900   5.707  17.562  0.00  0.00    +0.000 C 
ATOM      4  C   UNL     1       6.241   5.289  17.994  0.00  0.00    +0.000 C 
ATOM      5  N   UNL     1       6.433   5.107  19.263  0.00  0.00    +0.000 NA
ATOM      6  O   UNL     1       5.210   5.410  19.899  0.00  0.00    +0.000 OA
BRANCH   4   7
ATOM      7  C   UNL     1       7.355   5.108  16.999  0.00  0.00    +0.000 C 
ATOM      8  O   UNL     1       8.147   4.191  17.069  0.00  0.00    +0.000 OA
BRANCH   7   9
ATOM      9  O   UNL     1       7.336   6.070  16.061  0.00  0.00    +0.000 OA
ATOM     10  H   UNL     1       6.541   5.960  15.487  0.00  0.00    +0.000 HD
ENDBRANCH   7   9
ENDBRANCH   4   7
ENDBRANCH   1   2
BRANCH   1  11
ATOM     11  CA  UNL     1       3.334   3.431  17.979  0.00  0.00    +0.000 C 
BRANCH  11  12
ATOM     12  N   UNL     1       2.090   3.009  17.275  0.00  0.00    +0.000 NA
ATOM     13  H1  UNL     1       1.575   3.857  17.008  0.00  0.00    +0.000 HD
ATOM     14  H2  UNL     1       1.463   2.578  17.965  0.00  0.00    +0.000 HD
ENDBRANCH  11  12
BRANCH  11  15
ATOM     15  C   UNL     1       3.920   2.186  18.672  0.00  0.00    +0.000 C 
ATOM     16  O   UNL     1       3.573   1.032  18.478  0.00  0.00    +0.000 OA
BRANCH  15  17
ATOM     17  OXT UNL     1       4.875   2.540  19.573  0.00  0.00    +0.000 OA
ATOM     18  HXT UNL     1       4.541   2.245  20.457  0.00  0.00    +0.000 HD
ENDBRANCH  15  17
ENDBRANCH  11  15
ENDBRANCH   1  11
TORSDOF 7
ENDMDL
