MODEL 1
REMARK VINA RESULT:      -8.9      0.000      0.000
REMARK  Name = 
REMARK  4 active torsions:
REMARK  status: ('A' for Active; 'I' for Inactive)
REMARK    1  A    between atoms: C_2  and  O_3
REMARK    2  A    between atoms: C_2  and  C_19
REMARK    3  A    between atoms: O_3  and  C_4
REMARK    4  A    between atoms: C_22  and  N_23
REMARK                            x       y       z     vdW  Elec       q    Type
REMARK                         _______ _______ _______ _____ _____    ______ ____
ROOT
ATOM      1  C   UNL     1       3.495   4.269  19.261  0.00  0.00    +0.000 A 
ATOM      2  C   UNL     1       3.227   3.529  20.351  0.00  0.00    +0.000 A 
ATOM      3  C   UNL     1       2.321   3.999  21.415  0.00  0.00    +0.000 A 
ATOM      4  O   UNL     1       2.035   3.279  22.364  0.00  0.00    +0.000 OA
ATOM      5  N   UNL     1       1.807   5.251  21.281  0.00  0.00    +0.000 N 
ATOM      6  C   UNL     1       2.107   6.123  20.218  0.00  0.00    +0.000 A 
ATOM      7  C   UNL     1       2.958   5.651  19.193  0.00  0.00    +0.000 A 
ATOM      8  C   UNL     1       3.284   6.519  18.150  0.00  0.00    +0.000 A 
ATOM      9  C   UNL     1       2.778   7.822  18.122  0.00  0.00    +0.000 A 
ATOM     10  C   UNL     1       1.926   8.295  19.134  0.00  0.00    +0.000 A 
ATOM     11  C   UNL     1       1.435   9.612  19.079  0.00  0.00    +0.000 A 
ATOM     12  C   UNL     1       0.589  10.107  20.070  0.00  0.00    +0.000 A 
ATOM     13  C   UNL     1       0.223   9.290  21.131  0.00  0.00    +0.000 A 
ATOM     14  C   UNL     1       0.706   7.981  21.199  0.00  0.00    +0.000 A 
ATOM     15  C   UNL     1       1.569   7.446  20.207  0.00  0.00    +0.000 A 
ATOM     16  H   UNL     1       1.183   5.527  22.024  0.00  0.00    +0.000 HD
ENDROOT
BRANCH   1  17
ATOM     17  O   UNL     1       4.262   3.832  18.127  0.00  0.00    +0.000 OA
BRANCH  17  19
ATOM     18  O   UNL     1       6.415   4.231  18.891  0.00  0.00    +0.000 OA
ATOM     19  C   UNL     1       5.590   4.117  17.992  0.00  0.00    +0.000 C 
BRANCH  19  20
ATOM     20  C   UNL     1       6.024   4.303  16.577  0.00  0.00    +0.000 A 
ATOM     21  C   UNL     1       7.297   4.874  16.374  0.00  0.00    +0.000 A 
ATOM     22  C   UNL     1       7.795   5.109  15.089  0.00  0.00    +0.000 A 
ATOM     23  C   UNL     1       7.017   4.757  13.985  0.00  0.00    +0.000 A 
ATOM     24  C   UNL     1       5.755   4.164  14.166  0.00  0.00    +0.000 A 
ATOM     25  C   UNL     1       5.256   3.947  15.462  0.00  0.00    +0.000 A 
BRANCH  23  26
ATOM     26  N   UNL     1       7.515   5.034  12.630  0.00  0.00    +0.000 N 
ATOM     27  O   UNL     1       7.276   4.201  11.745  0.00  0.00    +0.000 OA
ATOM     28  O   UNL     1       8.154   6.082  12.456  0.00  0.00    +0.000 OA
ENDBRANCH  23  26
ENDBRANCH  19  20
ENDBRANCH  17  19
ENDBRANCH   1  17
TORSDOF 4
ENDMDL
MODEL 2
REMARK VINA RESULT:      -8.7      2.716      4.716
REMARK  Name = 
REMARK  4 active torsions:
REMARK  status: ('A' for Active; 'I' for Inactive)
REMARK    1  A    between atoms: C_2  and  O_3
REMARK    2  A    between atoms: C_2  and  C_19
REMARK    3  A    between atoms: O_3  and  C_4
REMARK    4  A    between atoms: C_22  and  N_23
REMARK                            x       y       z     vdW  Elec       q    Type
REMARK                         _______ _______ _______ _____ _____    ______ ____
ROOT
ATOM      1  C   UNL     1       1.781   7.642  19.754  0.00  0.00    +0.000 A 
ATOM      2  C   UNL     1       2.171   8.143  18.568  0.00  0.00    +0.000 A 
ATOM      3  C   UNL     1       1.946   9.553  18.200  0.00  0.00    +0.000 A 
ATOM      4  O   UNL     1       2.374  10.005  17.145  0.00  0.00    +0.000 OA
ATOM      5  N   UNL     1       1.267  10.323  19.091  0.00  0.00    +0.000 N 
ATOM      6  C   UNL     1       0.746   9.855  20.312  0.00  0.00    +0.000 A 
ATOM      7  C   UNL     1       0.990   8.508  20.663  0.00  0.00    +0.000 A 
ATOM      8  C   UNL     1       0.452   8.027  21.859  0.00  0.00    +0.000 A 
ATOM      9  C   UNL     1      -0.305   8.862  22.686  0.00  0.00    +0.000 A 
ATOM     10  C   UNL     1      -0.544  10.203  22.347  0.00  0.00    +0.000 A 
ATOM     11  C   UNL     1      -1.312  11.017  23.199  0.00  0.00    +0.000 A 
ATOM     12  C   UNL     1      -1.566  12.351  22.886  0.00  0.00    +0.000 A 
ATOM     13  C   UNL     1      -1.053  12.890  21.714  0.00  0.00    +0.000 A 
ATOM     14  C   UNL     1      -0.292  12.092  20.857  0.00  0.00    +0.000 A 
ATOM     15  C   UNL     1      -0.015  10.730  21.145  0.00  0.00    +0.000 A 
ATOM     16  H   UNL     1       1.146  11.283  18.805  0.00  0.00    +0.000 HD
ENDROOT
BRANCH   1  17
ATOM     17  O   UNL     1       2.074   6.320  20.235  0.00  0.00    +0.000 OA
BRANCH  17  19
ATOM     18  O   UNL     1       1.347   4.442  19.084  0.00  0.00    +0.000 OA
ATOM     19  C   UNL     1       2.212   5.253  19.395  0.00  0.00    +0.000 C 
BRANCH  19  20
ATOM     20  C   UNL     1       3.585   5.106  18.831  0.00  0.00    +0.000 A 
ATOM     21  C   UNL     1       3.679   4.624  17.509  0.00  0.00    +0.000 A 
ATOM     22  C   UNL     1       4.917   4.432  16.889  0.00  0.00    +0.000 A 
ATOM     23  C   UNL     1       6.083   4.737  17.593  0.00  0.00    +0.000 A 
ATOM     24  C   UNL     1       6.011   5.242  18.903  0.00  0.00    +0.000 A 
ATOM     25  C   UNL     1       4.761   5.417  19.524  0.00  0.00    +0.000 A 
BRANCH  23  26
ATOM     26  N   UNL     1       7.391   4.503  16.963  0.00  0.00    +0.000 N 
ATOM     27  O   UNL     1       8.313   4.094  17.682  0.00  0.00    +0.000 OA
ATOM     28  O   UNL     1       7.495   4.738  15.751  0.00  0.00    +0.000 OA
ENDBRANCH  23  26
ENDBRANCH  19  20
ENDBRANCH  17  19
ENDBRANCH   1  17
TORSDOF 4
ENDMDL
MODEL 3
REMARK VINA RESULT:      -8.7      1.065      1.511
REMARK  Name = 
REMARK  4 active torsions:
REMARK  status: ('A' for Active; 'I' for Inactive)
REMARK    1  A    between atoms: C_2  and  O_3
REMARK    2  A    between atoms: C_2  and  C_19
REMARK    3  A    between atoms: O_3  and  C_4
REMARK    4  A    between atoms: C_22  and  N_23
REMARK                            x       y       z     vdW  Elec       q    Type
REMARK                         _______ _______ _______ _____ _____    ______ ____
ROOT
ATOM      1  C   UNL     1       2.792   4.909  18.708  0.00  0.00    +0.000 A 
ATOM      2  C   UNL     1       2.822   4.093  19.777  0.00  0.00    +0.000 A 
ATOM      3  C   UNL     1       2.324   4.512  21.099  0.00  0.00    +0.000 A 
ATOM      4  O   UNL     1       2.295   3.727  22.040  0.00  0.00    +0.000 OA
ATOM      5  N   UNL     1       1.880   5.792  21.215  0.00  0.00    +0.000 N 
ATOM      6  C   UNL     1       1.897   6.737  20.172  0.00  0.00    +0.000 A 
ATOM      7  C   UNL     1       2.356   6.315  18.904  0.00  0.00    +0.000 A 
ATOM      8  C   UNL     1       2.404   7.253  17.871  0.00  0.00    +0.000 A 
ATOM      9  C   UNL     1       2.004   8.575  18.090  0.00  0.00    +0.000 A 
ATOM     10  C   UNL     1       1.540   8.998  19.346  0.00  0.00    +0.000 A 
ATOM     11  C   UNL     1       1.148  10.336  19.535  0.00  0.00    +0.000 A 
ATOM     12  C   UNL     1       0.685  10.782  20.771  0.00  0.00    +0.000 A 
ATOM     13  C   UNL     1       0.608   9.896  21.837  0.00  0.00    +0.000 A 
ATOM     14  C   UNL     1       0.998   8.565  21.663  0.00  0.00    +0.000 A 
ATOM     15  C   UNL     1       1.474   8.078  20.418  0.00  0.00    +0.000 A 
ATOM     16  H   UNL     1       1.536   6.032  22.133  0.00  0.00    +0.000 HD
ENDROOT
BRANCH   1  17
ATOM     17  O   UNL     1       3.140   4.537  17.366  0.00  0.00    +0.000 OA
BRANCH  17  19
ATOM     18  O   UNL     1       4.255   2.512  17.562  0.00  0.00    +0.000 OA
ATOM     19  C   UNL     1       4.130   3.637  17.092  0.00  0.00    +0.000 C 
BRANCH  19  20
ATOM     20  C   UNL     1       5.140   4.133  16.113  0.00  0.00    +0.000 A 
ATOM     21  C   UNL     1       5.061   3.617  14.803  0.00  0.00    +0.000 A 
ATOM     22  C   UNL     1       5.968   4.001  13.812  0.00  0.00    +0.000 A 
ATOM     23  C   UNL     1       6.966   4.925  14.126  0.00  0.00    +0.000 A 
ATOM     24  C   UNL     1       7.047   5.471  15.419  0.00  0.00    +0.000 A 
ATOM     25  C   UNL     1       6.139   5.066  16.415  0.00  0.00    +0.000 A 
BRANCH  23  26
ATOM     26  N   UNL     1       7.948   5.307  13.101  0.00  0.00    +0.000 N 
ATOM     27  O   UNL     1       8.927   5.976  13.460  0.00  0.00    +0.000 OA
ATOM     28  O   UNL     1       7.733   4.943  11.936  0.00  0.00    +0.000 OA
ENDBRANCH  23  26
ENDBRANCH  19  20
ENDBRANCH  17  19
ENDBRANCH   1  17
TORSDOF 4
ENDMDL
MODEL 4
REMARK VINA RESULT:      -8.6      2.727      4.676
REMARK  Name = 
REMARK  4 active torsions:
REMARK  status: ('A' for Active; 'I' for Inactive)
REMARK    1  A    between atoms: C_2  and  O_3
REMARK    2  A    between atoms: C_2  and  C_19
REMARK    3  A    between atoms: O_3  and  C_4
REMARK    4  A    between atoms: C_22  and  N_23
REMARK                            x       y       z     vdW  Elec       q    Type
REMARK                         _______ _______ _______ _____ _____    ______ ____
ROOT
ATOM      1  C   UNL     1       1.873   7.785  19.914  0.00  0.00    +0.000 A 
ATOM      2  C   UNL     1       2.209   8.223  18.688  0.00  0.00    +0.000 A 
ATOM      3  C   UNL     1       1.880   9.583  18.223  0.00  0.00    +0.000 A 
ATOM      4  O   UNL     1       2.260   9.984  17.129  0.00  0.00    +0.000 OA
ATOM      5  N   UNL     1       1.162  10.368  19.069  0.00  0.00    +0.000 N 
ATOM      6  C   UNL     1       0.693   9.956  20.331  0.00  0.00    +0.000 A 
ATOM      7  C   UNL     1       1.037   8.659  20.774  0.00  0.00    +0.000 A 
ATOM      8  C   UNL     1       0.552   8.231  22.012  0.00  0.00    +0.000 A 
ATOM      9  C   UNL     1      -0.250   9.071  22.791  0.00  0.00    +0.000 A 
ATOM     10  C   UNL     1      -0.588  10.364  22.360  0.00  0.00    +0.000 A 
ATOM     11  C   UNL     1      -1.399  11.183  23.166  0.00  0.00    +0.000 A 
ATOM     12  C   UNL     1      -1.750  12.469  22.762  0.00  0.00    +0.000 A 
ATOM     13  C   UNL     1      -1.294  12.955  21.544  0.00  0.00    +0.000 A 
ATOM     14  C   UNL     1      -0.491  12.150  20.732  0.00  0.00    +0.000 A 
ATOM     15  C   UNL     1      -0.115  10.835  21.113  0.00  0.00    +0.000 A 
ATOM     16  H   UNL     1       0.970  11.294  18.716  0.00  0.00    +0.000 HD
ENDROOT
BRANCH   1  17
ATOM     17  O   UNL     1       2.265   6.526  20.484  0.00  0.00    +0.000 OA
BRANCH  17  19
ATOM     18  O   UNL     1       1.247   4.547  19.830  0.00  0.00    +0.000 OA
ATOM     19  C   UNL     1       2.171   5.352  19.794  0.00  0.00    +0.000 C 
BRANCH  19  20
ATOM     20  C   UNL     1       3.348   5.071  18.922  0.00  0.00    +0.000 A 
ATOM     21  C   UNL     1       4.622   5.237  19.503  0.00  0.00    +0.000 A 
ATOM     22  C   UNL     1       5.792   5.018  18.771  0.00  0.00    +0.000 A 
ATOM     23  C   UNL     1       5.694   4.614  17.438  0.00  0.00    +0.000 A 
ATOM     24  C   UNL     1       4.433   4.418  16.847  0.00  0.00    +0.000 A 
ATOM     25  C   UNL     1       3.261   4.657  17.587  0.00  0.00    +0.000 A 
BRANCH  23  26
ATOM     26  N   UNL     1       6.918   4.418  16.649  0.00  0.00    +0.000 N 
ATOM     27  O   UNL     1       6.800   4.288  15.423  0.00  0.00    +0.000 OA
ATOM     28  O   UNL     1       7.996   4.384  17.259  0.00  0.00    +0.000 OA
ENDBRANCH  23  26
ENDBRANCH  19  20
ENDBRANCH  17  19
ENDBRANCH   1  17
TORSDOF 4
ENDMDL
MODEL 5
REMARK VINA RESULT:      -8.4      2.405      2.835
REMARK  Name = 
REMARK  4 active torsions:
REMARK  status: ('A' for Active; 'I' for Inactive)
REMARK    1  A    between atoms: C_2  and  O_3
REMARK    2  A    between atoms: C_2  and  C_19
REMARK    3  A    between atoms: O_3  and  C_4
REMARK    4  A    between atoms: C_22  and  N_23
REMARK                            x       y       z     vdW  Elec       q    Type
REMARK                         _______ _______ _______ _____ _____    ______ ____
ROOT
ATOM      1  C   UNL     1       2.785   4.475  18.770  0.00  0.00    +0.000 A 
ATOM      2  C   UNL     1       2.805   3.717  19.880  0.00  0.00    +0.000 A 
ATOM      3  C   UNL     1       2.328   4.217  21.182  0.00  0.00    +0.000 A 
ATOM      4  O   UNL     1       2.289   3.485  22.163  0.00  0.00    +0.000 OA
ATOM      5  N   UNL     1       1.917   5.512  21.232  0.00  0.00    +0.000 N 
ATOM      6  C   UNL     1       1.947   6.399  20.140  0.00  0.00    +0.000 A 
ATOM      7  C   UNL     1       2.385   5.899  18.893  0.00  0.00    +0.000 A 
ATOM      8  C   UNL     1       2.447   6.779  17.811  0.00  0.00    +0.000 A 
ATOM      9  C   UNL     1       2.081   8.120  17.962  0.00  0.00    +0.000 A 
ATOM     10  C   UNL     1       1.638   8.621  19.197  0.00  0.00    +0.000 A 
ATOM     11  C   UNL     1       1.280   9.977  19.316  0.00  0.00    +0.000 A 
ATOM     12  C   UNL     1       0.838  10.500  20.530  0.00  0.00    +0.000 A 
ATOM     13  C   UNL     1       0.749   9.673  21.642  0.00  0.00    +0.000 A 
ATOM     14  C   UNL     1       1.105   8.327  21.537  0.00  0.00    +0.000 A 
ATOM     15  C   UNL     1       1.559   7.762  20.317  0.00  0.00    +0.000 A 
ATOM     16  H   UNL     1       1.587   5.809  22.139  0.00  0.00    +0.000 HD
ENDROOT
BRANCH   1  17
ATOM     17  O   UNL     1       3.113   4.022  17.447  0.00  0.00    +0.000 OA
BRANCH  17  19
ATOM     18  O   UNL     1       4.818   2.678  16.633  0.00  0.00    +0.000 OA
ATOM     19  C   UNL     1       4.394   3.741  17.069  0.00  0.00    +0.000 C 
BRANCH  19  20
ATOM     20  C   UNL     1       5.334   4.889  17.229  0.00  0.00    +0.000 A 
ATOM     21  C   UNL     1       6.208   4.843  18.334  0.00  0.00    +0.000 A 
ATOM     22  C   UNL     1       7.116   5.874  18.589  0.00  0.00    +0.000 A 
ATOM     23  C   UNL     1       7.164   6.967  17.721  0.00  0.00    +0.000 A 
ATOM     24  C   UNL     1       6.318   7.020  16.600  0.00  0.00    +0.000 A 
ATOM     25  C   UNL     1       5.396   5.985  16.360  0.00  0.00    +0.000 A 
BRANCH  23  26
ATOM     26  N   UNL     1       8.089   8.074  18.001  0.00  0.00    +0.000 N 
ATOM     27  O   UNL     1       8.078   9.045  17.232  0.00  0.00    +0.000 OA
ATOM     28  O   UNL     1       8.833   7.966  18.987  0.00  0.00    +0.000 OA
ENDBRANCH  23  26
ENDBRANCH  19  20
ENDBRANCH  17  19
ENDBRANCH   1  17
TORSDOF 4
ENDMDL
MODEL 6
REMARK VINA RESULT:      -8.4      2.701      7.641
REMARK  Name = 
REMARK  4 active torsions:
REMARK  status: ('A' for Active; 'I' for Inactive)
REMARK    1  A    between atoms: C_2  and  O_3
REMARK    2  A    between atoms: C_2  and  C_19
REMARK    3  A    between atoms: O_3  and  C_4
REMARK    4  A    between atoms: C_22  and  N_23
REMARK                            x       y       z     vdW  Elec       q    Type
REMARK                         _______ _______ _______ _____ _____    ______ ____
ROOT
ATOM      1  C   UNL     1       5.717   5.050  18.356  0.00  0.00    +0.000 A 
ATOM      2  C   UNL     1       6.574   5.973  18.827  0.00  0.00    +0.000 A 
ATOM      3  C   UNL     1       7.515   6.691  17.948  0.00  0.00    +0.000 A 
ATOM      4  O   UNL     1       8.236   7.579  18.387  0.00  0.00    +0.000 OA
ATOM      5  N   UNL     1       7.528   6.336  16.635  0.00  0.00    +0.000 N 
ATOM      6  C   UNL     1       6.730   5.319  16.079  0.00  0.00    +0.000 A 
ATOM      7  C   UNL     1       5.815   4.656  16.928  0.00  0.00    +0.000 A 
ATOM      8  C   UNL     1       5.040   3.626  16.391  0.00  0.00    +0.000 A 
ATOM      9  C   UNL     1       5.168   3.265  15.047  0.00  0.00    +0.000 A 
ATOM     10  C   UNL     1       6.069   3.925  14.196  0.00  0.00    +0.000 A 
ATOM     11  C   UNL     1       6.176   3.537  12.848  0.00  0.00    +0.000 A 
ATOM     12  C   UNL     1       7.063   4.174  11.983  0.00  0.00    +0.000 A 
ATOM     13  C   UNL     1       7.857   5.211  12.456  0.00  0.00    +0.000 A 
ATOM     14  C   UNL     1       7.763   5.604  13.793  0.00  0.00    +0.000 A 
ATOM     15  C   UNL     1       6.871   4.976  14.700  0.00  0.00    +0.000 A 
ATOM     16  H   UNL     1       8.178   6.861  16.069  0.00  0.00    +0.000 HD
ENDROOT
BRANCH   1  17
ATOM     17  O   UNL     1       4.689   4.402  19.121  0.00  0.00    +0.000 OA
BRANCH  17  19
ATOM     18  O   UNL     1       2.603   3.612  18.485  0.00  0.00    +0.000 OA
ATOM     19  C   UNL     1       3.365   4.516  18.807  0.00  0.00    +0.000 C 
BRANCH  19  20
ATOM     20  C   UNL     1       2.849   5.914  18.875  0.00  0.00    +0.000 A 
ATOM     21  C   UNL     1       2.332   6.339  20.116  0.00  0.00    +0.000 A 
ATOM     22  C   UNL     1       1.807   7.622  20.287  0.00  0.00    +0.000 A 
ATOM     23  C   UNL     1       1.807   8.505  19.205  0.00  0.00    +0.000 A 
ATOM     24  C   UNL     1       2.341   8.110  17.966  0.00  0.00    +0.000 A 
ATOM     25  C   UNL     1       2.853   6.810  17.800  0.00  0.00    +0.000 A 
BRANCH  23  26
ATOM     26  N   UNL     1       1.223   9.845  19.364  0.00  0.00    +0.000 N 
ATOM     27  O   UNL     1       1.489  10.696  18.504  0.00  0.00    +0.000 OA
ATOM     28  O   UNL     1       0.506  10.046  20.354  0.00  0.00    +0.000 OA
ENDBRANCH  23  26
ENDBRANCH  19  20
ENDBRANCH  17  19
ENDBRANCH   1  17
TORSDOF 4
ENDMDL
MODEL 7
REMARK VINA RESULT:      -8.4      0.734      1.169
REMARK  Name = 
REMARK  4 active torsions:
REMARK  status: ('A' for Active; 'I' for Inactive)
REMARK    1  A    between atoms: C_2  and  O_3
REMARK    2  A    between atoms: C_2  and  C_19
REMARK    3  A    between atoms: O_3  and  C_4
REMARK    4  A    between atoms: C_22  and  N_23
REMARK                            x       y       z     vdW  Elec       q    Type
REMARK                         _______ _______ _______ _____ _____    ______ ____
ROOT
ATOM      1  C   UNL     1       3.797   4.411  19.302  0.00  0.00    +0.000 A 
ATOM      2  C   UNL     1       3.489   3.690  20.394  0.00  0.00    +0.000 A 
ATOM      3  C   UNL     1       2.493   4.145  21.381  0.00  0.00    +0.000 A 
ATOM      4  O   UNL     1       2.177   3.437  22.330  0.00  0.00    +0.000 OA
ATOM      5  N   UNL     1       1.932   5.366  21.174  0.00  0.00    +0.000 N 
ATOM      6  C   UNL     1       2.263   6.223  20.108  0.00  0.00    +0.000 A 
ATOM      7  C   UNL     1       3.202   5.764  19.156  0.00  0.00    +0.000 A 
ATOM      8  C   UNL     1       3.559   6.618  18.111  0.00  0.00    +0.000 A 
ATOM      9  C   UNL     1       2.996   7.894  18.011  0.00  0.00    +0.000 A 
ATOM     10  C   UNL     1       2.056   8.353  18.949  0.00  0.00    +0.000 A 
ATOM     11  C   UNL     1       1.510   9.643  18.821  0.00  0.00    +0.000 A 
ATOM     12  C   UNL     1       0.577  10.123  19.738  0.00  0.00    +0.000 A 
ATOM     13  C   UNL     1       0.177   9.319  20.796  0.00  0.00    +0.000 A 
ATOM     14  C   UNL     1       0.715   8.037  20.936  0.00  0.00    +0.000 A 
ATOM     15  C   UNL     1       1.667   7.517  20.021  0.00  0.00    +0.000 A 
ATOM     16  H   UNL     1       1.247   5.632  21.866  0.00  0.00    +0.000 HD
ENDROOT
BRANCH   1  17
ATOM     17  O   UNL     1       4.658   3.982  18.236  0.00  0.00    +0.000 OA
BRANCH  17  19
ATOM     18  O   UNL     1       3.101   3.249  16.680  0.00  0.00    +0.000 OA
ATOM     19  C   UNL     1       4.190   3.725  16.979  0.00  0.00    +0.000 C 
BRANCH  19  20
ATOM     20  C   UNL     1       5.153   4.078  15.895  0.00  0.00    +0.000 A 
ATOM     21  C   UNL     1       6.118   5.060  16.199  0.00  0.00    +0.000 A 
ATOM     22  C   UNL     1       7.056   5.479  15.252  0.00  0.00    +0.000 A 
ATOM     23  C   UNL     1       7.042   4.902  13.981  0.00  0.00    +0.000 A 
ATOM     24  C   UNL     1       6.104   3.903  13.665  0.00  0.00    +0.000 A 
ATOM     25  C   UNL     1       5.153   3.500  14.620  0.00  0.00    +0.000 A 
BRANCH  23  26
ATOM     26  N   UNL     1       8.000   5.362  12.966  0.00  0.00    +0.000 N 
ATOM     27  O   UNL     1       8.989   6.001  13.353  0.00  0.00    +0.000 OA
ATOM     28  O   UNL     1       7.757   5.092  11.782  0.00  0.00    +0.000 OA
ENDBRANCH  23  26
ENDBRANCH  19  20
ENDBRANCH  17  19
ENDBRANCH   1  17
TORSDOF 4
ENDMDL
MODEL 8
REMARK VINA RESULT:      -8.3      4.423      6.858
REMARK  Name = 
REMARK  4 active torsions:
REMARK  status: ('A' for Active; 'I' for Inactive)
REMARK    1  A    between atoms: C_2  and  O_3
REMARK    2  A    between atoms: C_2  and  C_19
REMARK    3  A    between atoms: O_3  and  C_4
REMARK    4  A    between atoms: C_22  and  N_23
REMARK                            x       y       z     vdW  Elec       q    Type
REMARK                         _______ _______ _______ _____ _____    ______ ____
ROOT
ATOM      1  C   UNL     1      -0.020  10.122  18.852  0.00  0.00    +0.000 A 
ATOM      2  C   UNL     1       0.483  10.650  19.982  0.00  0.00    +0.000 A 
ATOM      3  C   UNL     1      -0.317  11.511  20.871  0.00  0.00    +0.000 A 
ATOM      4  O   UNL     1       0.140  11.921  21.931  0.00  0.00    +0.000 OA
ATOM      5  N   UNL     1      -1.584  11.804  20.472  0.00  0.00    +0.000 N 
ATOM      6  C   UNL     1      -2.157  11.367  19.263  0.00  0.00    +0.000 A 
ATOM      7  C   UNL     1      -1.386  10.523  18.431  0.00  0.00    +0.000 A 
ATOM      8  C   UNL     1      -1.935  10.109  17.216  0.00  0.00    +0.000 A 
ATOM      9  C   UNL     1      -3.217  10.519  16.837  0.00  0.00    +0.000 A 
ATOM     10  C   UNL     1      -3.991  11.351  17.663  0.00  0.00    +0.000 A 
ATOM     11  C   UNL     1      -5.277  11.748  17.252  0.00  0.00    +0.000 A 
ATOM     12  C   UNL     1      -6.065  12.573  18.051  0.00  0.00    +0.000 A 
ATOM     13  C   UNL     1      -5.577  13.014  19.274  0.00  0.00    +0.000 A 
ATOM     14  C   UNL     1      -4.300  12.630  19.692  0.00  0.00    +0.000 A 
ATOM     15  C   UNL     1      -3.472  11.791  18.902  0.00  0.00    +0.000 A 
ATOM     16  H   UNL     1      -2.099  12.385  21.115  0.00  0.00    +0.000 HD
ENDROOT
BRANCH   1  17
ATOM     17  O   UNL     1       0.651   9.178  18.003  0.00  0.00    +0.000 OA
BRANCH  17  19
ATOM     18  O   UNL     1       2.714  10.072  17.432  0.00  0.00    +0.000 OA
ATOM     19  C   UNL     1       2.009   9.165  17.858  0.00  0.00    +0.000 C 
BRANCH  19  20
ATOM     20  C   UNL     1       2.646   7.883  18.277  0.00  0.00    +0.000 A 
ATOM     21  C   UNL     1       3.693   7.400  17.466  0.00  0.00    +0.000 A 
ATOM     22  C   UNL     1       4.347   6.199  17.756  0.00  0.00    +0.000 A 
ATOM     23  C   UNL     1       3.960   5.471  18.882  0.00  0.00    +0.000 A 
ATOM     24  C   UNL     1       2.935   5.947  19.718  0.00  0.00    +0.000 A 
ATOM     25  C   UNL     1       2.272   7.148  19.409  0.00  0.00    +0.000 A 
BRANCH  23  26
ATOM     26  N   UNL     1       4.616   4.188  19.175  0.00  0.00    +0.000 N 
ATOM     27  O   UNL     1       5.851   4.179  19.264  0.00  0.00    +0.000 OA
ATOM     28  O   UNL     1       3.893   3.190  19.308  0.00  0.00    +0.000 OA
ENDBRANCH  23  26
ENDBRANCH  19  20
ENDBRANCH  17  19
ENDBRANCH   1  17
TORSDOF 4
ENDMDL
MODEL 9
REMARK VINA RESULT:      -8.3      0.629      1.309
REMARK  Name = 
REMARK  4 active torsions:
REMARK  status: ('A' for Active; 'I' for Inactive)
REMARK    1  A    between atoms: C_2  and  O_3
REMARK    2  A    between atoms: C_2  and  C_19
REMARK    3  A    between atoms: O_3  and  C_4
REMARK    4  A    between atoms: C_22  and  N_23
REMARK                            x       y       z     vdW  Elec       q    Type
REMARK                         _______ _______ _______ _____ _____    ______ ____
ROOT
ATOM      1  C   UNL     1       3.770   4.352  19.404  0.00  0.00    +0.000 A 
ATOM      2  C   UNL     1       3.418   3.600  20.462  0.00  0.00    +0.000 A 
ATOM      3  C   UNL     1       2.383   4.029  21.421  0.00  0.00    +0.000 A 
ATOM      4  O   UNL     1       2.028   3.296  22.336  0.00  0.00    +0.000 OA
ATOM      5  N   UNL     1       1.832   5.257  21.227  0.00  0.00    +0.000 N 
ATOM      6  C   UNL     1       2.207   6.143  20.199  0.00  0.00    +0.000 A 
ATOM      7  C   UNL     1       3.183   5.709  19.274  0.00  0.00    +0.000 A 
ATOM      8  C   UNL     1       3.583   6.593  18.269  0.00  0.00    +0.000 A 
ATOM      9  C   UNL     1       3.026   7.872  18.183  0.00  0.00    +0.000 A 
ATOM     10  C   UNL     1       2.050   8.306  19.095  0.00  0.00    +0.000 A 
ATOM     11  C   UNL     1       1.511   9.601  18.983  0.00  0.00    +0.000 A 
ATOM     12  C   UNL     1       0.542  10.057  19.875  0.00  0.00    +0.000 A 
ATOM     13  C   UNL     1       0.099   9.223  20.893  0.00  0.00    +0.000 A 
ATOM     14  C   UNL     1       0.629   7.937  21.017  0.00  0.00    +0.000 A 
ATOM     15  C   UNL     1       1.617   7.441  20.126  0.00  0.00    +0.000 A 
ATOM     16  H   UNL     1       1.121   5.505  21.898  0.00  0.00    +0.000 HD
ENDROOT
BRANCH   1  17
ATOM     17  O   UNL     1       4.673   3.951  18.362  0.00  0.00    +0.000 OA
BRANCH  17  19
ATOM     18  O   UNL     1       3.194   3.204  16.737  0.00  0.00    +0.000 OA
ATOM     19  C   UNL     1       4.252   3.716  17.084  0.00  0.00    +0.000 C 
BRANCH  19  20
ATOM     20  C   UNL     1       5.228   4.148  16.041  0.00  0.00    +0.000 A 
ATOM     21  C   UNL     1       4.862   3.926  14.698  0.00  0.00    +0.000 A 
ATOM     22  C   UNL     1       5.709   4.276  13.643  0.00  0.00    +0.000 A 
ATOM     23  C   UNL     1       6.940   4.869  13.929  0.00  0.00    +0.000 A 
ATOM     24  C   UNL     1       7.314   5.122  15.261  0.00  0.00    +0.000 A 
ATOM     25  C   UNL     1       6.461   4.751  16.316  0.00  0.00    +0.000 A 
BRANCH  23  26
ATOM     26  N   UNL     1       7.854   5.206  12.829  0.00  0.00    +0.000 N 
ATOM     27  O   UNL     1       7.617   4.723  11.713  0.00  0.00    +0.000 OA
ATOM     28  O   UNL     1       8.814   5.947  13.085  0.00  0.00    +0.000 OA
ENDBRANCH  23  26
ENDBRANCH  19  20
ENDBRANCH  17  19
ENDBRANCH   1  17
TORSDOF 4
ENDMDL
