MODEL 1
REMARK VINA RESULT:      -7.7      0.000      0.000
REMARK  Name = 
REMARK  10 active torsions:
REMARK  status: ('A' for Active; 'I' for Inactive)
REMARK    1  A    between atoms: C_1  and  C_2
REMARK    2  A    between atoms: C_2  and  C_3
REMARK    3  A    between atoms: C_2  and  O_4
REMARK    4  A    between atoms: O_4  and  C_5
REMARK    5  A    between atoms: C_10  and  C_11
REMARK    6  A    between atoms: C_11  and  N_12
REMARK    7  A    between atoms: C_15  and  C_16
REMARK    8  A    between atoms: C_16  and  N_17
REMARK    9  A    between atoms: C_19  and  C_20
REMARK   10  A    between atoms: N_22  and  C_23
REMARK                            x       y       z     vdW  Elec       q    Type
REMARK                         _______ _______ _______ _____ _____    ______ ____
ROOT
ATOM      1  N   UNL     1       1.609   7.215  20.487  0.00  0.00    +0.000 NA
ATOM      2  C   UNL     1       2.759   7.356  19.617  0.00  0.00    +0.000 C 
ATOM      3  C   UNL     1       2.935   6.325  18.519  0.00  0.00    +0.000 C 
ATOM      4  C   UNL     1       2.721   4.867  18.923  0.00  0.00    +0.000 C 
ATOM      5  C   UNL     1       1.551   4.702  19.900  0.00  0.00    +0.000 C 
ATOM      6  C   UNL     1       1.222   5.858  20.861  0.00  0.00    +0.000 C 
ENDROOT
BRANCH   1   7
ATOM      7  C   UNL     1       1.712   8.164  21.664  0.00  0.00    +0.000 C 
BRANCH   7  13
ATOM      8  C   UNL     1       0.794  10.533  21.116  0.00  0.00    +0.000 A 
ATOM      9  C   UNL     1       0.054  11.585  21.653  0.00  0.00    +0.000 A 
ATOM     10  C   UNL     1      -0.874  11.360  22.691  0.00  0.00    +0.000 A 
ATOM     11  C   UNL     1      -1.155  10.074  23.138  0.00  0.00    +0.000 A 
ATOM     12  C   UNL     1      -0.434   9.015  22.602  0.00  0.00    +0.000 A 
ATOM     13  C   UNL     1       0.624   9.249  21.697  0.00  0.00    +0.000 A 
BRANCH   8  14
ATOM     14  O   UNL     1       1.683  10.667  20.073  0.00  0.00    +0.000 OA
BRANCH  14  16
ATOM     15  C   UNL     1       1.945  12.351  18.376  0.00  0.00    +0.000 C 
ATOM     16  C   UNL     1       1.259  11.022  18.729  0.00  0.00    +0.000 C 
ATOM     17  C   UNL     1       1.697  10.027  17.643  0.00  0.00    +0.000 C 
ENDBRANCH  14  16
ENDBRANCH   8  14
ENDBRANCH   7  13
ENDBRANCH   1   7
BRANCH   4  18
ATOM     18  C   UNL     1       4.001   4.106  19.360  0.00  0.00    +0.000 C 
BRANCH  18  19
ATOM     19  N   UNL     1       5.116   4.252  18.415  0.00  0.00    +0.000 N 
ATOM     20  C   UNL     1       4.990   3.988  16.995  0.00  0.00    +0.000 C 
ATOM     21  C   UNL     1       6.403   4.219  16.453  0.00  0.00    +0.000 C 
ATOM     22  C   UNL     1       6.941   5.295  17.389  0.00  0.00    +0.000 C 
ATOM     23  C   UNL     1       6.279   4.953  18.702  0.00  0.00    +0.000 C 
ATOM     24  O   UNL     1       6.675   5.307  19.798  0.00  0.00    +0.000 OA
BRANCH  21  25
ATOM     25  C   UNL     1       6.366   4.578  14.979  0.00  0.00    +0.000 C 
ATOM     26  O   UNL     1       6.259   5.743  14.603  0.00  0.00    +0.000 OA
ATOM     27  N   UNL     1       6.332   3.503  14.108  0.00  0.00    +0.000 N 
ATOM     28  H   UNL     1       6.314   2.558  14.470  0.00  0.00    +0.000 HD
BRANCH  27  29
ATOM     29  C   UNL     1       6.074   3.688  12.712  0.00  0.00    +0.000 C 
ATOM     30  C   UNL     1       5.898   2.510  11.793  0.00  0.00    +0.000 C 
ATOM     31  C   UNL     1       4.725   3.392  12.111  0.00  0.00    +0.000 C 
ENDBRANCH  27  29
ENDBRANCH  21  25
ENDBRANCH  18  19
ENDBRANCH   4  18
TORSDOF 8
ENDMDL
MODEL 2
REMARK VINA RESULT:      -7.7      4.980      9.139
REMARK  Name = 
REMARK  10 active torsions:
REMARK  status: ('A' for Active; 'I' for Inactive)
REMARK    1  A    between atoms: C_1  and  C_2
REMARK    2  A    between atoms: C_2  and  C_3
REMARK    3  A    between atoms: C_2  and  O_4
REMARK    4  A    between atoms: O_4  and  C_5
REMARK    5  A    between atoms: C_10  and  C_11
REMARK    6  A    between atoms: C_11  and  N_12
REMARK    7  A    between atoms: C_15  and  C_16
REMARK    8  A    between atoms: C_16  and  N_17
REMARK    9  A    between atoms: C_19  and  C_20
REMARK   10  A    between atoms: N_22  and  C_23
REMARK                            x       y       z     vdW  Elec       q    Type
REMARK                         _______ _______ _______ _____ _____    ______ ____
ROOT
ATOM      1  N   UNL     1       1.935   8.518  19.289  0.00  0.00    +0.000 NA
ATOM      2  C   UNL     1       1.376   8.685  17.963  0.00  0.00    +0.000 C 
ATOM      3  C   UNL     1       0.604   9.960  17.686  0.00  0.00    +0.000 C 
ATOM      4  C   UNL     1      -0.388  10.395  18.763  0.00  0.00    +0.000 C 
ATOM      5  C   UNL     1       0.155  10.163  20.178  0.00  0.00    +0.000 C 
ATOM      6  C   UNL     1       1.135   9.001  20.412  0.00  0.00    +0.000 C 
ENDROOT
BRANCH   1   7
ATOM      7  C   UNL     1       2.455   7.108  19.474  0.00  0.00    +0.000 C 
BRANCH   7  13
ATOM      8  C   UNL     1       2.849   5.128  17.837  0.00  0.00    +0.000 A 
ATOM      9  C   UNL     1       3.826   4.519  17.051  0.00  0.00    +0.000 A 
ATOM     10  C   UNL     1       4.942   5.249  16.590  0.00  0.00    +0.000 A 
ATOM     11  C   UNL     1       5.050   6.616  16.816  0.00  0.00    +0.000 A 
ATOM     12  C   UNL     1       4.075   7.239  17.586  0.00  0.00    +0.000 A 
ATOM     13  C   UNL     1       3.056   6.484  18.205  0.00  0.00    +0.000 A 
BRANCH   8  14
ATOM     14  O   UNL     1       1.711   4.494  18.285  0.00  0.00    +0.000 OA
BRANCH  14  16
ATOM     15  C   UNL     1       0.939   3.909  20.485  0.00  0.00    +0.000 C 
ATOM     16  C   UNL     1       1.751   3.429  19.272  0.00  0.00    +0.000 C 
ATOM     17  C   UNL     1       1.086   2.120  18.820  0.00  0.00    +0.000 C 
ENDBRANCH  14  16
ENDBRANCH   8  14
ENDBRANCH   7  13
ENDBRANCH   1   7
BRANCH   4  18
ATOM     18  C   UNL     1      -1.843   9.889  18.570  0.00  0.00    +0.000 C 
BRANCH  18  19
ATOM     19  N   UNL     1      -2.476  10.394  17.346  0.00  0.00    +0.000 N 
ATOM     20  C   UNL     1      -2.202   9.850  16.029  0.00  0.00    +0.000 C 
ATOM     21  C   UNL     1      -3.038  10.724  15.091  0.00  0.00    +0.000 C 
ATOM     22  C   UNL     1      -4.228  11.100  15.965  0.00  0.00    +0.000 C 
ATOM     23  C   UNL     1      -3.613  11.191  17.341  0.00  0.00    +0.000 C 
ATOM     24  O   UNL     1      -4.090  11.799  18.283  0.00  0.00    +0.000 OA
BRANCH  21  25
ATOM     25  C   UNL     1      -3.363   9.984  13.807  0.00  0.00    +0.000 C 
ATOM     26  O   UNL     1      -2.479   9.572  13.060  0.00  0.00    +0.000 OA
ATOM     27  N   UNL     1      -4.707   9.922  13.483  0.00  0.00    +0.000 N 
ATOM     28  H   UNL     1      -5.393  10.370  14.077  0.00  0.00    +0.000 HD
BRANCH  27  29
ATOM     29  C   UNL     1      -5.140   9.454  12.201  0.00  0.00    +0.000 C 
ATOM     30  C   UNL     1      -6.483   8.798  12.028  0.00  0.00    +0.000 C 
ATOM     31  C   UNL     1      -6.230  10.152  11.430  0.00  0.00    +0.000 C 
ENDBRANCH  27  29
ENDBRANCH  21  25
ENDBRANCH  18  19
ENDBRANCH   4  18
TORSDOF 8
ENDMDL
MODEL 3
REMARK VINA RESULT:      -7.5      3.352     10.410
REMARK  Name = 
REMARK  10 active torsions:
REMARK  status: ('A' for Active; 'I' for Inactive)
REMARK    1  A    between atoms: C_1  and  C_2
REMARK    2  A    between atoms: C_2  and  C_3
REMARK    3  A    between atoms: C_2  and  O_4
REMARK    4  A    between atoms: O_4  and  C_5
REMARK    5  A    between atoms: C_10  and  C_11
REMARK    6  A    between atoms: C_11  and  N_12
REMARK    7  A    between atoms: C_15  and  C_16
REMARK    8  A    between atoms: C_16  and  N_17
REMARK    9  A    between atoms: C_19  and  C_20
REMARK   10  A    between atoms: N_22  and  C_23
REMARK                            x       y       z     vdW  Elec       q    Type
REMARK                         _______ _______ _______ _____ _____    ______ ____
ROOT
ATOM      1  N   UNL     1       2.167   7.559  19.011  0.00  0.00    +0.000 NA
ATOM      2  C   UNL     1       1.786   7.649  20.406  0.00  0.00    +0.000 C 
ATOM      3  C   UNL     1       0.501   8.384  20.732  0.00  0.00    +0.000 C 
ATOM      4  C   UNL     1       0.283   9.714  20.012  0.00  0.00    +0.000 C 
ATOM      5  C   UNL     1       0.744   9.663  18.550  0.00  0.00    +0.000 C 
ATOM      6  C   UNL     1       1.906   8.727  18.174  0.00  0.00    +0.000 C 
ENDROOT
BRANCH   1   7
ATOM      7  C   UNL     1       3.576   7.018  18.877  0.00  0.00    +0.000 C 
BRANCH   7  13
ATOM      8  C   UNL     1       3.255   4.761  17.629  0.00  0.00    +0.000 A 
ATOM      9  C   UNL     1       3.923   3.832  16.832  0.00  0.00    +0.000 A 
ATOM     10  C   UNL     1       5.038   4.214  16.057  0.00  0.00    +0.000 A 
ATOM     11  C   UNL     1       5.442   5.542  15.982  0.00  0.00    +0.000 A 
ATOM     12  C   UNL     1       4.776   6.480  16.761  0.00  0.00    +0.000 A 
ATOM     13  C   UNL     1       3.780   6.079  17.678  0.00  0.00    +0.000 A 
BRANCH   8  14
ATOM     14  O   UNL     1       2.135   4.474  18.375  0.00  0.00    +0.000 OA
BRANCH  14  16
ATOM     15  C   UNL     1       1.139   4.067  20.526  0.00  0.00    +0.000 C 
ATOM     16  C   UNL     1       2.162   3.556  19.501  0.00  0.00    +0.000 C 
ATOM     17  C   UNL     1       1.726   2.122  19.159  0.00  0.00    +0.000 C 
ENDBRANCH  14  16
ENDBRANCH   8  14
ENDBRANCH   7  13
ENDBRANCH   1   7
BRANCH   4  18
ATOM     18  C   UNL     1       0.783  10.971  20.772  0.00  0.00    +0.000 C 
BRANCH  18  19
ATOM     19  N   UNL     1      -0.265  11.625  21.567  0.00  0.00    +0.000 N 
ATOM     20  C   UNL     1      -1.170  12.618  21.021  0.00  0.00    +0.000 C 
ATOM     21  C   UNL     1      -2.022  13.036  22.222  0.00  0.00    +0.000 C 
ATOM     22  C   UNL     1      -2.066  11.761  23.054  0.00  0.00    +0.000 C 
ATOM     23  C   UNL     1      -0.712  11.147  22.791  0.00  0.00    +0.000 C 
ATOM     24  O   UNL     1      -0.166  10.323  23.505  0.00  0.00    +0.000 OA
BRANCH  21  25
ATOM     25  C   UNL     1      -3.364  13.583  21.771  0.00  0.00    +0.000 C 
ATOM     26  O   UNL     1      -3.739  14.709  22.087  0.00  0.00    +0.000 OA
ATOM     27  N   UNL     1      -4.172  12.685  21.097  0.00  0.00    +0.000 N 
ATOM     28  H   UNL     1      -3.863  11.732  20.952  0.00  0.00    +0.000 HD
BRANCH  27  29
ATOM     29  C   UNL     1      -5.541  12.991  20.810  0.00  0.00    +0.000 C 
ATOM     30  C   UNL     1      -6.444  11.978  20.159  0.00  0.00    +0.000 C 
ATOM     31  C   UNL     1      -6.671  12.372  21.590  0.00  0.00    +0.000 C 
ENDBRANCH  27  29
ENDBRANCH  21  25
ENDBRANCH  18  19
ENDBRANCH   4  18
TORSDOF 8
ENDMDL
MODEL 4
REMARK VINA RESULT:      -7.5      1.877      2.183
REMARK  Name = 
REMARK  10 active torsions:
REMARK  status: ('A' for Active; 'I' for Inactive)
REMARK    1  A    between atoms: C_1  and  C_2
REMARK    2  A    between atoms: C_2  and  C_3
REMARK    3  A    between atoms: C_2  and  O_4
REMARK    4  A    between atoms: O_4  and  C_5
REMARK    5  A    between atoms: C_10  and  C_11
REMARK    6  A    between atoms: C_11  and  N_12
REMARK    7  A    between atoms: C_15  and  C_16
REMARK    8  A    between atoms: C_16  and  N_17
REMARK    9  A    between atoms: C_19  and  C_20
REMARK   10  A    between atoms: N_22  and  C_23
REMARK                            x       y       z     vdW  Elec       q    Type
REMARK                         _______ _______ _______ _____ _____    ______ ____
ROOT
ATOM      1  N   UNL     1       1.467   8.924  18.934  0.00  0.00    +0.000 NA
ATOM      2  C   UNL     1       2.520   8.817  17.945  0.00  0.00    +0.000 C 
ATOM      3  C   UNL     1       2.957   7.423  17.539  0.00  0.00    +0.000 C 
ATOM      4  C   UNL     1       3.161   6.422  18.675  0.00  0.00    +0.000 C 
ATOM      5  C   UNL     1       2.096   6.563  19.769  0.00  0.00    +0.000 C 
ATOM      6  C   UNL     1       1.475   7.948  20.021  0.00  0.00    +0.000 C 
ENDROOT
BRANCH   1   7
ATOM      7  C   UNL     1       1.320  10.356  19.404  0.00  0.00    +0.000 C 
BRANCH   7  13
ATOM      8  C   UNL     1      -1.065  11.328  19.755  0.00  0.00    +0.000 A 
ATOM      9  C   UNL     1      -1.864  11.989  20.686  0.00  0.00    +0.000 A 
ATOM     10  C   UNL     1      -1.593  11.898  22.067  0.00  0.00    +0.000 A 
ATOM     11  C   UNL     1      -0.588  11.068  22.549  0.00  0.00    +0.000 A 
ATOM     12  C   UNL     1       0.208  10.392  21.633  0.00  0.00    +0.000 A 
ATOM     13  C   UNL     1       0.063  10.619  20.247  0.00  0.00    +0.000 A 
BRANCH   8  14
ATOM     14  O   UNL     1      -1.294  11.332  18.398  0.00  0.00    +0.000 OA
BRANCH  14  16
ATOM     15  C   UNL     1      -2.475  11.211  16.307  0.00  0.00    +0.000 C 
ATOM     16  C   UNL     1      -2.591  11.012  17.826  0.00  0.00    +0.000 C 
ATOM     17  C   UNL     1      -3.027   9.552  18.021  0.00  0.00    +0.000 C 
ENDBRANCH  14  16
ENDBRANCH   8  14
ENDBRANCH   7  13
ENDBRANCH   1   7
BRANCH   4  18
ATOM     18  C   UNL     1       4.607   6.333  19.230  0.00  0.00    +0.000 C 
BRANCH  18  19
ATOM     19  N   UNL     1       5.500   5.517  18.398  0.00  0.00    +0.000 N 
ATOM     20  C   UNL     1       5.289   5.310  16.978  0.00  0.00    +0.000 C 
ATOM     21  C   UNL     1       6.423   4.364  16.574  0.00  0.00    +0.000 C 
ATOM     22  C   UNL     1       7.538   4.758  17.535  0.00  0.00    +0.000 C 
ATOM     23  C   UNL     1       6.779   5.141  18.783  0.00  0.00    +0.000 C 
ATOM     24  O   UNL     1       7.252   5.178  19.906  0.00  0.00    +0.000 OA
BRANCH  21  25
ATOM     25  C   UNL     1       6.741   4.498  15.096  0.00  0.00    +0.000 C 
ATOM     26  O   UNL     1       7.399   5.440  14.662  0.00  0.00    +0.000 OA
ATOM     27  N   UNL     1       6.134   3.566  14.273  0.00  0.00    +0.000 N 
ATOM     28  H   UNL     1       5.512   2.870  14.666  0.00  0.00    +0.000 HD
BRANCH  27  29
ATOM     29  C   UNL     1       6.164   3.703  12.848  0.00  0.00    +0.000 C 
ATOM     30  C   UNL     1       6.204   2.495  11.952  0.00  0.00    +0.000 C 
ATOM     31  C   UNL     1       4.973   3.355  11.994  0.00  0.00    +0.000 C 
ENDBRANCH  27  29
ENDBRANCH  21  25
ENDBRANCH  18  19
ENDBRANCH   4  18
TORSDOF 8
ENDMDL
MODEL 5
REMARK VINA RESULT:      -7.5      1.850      2.503
REMARK  Name = 
REMARK  10 active torsions:
REMARK  status: ('A' for Active; 'I' for Inactive)
REMARK    1  A    between atoms: C_1  and  C_2
REMARK    2  A    between atoms: C_2  and  C_3
REMARK    3  A    between atoms: C_2  and  O_4
REMARK    4  A    between atoms: O_4  and  C_5
REMARK    5  A    between atoms: C_10  and  C_11
REMARK    6  A    between atoms: C_11  and  N_12
REMARK    7  A    between atoms: C_15  and  C_16
REMARK    8  A    between atoms: C_16  and  N_17
REMARK    9  A    between atoms: C_19  and  C_20
REMARK   10  A    between atoms: N_22  and  C_23
REMARK                            x       y       z     vdW  Elec       q    Type
REMARK                         _______ _______ _______ _____ _____    ______ ____
ROOT
ATOM      1  N   UNL     1       1.295   8.713  19.203  0.00  0.00    +0.000 NA
ATOM      2  C   UNL     1       2.109   8.713  18.005  0.00  0.00    +0.000 C 
ATOM      3  C   UNL     1       2.615   7.374  17.505  0.00  0.00    +0.000 C 
ATOM      4  C   UNL     1       3.186   6.431  18.563  0.00  0.00    +0.000 C 
ATOM      5  C   UNL     1       2.379   6.466  19.866  0.00  0.00    +0.000 C 
ATOM      6  C   UNL     1       1.663   7.770  20.257  0.00  0.00    +0.000 C 
ENDROOT
BRANCH   1   7
ATOM      7  C   UNL     1       1.080  10.128  19.701  0.00  0.00    +0.000 C 
BRANCH   7  13
ATOM      8  C   UNL     1      -0.603  12.100  19.515  0.00  0.00    +0.000 A 
ATOM      9  C   UNL     1      -1.943  12.391  19.267  0.00  0.00    +0.000 A 
ATOM     10  C   UNL     1      -2.750  11.505  18.523  0.00  0.00    +0.000 A 
ATOM     11  C   UNL     1      -2.212  10.370  17.929  0.00  0.00    +0.000 A 
ATOM     12  C   UNL     1      -0.874  10.074  18.157  0.00  0.00    +0.000 A 
ATOM     13  C   UNL     1      -0.106  10.854  19.049  0.00  0.00    +0.000 A 
BRANCH   8  14
ATOM     14  O   UNL     1       0.258  12.935  20.192  0.00  0.00    +0.000 OA
BRANCH  14  16
ATOM     15  C   UNL     1       0.975  14.976  19.142  0.00  0.00    +0.000 C 
ATOM     16  C   UNL     1       1.403  13.559  19.551  0.00  0.00    +0.000 C 
ATOM     17  C   UNL     1       2.621  13.742  20.470  0.00  0.00    +0.000 C 
ENDBRANCH  14  16
ENDBRANCH   8  14
ENDBRANCH   7  13
ENDBRANCH   1   7
BRANCH   4  18
ATOM     18  C   UNL     1       4.719   6.531  18.783  0.00  0.00    +0.000 C 
BRANCH  18  19
ATOM     19  N   UNL     1       5.488   5.597  17.952  0.00  0.00    +0.000 N 
ATOM     20  C   UNL     1       5.242   5.410  16.535  0.00  0.00    +0.000 C 
ATOM     21  C   UNL     1       6.235   4.318  16.132  0.00  0.00    +0.000 C 
ATOM     22  C   UNL     1       7.399   4.564  17.084  0.00  0.00    +0.000 C 
ATOM     23  C   UNL     1       6.707   5.053  18.333  0.00  0.00    +0.000 C 
ATOM     24  O   UNL     1       7.188   5.033  19.453  0.00  0.00    +0.000 OA
BRANCH  21  25
ATOM     25  C   UNL     1       6.558   4.398  14.651  0.00  0.00    +0.000 C 
ATOM     26  O   UNL     1       7.075   5.398  14.159  0.00  0.00    +0.000 OA
ATOM     27  N   UNL     1       6.117   3.331  13.890  0.00  0.00    +0.000 N 
ATOM     28  H   UNL     1       5.599   2.576  14.324  0.00  0.00    +0.000 HD
BRANCH  27  29
ATOM     29  C   UNL     1       6.154   3.375  12.459  0.00  0.00    +0.000 C 
ATOM     30  C   UNL     1       5.687   2.206  11.634  0.00  0.00    +0.000 C 
ATOM     31  C   UNL     1       4.896   3.483  11.637  0.00  0.00    +0.000 C 
ENDBRANCH  27  29
ENDBRANCH  21  25
ENDBRANCH  18  19
ENDBRANCH   4  18
TORSDOF 8
ENDMDL
MODEL 6
REMARK VINA RESULT:      -7.4      3.771      9.406
REMARK  Name = 
REMARK  10 active torsions:
REMARK  status: ('A' for Active; 'I' for Inactive)
REMARK    1  A    between atoms: C_1  and  C_2
REMARK    2  A    between atoms: C_2  and  C_3
REMARK    3  A    between atoms: C_2  and  O_4
REMARK    4  A    between atoms: O_4  and  C_5
REMARK    5  A    between atoms: C_10  and  C_11
REMARK    6  A    between atoms: C_11  and  N_12
REMARK    7  A    between atoms: C_15  and  C_16
REMARK    8  A    between atoms: C_16  and  N_17
REMARK    9  A    between atoms: C_19  and  C_20
REMARK   10  A    between atoms: N_22  and  C_23
REMARK                            x       y       z     vdW  Elec       q    Type
REMARK                         _______ _______ _______ _____ _____    ______ ____
ROOT
ATOM      1  N   UNL     1       2.395   7.083  18.772  0.00  0.00    +0.000 NA
ATOM      2  C   UNL     1       1.905   8.276  18.111  0.00  0.00    +0.000 C 
ATOM      3  C   UNL     1       1.754   9.528  18.951  0.00  0.00    +0.000 C 
ATOM      4  C   UNL     1       1.102   9.346  20.321  0.00  0.00    +0.000 C 
ATOM      5  C   UNL     1       1.554   8.054  21.011  0.00  0.00    +0.000 C 
ATOM      6  C   UNL     1       1.938   6.846  20.139  0.00  0.00    +0.000 C 
ENDROOT
BRANCH   1   7
ATOM      7  C   UNL     1       2.256   5.877  17.866  0.00  0.00    +0.000 C 
BRANCH   7  13
ATOM      8  C   UNL     1       3.883   4.055  18.756  0.00  0.00    +0.000 A 
ATOM      9  C   UNL     1       4.058   2.675  18.842  0.00  0.00    +0.000 A 
ATOM     10  C   UNL     1       2.953   1.801  18.791  0.00  0.00    +0.000 A 
ATOM     11  C   UNL     1       1.652   2.288  18.758  0.00  0.00    +0.000 A 
ATOM     12  C   UNL     1       1.461   3.662  18.685  0.00  0.00    +0.000 A 
ATOM     13  C   UNL     1       2.562   4.535  18.550  0.00  0.00    +0.000 A 
BRANCH   8  14
ATOM     14  O   UNL     1       4.906   4.972  18.845  0.00  0.00    +0.000 OA
BRANCH  14  16
ATOM     15  C   UNL     1       5.817   5.457  16.673  0.00  0.00    +0.000 C 
ATOM     16  C   UNL     1       6.121   4.862  18.056  0.00  0.00    +0.000 C 
ATOM     17  C   UNL     1       7.308   5.670  18.604  0.00  0.00    +0.000 C 
ENDBRANCH  14  16
ENDBRANCH   8  14
ENDBRANCH   7  13
ENDBRANCH   1   7
BRANCH   4  18
ATOM     18  C   UNL     1      -0.435   9.561  20.358  0.00  0.00    +0.000 C 
BRANCH  18  19
ATOM     19  N   UNL     1      -0.916  10.500  19.337  0.00  0.00    +0.000 N 
ATOM     20  C   UNL     1      -1.879  10.134  18.316  0.00  0.00    +0.000 C 
ATOM     21  C   UNL     1      -2.016  11.404  17.472  0.00  0.00    +0.000 C 
ATOM     22  C   UNL     1      -1.774  12.506  18.495  0.00  0.00    +0.000 C 
ATOM     23  C   UNL     1      -0.768  11.877  19.429  0.00  0.00    +0.000 C 
ATOM     24  O   UNL     1      -0.025  12.490  20.175  0.00  0.00    +0.000 OA
BRANCH  21  25
ATOM     25  C   UNL     1      -3.356  11.440  16.761  0.00  0.00    +0.000 C 
ATOM     26  O   UNL     1      -3.446  11.269  15.547  0.00  0.00    +0.000 OA
ATOM     27  N   UNL     1      -4.435  11.801  17.548  0.00  0.00    +0.000 N 
ATOM     28  H   UNL     1      -4.296  12.038  18.523  0.00  0.00    +0.000 HD
BRANCH  27  29
ATOM     29  C   UNL     1      -5.712  12.090  16.968  0.00  0.00    +0.000 C 
ATOM     30  C   UNL     1      -6.958  12.123  17.812  0.00  0.00    +0.000 C 
ATOM     31  C   UNL     1      -6.420  13.396  17.224  0.00  0.00    +0.000 C 
ENDBRANCH  27  29
ENDBRANCH  21  25
ENDBRANCH  18  19
ENDBRANCH   4  18
TORSDOF 8
ENDMDL
MODEL 7
REMARK VINA RESULT:      -7.2      3.423     10.870
REMARK  Name = 
REMARK  10 active torsions:
REMARK  status: ('A' for Active; 'I' for Inactive)
REMARK    1  A    between atoms: C_1  and  C_2
REMARK    2  A    between atoms: C_2  and  C_3
REMARK    3  A    between atoms: C_2  and  O_4
REMARK    4  A    between atoms: O_4  and  C_5
REMARK    5  A    between atoms: C_10  and  C_11
REMARK    6  A    between atoms: C_11  and  N_12
REMARK    7  A    between atoms: C_15  and  C_16
REMARK    8  A    between atoms: C_16  and  N_17
REMARK    9  A    between atoms: C_19  and  C_20
REMARK   10  A    between atoms: N_22  and  C_23
REMARK                            x       y       z     vdW  Elec       q    Type
REMARK                         _______ _______ _______ _____ _____    ______ ____
ROOT
ATOM      1  N   UNL     1       2.294   7.612  18.805  0.00  0.00    +0.000 NA
ATOM      2  C   UNL     1       1.886   7.634  20.195  0.00  0.00    +0.000 C 
ATOM      3  C   UNL     1       0.583   8.333  20.528  0.00  0.00    +0.000 C 
ATOM      4  C   UNL     1       0.355   9.689  19.862  0.00  0.00    +0.000 C 
ATOM      5  C   UNL     1       0.844   9.710  18.409  0.00  0.00    +0.000 C 
ATOM      6  C   UNL     1       2.029   8.811  18.015  0.00  0.00    +0.000 C 
ENDROOT
BRANCH   1   7
ATOM      7  C   UNL     1       3.715   7.100  18.675  0.00  0.00    +0.000 C 
BRANCH   7  13
ATOM      8  C   UNL     1       3.605   4.719  17.641  0.00  0.00    +0.000 A 
ATOM      9  C   UNL     1       4.312   3.829  16.833  0.00  0.00    +0.000 A 
ATOM     10  C   UNL     1       5.259   4.297  15.898  0.00  0.00    +0.000 A 
ATOM     11  C   UNL     1       5.442   5.657  15.679  0.00  0.00    +0.000 A 
ATOM     12  C   UNL     1       4.734   6.555  16.468  0.00  0.00    +0.000 A 
ATOM     13  C   UNL     1       3.923   6.098  17.529  0.00  0.00    +0.000 A 
BRANCH   8  14
ATOM     14  O   UNL     1       2.634   4.341  18.541  0.00  0.00    +0.000 OA
BRANCH  14  16
ATOM     15  C   UNL     1       2.754   2.793  20.377  0.00  0.00    +0.000 C 
ATOM     16  C   UNL     1       2.395   2.952  18.892  0.00  0.00    +0.000 C 
ATOM     17  C   UNL     1       0.928   2.511  18.770  0.00  0.00    +0.000 C 
ENDBRANCH  14  16
ENDBRANCH   8  14
ENDBRANCH   7  13
ENDBRANCH   1   7
BRANCH   4  18
ATOM     18  C   UNL     1       0.818  10.920  20.687  0.00  0.00    +0.000 C 
BRANCH  18  19
ATOM     19  N   UNL     1      -0.209  11.422  21.608  0.00  0.00    +0.000 N 
ATOM     20  C   UNL     1      -1.254  12.342  21.203  0.00  0.00    +0.000 C 
ATOM     21  C   UNL     1      -2.026  12.612  22.497  0.00  0.00    +0.000 C 
ATOM     22  C   UNL     1      -1.866  11.300  23.254  0.00  0.00    +0.000 C 
ATOM     23  C   UNL     1      -0.489  10.842  22.837  0.00  0.00    +0.000 C 
ATOM     24  O   UNL     1       0.200  10.045  23.450  0.00  0.00    +0.000 OA
BRANCH  21  25
ATOM     25  C   UNL     1      -3.451  13.039  22.200  0.00  0.00    +0.000 C 
ATOM     26  O   UNL     1      -4.052  12.631  21.208  0.00  0.00    +0.000 OA
ATOM     27  N   UNL     1      -3.968  14.005  23.044  0.00  0.00    +0.000 N 
ATOM     28  H   UNL     1      -3.397  14.391  23.785  0.00  0.00    +0.000 HD
BRANCH  27  29
ATOM     29  C   UNL     1      -5.209  14.658  22.752  0.00  0.00    +0.000 C 
ATOM     30  C   UNL     1      -6.503  14.164  23.339  0.00  0.00    +0.000 C 
ATOM     31  C   UNL     1      -5.933  15.480  23.786  0.00  0.00    +0.000 C 
ENDBRANCH  27  29
ENDBRANCH  21  25
ENDBRANCH  18  19
ENDBRANCH   4  18
TORSDOF 8
ENDMDL
MODEL 8
REMARK VINA RESULT:      -7.2      3.801     11.010
REMARK  Name = 
REMARK  10 active torsions:
REMARK  status: ('A' for Active; 'I' for Inactive)
REMARK    1  A    between atoms: C_1  and  C_2
REMARK    2  A    between atoms: C_2  and  C_3
REMARK    3  A    between atoms: C_2  and  O_4
REMARK    4  A    between atoms: O_4  and  C_5
REMARK    5  A    between atoms: C_10  and  C_11
REMARK    6  A    between atoms: C_11  and  N_12
REMARK    7  A    between atoms: C_15  and  C_16
REMARK    8  A    between atoms: C_16  and  N_17
REMARK    9  A    between atoms: C_19  and  C_20
REMARK   10  A    between atoms: N_22  and  C_23
REMARK                            x       y       z     vdW  Elec       q    Type
REMARK                         _______ _______ _______ _____ _____    ______ ____
ROOT
ATOM      1  N   UNL     1       1.213   7.912  20.022  0.00  0.00    +0.000 NA
ATOM      2  C   UNL     1       0.624   8.014  21.341  0.00  0.00    +0.000 C 
ATOM      3  C   UNL     1      -0.556   8.950  21.509  0.00  0.00    +0.000 C 
ATOM      4  C   UNL     1      -0.426  10.324  20.853  0.00  0.00    +0.000 C 
ATOM      5  C   UNL     1       0.259  10.250  19.483  0.00  0.00    +0.000 C 
ATOM      6  C   UNL     1       1.295   9.140  19.234  0.00  0.00    +0.000 C 
ENDROOT
BRANCH   1   7
ATOM      7  C   UNL     1       2.514   7.138  20.077  0.00  0.00    +0.000 C 
BRANCH   7  13
ATOM      8  C   UNL     1       2.533   5.168  18.382  0.00  0.00    +0.000 A 
ATOM      9  C   UNL     1       1.870   3.988  18.049  0.00  0.00    +0.000 A 
ATOM     10  C   UNL     1       1.133   3.275  19.017  0.00  0.00    +0.000 A 
ATOM     11  C   UNL     1       1.128   3.667  20.351  0.00  0.00    +0.000 A 
ATOM     12  C   UNL     1       1.797   4.835  20.699  0.00  0.00    +0.000 A 
ATOM     13  C   UNL     1       2.382   5.652  19.708  0.00  0.00    +0.000 A 
BRANCH   8  14
ATOM     14  O   UNL     1       3.309   5.893  17.505  0.00  0.00    +0.000 OA
BRANCH  14  16
ATOM     15  C   UNL     1       5.214   6.513  16.175  0.00  0.00    +0.000 C 
ATOM     16  C   UNL     1       4.520   5.355  16.909  0.00  0.00    +0.000 C 
ATOM     17  C   UNL     1       5.548   4.833  17.925  0.00  0.00    +0.000 C 
ENDBRANCH  14  16
ENDBRANCH   8  14
ENDBRANCH   7  13
ENDBRANCH   1   7
BRANCH   4  18
ATOM     18  C   UNL     1       0.141  11.443  21.766  0.00  0.00    +0.000 C 
BRANCH  18  19
ATOM     19  N   UNL     1      -0.882  12.385  22.236  0.00  0.00    +0.000 N 
ATOM     20  C   UNL     1      -2.236  11.983  22.566  0.00  0.00    +0.000 C 
ATOM     21  C   UNL     1      -2.926  13.297  22.941  0.00  0.00    +0.000 C 
ATOM     22  C   UNL     1      -1.783  14.112  23.532  0.00  0.00    +0.000 C 
ATOM     23  C   UNL     1      -0.596  13.654  22.719  0.00  0.00    +0.000 C 
ATOM     24  O   UNL     1       0.446  14.274  22.590  0.00  0.00    +0.000 OA
BRANCH  21  25
ATOM     25  C   UNL     1      -4.107  13.046  23.860  0.00  0.00    +0.000 C 
ATOM     26  O   UNL     1      -3.951  12.704  25.030  0.00  0.00    +0.000 OA
ATOM     27  N   UNL     1      -5.351  13.105  23.256  0.00  0.00    +0.000 N 
ATOM     28  H   UNL     1      -5.425  13.286  22.263  0.00  0.00    +0.000 HD
BRANCH  27  29
ATOM     29  C   UNL     1      -6.531  12.675  23.944  0.00  0.00    +0.000 C 
ATOM     30  C   UNL     1      -7.597  13.658  24.346  0.00  0.00    +0.000 C 
ATOM     31  C   UNL     1      -7.876  12.650  23.268  0.00  0.00    +0.000 C 
ENDBRANCH  27  29
ENDBRANCH  21  25
ENDBRANCH  18  19
ENDBRANCH   4  18
TORSDOF 8
ENDMDL
MODEL 9
REMARK VINA RESULT:      -7.2      3.223     10.438
REMARK  Name = 
REMARK  10 active torsions:
REMARK  status: ('A' for Active; 'I' for Inactive)
REMARK    1  A    between atoms: C_1  and  C_2
REMARK    2  A    between atoms: C_2  and  C_3
REMARK    3  A    between atoms: C_2  and  O_4
REMARK    4  A    between atoms: O_4  and  C_5
REMARK    5  A    between atoms: C_10  and  C_11
REMARK    6  A    between atoms: C_11  and  N_12
REMARK    7  A    between atoms: C_15  and  C_16
REMARK    8  A    between atoms: C_16  and  N_17
REMARK    9  A    between atoms: C_19  and  C_20
REMARK   10  A    between atoms: N_22  and  C_23
REMARK                            x       y       z     vdW  Elec       q    Type
REMARK                         _______ _______ _______ _____ _____    ______ ____
ROOT
ATOM      1  N   UNL     1       2.472   7.531  18.678  0.00  0.00    +0.000 NA
ATOM      2  C   UNL     1       1.805   8.636  18.019  0.00  0.00    +0.000 C 
ATOM      3  C   UNL     1       1.576   9.896  18.829  0.00  0.00    +0.000 C 
ATOM      4  C   UNL     1       1.047   9.699  20.249  0.00  0.00    +0.000 C 
ATOM      5  C   UNL     1       1.689   8.492  20.943  0.00  0.00    +0.000 C 
ATOM      6  C   UNL     1       2.143   7.300  20.083  0.00  0.00    +0.000 C 
ENDROOT
BRANCH   1   7
ATOM      7  C   UNL     1       2.404   6.281  17.824  0.00  0.00    +0.000 C 
BRANCH   7  13
ATOM      8  C   UNL     1       3.993   4.552  18.938  0.00  0.00    +0.000 A 
ATOM      9  C   UNL     1       4.201   3.182  19.096  0.00  0.00    +0.000 A 
ATOM     10  C   UNL     1       3.133   2.270  18.977  0.00  0.00    +0.000 A 
ATOM     11  C   UNL     1       1.826   2.711  18.802  0.00  0.00    +0.000 A 
ATOM     12  C   UNL     1       1.602   4.074  18.655  0.00  0.00    +0.000 A 
ATOM     13  C   UNL     1       2.684   4.978  18.589  0.00  0.00    +0.000 A 
BRANCH   8  14
ATOM     14  O   UNL     1       4.975   5.505  19.084  0.00  0.00    +0.000 OA
BRANCH  14  16
ATOM     15  C   UNL     1       6.054   6.693  17.293  0.00  0.00    +0.000 C 
ATOM     16  C   UNL     1       6.179   5.515  18.271  0.00  0.00    +0.000 C 
ATOM     17  C   UNL     1       7.474   5.766  19.059  0.00  0.00    +0.000 C 
ENDBRANCH  14  16
ENDBRANCH   8  14
ENDBRANCH   7  13
ENDBRANCH   1   7
BRANCH   4  18
ATOM     18  C   UNL     1      -0.497   9.745  20.395  0.00  0.00    +0.000 C 
BRANCH  18  19
ATOM     19  N   UNL     1      -0.968  10.843  21.248  0.00  0.00    +0.000 N 
ATOM     20  C   UNL     1      -1.938  11.828  20.808  0.00  0.00    +0.000 C 
ATOM     21  C   UNL     1      -2.061  12.778  22.002  0.00  0.00    +0.000 C 
ATOM     22  C   UNL     1      -1.801  11.855  23.185  0.00  0.00    +0.000 C 
ATOM     23  C   UNL     1      -0.802  10.872  22.626  0.00  0.00    +0.000 C 
ATOM     24  O   UNL     1      -0.049  10.182  23.292  0.00  0.00    +0.000 OA
BRANCH  21  25
ATOM     25  C   UNL     1      -3.402  13.488  21.994  0.00  0.00    +0.000 C 
ATOM     26  O   UNL     1      -3.493  14.689  21.752  0.00  0.00    +0.000 OA
ATOM     27  N   UNL     1      -4.480  12.722  22.399  0.00  0.00    +0.000 N 
ATOM     28  H   UNL     1      -4.340  11.763  22.692  0.00  0.00    +0.000 HD
BRANCH  27  29
ATOM     29  C   UNL     1      -5.759  13.315  22.651  0.00  0.00    +0.000 C 
ATOM     30  C   UNL     1      -7.030  12.535  22.453  0.00  0.00    +0.000 C 
ATOM     31  C   UNL     1      -6.595  12.917  23.839  0.00  0.00    +0.000 C 
ENDBRANCH  27  29
ENDBRANCH  21  25
ENDBRANCH  18  19
ENDBRANCH   4  18
TORSDOF 8
ENDMDL
