MODEL 1
REMARK VINA RESULT:      -8.7      0.000      0.000
REMARK  Name = 
REMARK  7 active torsions:
REMARK  status: ('A' for Active; 'I' for Inactive)
REMARK    1  A    between atoms: C_1  and  O_2
REMARK    2  A    between atoms: O_2  and  C_3
REMARK    3  A    between atoms: C_10  and  C_11
REMARK    4  A    between atoms: C_14  and  C_15
REMARK    5  A    between atoms: C_15  and  N_16
REMARK    6  A    between atoms: C_30  and  O_31
REMARK    7  A    between atoms: O_31  and  C_32
REMARK                            x       y       z     vdW  Elec       q    Type
REMARK                         _______ _______ _______ _____ _____    ______ ____
ROOT
ATOM      1  C   UNL     1      -3.393  13.503  22.224  0.00  0.00    +0.000 A 
ATOM      2  C   UNL     1      -2.902  13.260  20.942  0.00  0.00    +0.000 A 
ATOM      3  C   UNL     1      -1.941  12.270  20.704  0.00  0.00    +0.000 A 
ATOM      4  S   UNL     1      -1.428  12.099  19.025  0.00  0.00    +0.000 S 
ATOM      5  C   UNL     1      -0.244  10.797  19.104  0.00  0.00    +0.000 A 
ATOM      6  C   UNL     1       0.333  10.417  17.885  0.00  0.00    +0.000 A 
ATOM      7  C   UNL     1       1.260   9.377  17.808  0.00  0.00    +0.000 A 
ATOM      8  C   UNL     1       1.640   8.680  18.954  0.00  0.00    +0.000 A 
ATOM      9  C   UNL     1       1.077   9.101  20.182  0.00  0.00    +0.000 A 
ATOM     10  C   UNL     1       0.125  10.133  20.266  0.00  0.00    +0.000 A 
ATOM     11  C   UNL     1      -0.478  10.423  21.591  0.00  0.00    +0.000 A 
ATOM     12  O   UNL     1      -0.154   9.745  22.562  0.00  0.00    +0.000 OA
ATOM     13  C   UNL     1      -1.473  11.508  21.764  0.00  0.00    +0.000 A 
ATOM     14  C   UNL     1      -1.968  11.752  23.064  0.00  0.00    +0.000 A 
ATOM     15  C   UNL     1      -2.929  12.749  23.305  0.00  0.00    +0.000 A 
ENDROOT
BRANCH   8  16
ATOM     16  C   UNL     1       2.473   7.463  18.878  0.00  0.00    +0.000 A 
ATOM     17  C   UNL     1       2.638   6.530  19.926  0.00  0.00    +0.000 A 
ATOM     18  C   UNL     1       3.525   5.436  19.800  0.00  0.00    +0.000 A 
ATOM     19  C   UNL     1       4.242   5.236  18.607  0.00  0.00    +0.000 A 
ATOM     20  C   UNL     1       4.107   6.185  17.593  0.00  0.00    +0.000 A 
ATOM     21  C   UNL     1       3.241   7.259  17.726  0.00  0.00    +0.000 A 
BRANCH  19  22
ATOM     22  C   UNL     1       5.239   4.133  18.398  0.00  0.00    +0.000 C 
BRANCH  22  23
ATOM     23  N   UNL     1       6.651   4.439  18.201  0.00  0.00    +0.000 NA
ATOM     24  C   UNL     1       7.236   5.608  18.857  0.00  0.00    +0.000 C 
ATOM     25  C   UNL     1       7.220   6.910  18.035  0.00  0.00    +0.000 C 
ATOM     26  O   UNL     1       7.614   6.749  16.668  0.00  0.00    +0.000 OA
ATOM     27  C   UNL     1       7.071   5.601  16.013  0.00  0.00    +0.000 C 
ATOM     28  C   UNL     1       7.170   4.319  16.845  0.00  0.00    +0.000 C 
ENDBRANCH  22  23
ENDBRANCH  19  22
ENDBRANCH   8  16
BRANCH   1  30
ATOM     29  C   UNL     1      -5.374  14.381  21.224  0.00  0.00    +0.000 C 
ATOM     30  O   UNL     1      -4.380  14.462  22.236  0.00  0.00    +0.000 OA
ENDBRANCH   1  30
BRANCH  15  31
ATOM     31  O   UNL     1      -3.456  13.002  24.533  0.00  0.00    +0.000 OA
ATOM     32  C   UNL     1      -4.638  12.317  24.922  0.00  0.00    +0.000 C 
ENDBRANCH  15  31
TORSDOF 5
ENDMDL
MODEL 2
REMARK VINA RESULT:      -8.6      0.917      1.341
REMARK  Name = 
REMARK  7 active torsions:
REMARK  status: ('A' for Active; 'I' for Inactive)
REMARK    1  A    between atoms: C_1  and  O_2
REMARK    2  A    between atoms: O_2  and  C_3
REMARK    3  A    between atoms: C_10  and  C_11
REMARK    4  A    between atoms: C_14  and  C_15
REMARK    5  A    between atoms: C_15  and  N_16
REMARK    6  A    between atoms: C_30  and  O_31
REMARK    7  A    between atoms: O_31  and  C_32
REMARK                            x       y       z     vdW  Elec       q    Type
REMARK                         _______ _______ _______ _____ _____    ______ ____
ROOT
ATOM      1  C   UNL     1      -3.225  13.987  22.253  0.00  0.00    +0.000 A 
ATOM      2  C   UNL     1      -3.141  13.410  20.986  0.00  0.00    +0.000 A 
ATOM      3  C   UNL     1      -2.121  12.507  20.661  0.00  0.00    +0.000 A 
ATOM      4  S   UNL     1      -2.163  11.877  19.014  0.00  0.00    +0.000 S 
ATOM      5  C   UNL     1      -0.766  10.804  18.966  0.00  0.00    +0.000 A 
ATOM      6  C   UNL     1      -0.553  10.127  17.757  0.00  0.00    +0.000 A 
ATOM      7  C   UNL     1       0.498   9.224  17.601  0.00  0.00    +0.000 A 
ATOM      8  C   UNL     1       1.374   8.967  18.655  0.00  0.00    +0.000 A 
ATOM      9  C   UNL     1       1.168   9.687  19.856  0.00  0.00    +0.000 A 
ATOM     10  C   UNL     1       0.097  10.581  20.029  0.00  0.00    +0.000 A 
ATOM     11  C   UNL     1      -0.086  11.204  21.365  0.00  0.00    +0.000 A 
ATOM     12  O   UNL     1       0.678  10.904  22.279  0.00  0.00    +0.000 OA
ATOM     13  C   UNL     1      -1.178  12.172  21.621  0.00  0.00    +0.000 A 
ATOM     14  C   UNL     1      -1.260  12.754  22.905  0.00  0.00    +0.000 A 
ATOM     15  C   UNL     1      -2.280  13.665  23.231  0.00  0.00    +0.000 A 
ENDROOT
BRANCH   8  16
ATOM     16  C   UNL     1       2.378   7.887  18.580  0.00  0.00    +0.000 A 
ATOM     17  C   UNL     1       3.234   7.653  17.480  0.00  0.00    +0.000 A 
ATOM     18  C   UNL     1       4.107   6.541  17.454  0.00  0.00    +0.000 A 
ATOM     19  C   UNL     1       4.164   5.657  18.546  0.00  0.00    +0.000 A 
ATOM     20  C   UNL     1       3.287   5.870  19.609  0.00  0.00    +0.000 A 
ATOM     21  C   UNL     1       2.428   6.957  19.626  0.00  0.00    +0.000 A 
BRANCH  19  22
ATOM     22  C   UNL     1       5.023   4.426  18.589  0.00  0.00    +0.000 C 
BRANCH  22  23
ATOM     23  N   UNL     1       6.453   4.511  18.315  0.00  0.00    +0.000 NA
ATOM     24  C   UNL     1       7.225   5.632  18.851  0.00  0.00    +0.000 C 
ATOM     25  C   UNL     1       7.352   6.856  17.925  0.00  0.00    +0.000 C 
ATOM     26  O   UNL     1       7.655   6.535  16.563  0.00  0.00    +0.000 OA
ATOM     27  C   UNL     1       6.926   5.430  16.026  0.00  0.00    +0.000 C 
ATOM     28  C   UNL     1       6.885   4.215  16.956  0.00  0.00    +0.000 C 
ENDBRANCH  22  23
ENDBRANCH  19  22
ENDBRANCH   8  16
BRANCH   1  30
ATOM     29  C   UNL     1      -4.786  15.479  21.239  0.00  0.00    +0.000 C 
ATOM     30  O   UNL     1      -4.336  14.786  22.394  0.00  0.00    +0.000 OA
ENDBRANCH   1  30
BRANCH  15  31
ATOM     31  O   UNL     1      -2.417  14.230  24.461  0.00  0.00    +0.000 OA
ATOM     32  C   UNL     1      -1.522  15.266  24.839  0.00  0.00    +0.000 C 
ENDBRANCH  15  31
TORSDOF 5
ENDMDL
MODEL 3
REMARK VINA RESULT:      -8.4      2.220      3.066
REMARK  Name = 
REMARK  7 active torsions:
REMARK  status: ('A' for Active; 'I' for Inactive)
REMARK    1  A    between atoms: C_1  and  O_2
REMARK    2  A    between atoms: O_2  and  C_3
REMARK    3  A    between atoms: C_10  and  C_11
REMARK    4  A    between atoms: C_14  and  C_15
REMARK    5  A    between atoms: C_15  and  N_16
REMARK    6  A    between atoms: C_30  and  O_31
REMARK    7  A    between atoms: O_31  and  C_32
REMARK                            x       y       z     vdW  Elec       q    Type
REMARK                         _______ _______ _______ _____ _____    ______ ____
ROOT
ATOM      1  C   UNL     1      -3.478  14.167  22.489  0.00  0.00    +0.000 A 
ATOM      2  C   UNL     1      -3.194  13.747  21.189  0.00  0.00    +0.000 A 
ATOM      3  C   UNL     1      -2.222  12.773  20.933  0.00  0.00    +0.000 A 
ATOM      4  S   UNL     1      -1.989  12.363  19.233  0.00  0.00    +0.000 S 
ATOM      5  C   UNL     1      -0.722  11.140  19.292  0.00  0.00    +0.000 A 
ATOM      6  C   UNL     1      -0.334  10.598  18.059  0.00  0.00    +0.000 A 
ATOM      7  C   UNL     1       0.635   9.599  17.972  0.00  0.00    +0.000 A 
ATOM      8  C   UNL     1       1.249   9.106  19.123  0.00  0.00    +0.000 A 
ATOM      9  C   UNL     1       0.874   9.690  20.356  0.00  0.00    +0.000 A 
ATOM     10  C   UNL     1      -0.119  10.682  20.454  0.00  0.00    +0.000 A 
ATOM     11  C   UNL     1      -0.508  11.150  21.808  0.00  0.00    +0.000 A 
ATOM     12  O   UNL     1       0.021  10.647  22.796  0.00  0.00    +0.000 OA
ATOM     13  C   UNL     1      -1.531  12.207  21.993  0.00  0.00    +0.000 A 
ATOM     14  C   UNL     1      -1.815  12.630  23.311  0.00  0.00    +0.000 A 
ATOM     15  C   UNL     1      -2.787  13.612  23.569  0.00  0.00    +0.000 A 
ENDROOT
BRANCH   8  16
ATOM     16  C   UNL     1       2.139   7.928  19.080  0.00  0.00    +0.000 A 
ATOM     17  C   UNL     1       2.982   7.590  17.998  0.00  0.00    +0.000 A 
ATOM     18  C   UNL     1       3.737   6.394  18.003  0.00  0.00    +0.000 A 
ATOM     19  C   UNL     1       3.687   5.527  19.109  0.00  0.00    +0.000 A 
ATOM     20  C   UNL     1       2.821   5.846  20.155  0.00  0.00    +0.000 A 
ATOM     21  C   UNL     1       2.078   7.016  20.141  0.00  0.00    +0.000 A 
BRANCH  19  22
ATOM     22  C   UNL     1       4.415   4.216  19.184  0.00  0.00    +0.000 C 
BRANCH  22  23
ATOM     23  N   UNL     1       3.701   2.960  18.993  0.00  0.00    +0.000 NA
ATOM     24  C   UNL     1       2.827   2.796  17.831  0.00  0.00    +0.000 C 
ATOM     25  C   UNL     1       1.350   3.174  18.049  0.00  0.00    +0.000 C 
ATOM     26  O   UNL     1       0.792   2.686  19.275  0.00  0.00    +0.000 OA
ATOM     27  C   UNL     1       1.638   2.818  20.419  0.00  0.00    +0.000 C 
ATOM     28  C   UNL     1       3.079   2.367  20.169  0.00  0.00    +0.000 C 
ENDBRANCH  22  23
ENDBRANCH  19  22
ENDBRANCH   8  16
BRANCH   1  30
ATOM     29  C   UNL     1      -4.407  16.218  21.699  0.00  0.00    +0.000 C 
ATOM     30  O   UNL     1      -4.512  15.074  22.534  0.00  0.00    +0.000 OA
ENDBRANCH   1  30
BRANCH  15  31
ATOM     31  O   UNL     1      -3.116  14.031  24.820  0.00  0.00    +0.000 OA
ATOM     32  C   UNL     1      -2.485  15.193  25.338  0.00  0.00    +0.000 C 
ENDBRANCH  15  31
TORSDOF 5
ENDMDL
MODEL 4
REMARK VINA RESULT:      -8.4      1.652      2.235
REMARK  Name = 
REMARK  7 active torsions:
REMARK  status: ('A' for Active; 'I' for Inactive)
REMARK    1  A    between atoms: C_1  and  O_2
REMARK    2  A    between atoms: O_2  and  C_3
REMARK    3  A    between atoms: C_10  and  C_11
REMARK    4  A    between atoms: C_14  and  C_15
REMARK    5  A    between atoms: C_15  and  N_16
REMARK    6  A    between atoms: C_30  and  O_31
REMARK    7  A    between atoms: O_31  and  C_32
REMARK                            x       y       z     vdW  Elec       q    Type
REMARK                         _______ _______ _______ _____ _____    ______ ____
ROOT
ATOM      1  C   UNL     1      -3.782  14.844  23.379  0.00  0.00    +0.000 A 
ATOM      2  C   UNL     1      -3.818  14.333  22.082  0.00  0.00    +0.000 A 
ATOM      3  C   UNL     1      -2.862  13.415  21.633  0.00  0.00    +0.000 A 
ATOM      4  S   UNL     1      -3.054  12.875  19.964  0.00  0.00    +0.000 S 
ATOM      5  C   UNL     1      -1.707  11.761  19.752  0.00  0.00    +0.000 A 
ATOM      6  C   UNL     1      -1.613  11.142  18.497  0.00  0.00    +0.000 A 
ATOM      7  C   UNL     1      -0.612  10.214  18.213  0.00  0.00    +0.000 A 
ATOM      8  C   UNL     1       0.333   9.872  19.180  0.00  0.00    +0.000 A 
ATOM      9  C   UNL     1       0.248  10.533  20.429  0.00  0.00    +0.000 A 
ATOM     10  C   UNL     1      -0.773  11.453  20.731  0.00  0.00    +0.000 A 
ATOM     11  C   UNL     1      -0.828  12.009  22.106  0.00  0.00    +0.000 A 
ATOM     12  O   UNL     1      -0.008  11.636  22.941  0.00  0.00    +0.000 OA
ATOM     13  C   UNL     1      -1.860  12.998  22.496  0.00  0.00    +0.000 A 
ATOM     14  C   UNL     1      -1.821  13.514  23.811  0.00  0.00    +0.000 A 
ATOM     15  C   UNL     1      -2.777  14.439  24.262  0.00  0.00    +0.000 A 
ENDROOT
BRANCH   8  16
ATOM     16  C   UNL     1       1.287   8.765  18.971  0.00  0.00    +0.000 A 
ATOM     17  C   UNL     1       1.673   7.832  19.960  0.00  0.00    +0.000 A 
ATOM     18  C   UNL     1       2.661   6.855  19.700  0.00  0.00    +0.000 A 
ATOM     19  C   UNL     1       3.261   6.771  18.431  0.00  0.00    +0.000 A 
ATOM     20  C   UNL     1       2.906   7.721  17.474  0.00  0.00    +0.000 A 
ATOM     21  C   UNL     1       1.943   8.682  17.737  0.00  0.00    +0.000 A 
BRANCH  19  22
ATOM     22  C   UNL     1       4.349   5.799  18.077  0.00  0.00    +0.000 C 
BRANCH  22  23
ATOM     23  N   UNL     1       5.482   6.220  17.262  0.00  0.00    +0.000 NA
ATOM     24  C   UNL     1       5.649   5.667  15.918  0.00  0.00    +0.000 C 
ATOM     25  C   UNL     1       6.526   4.404  15.822  0.00  0.00    +0.000 C 
ATOM     26  O   UNL     1       7.737   4.469  16.584  0.00  0.00    +0.000 OA
ATOM     27  C   UNL     1       7.599   5.026  17.893  0.00  0.00    +0.000 C 
ATOM     28  C   UNL     1       6.775   6.316  17.925  0.00  0.00    +0.000 C 
ENDBRANCH  22  23
ENDBRANCH  19  22
ENDBRANCH   8  16
BRANCH   1  30
ATOM     29  C   UNL     1      -4.696  17.048  23.332  0.00  0.00    +0.000 C 
ATOM     30  O   UNL     1      -4.848  15.671  23.648  0.00  0.00    +0.000 OA
ENDBRANCH   1  30
BRANCH  15  31
ATOM     31  O   UNL     1      -2.797  14.942  25.526  0.00  0.00    +0.000 OA
ATOM     32  C   UNL     1      -1.644  15.615  26.011  0.00  0.00    +0.000 C 
ENDBRANCH  15  31
TORSDOF 5
ENDMDL
MODEL 5
REMARK VINA RESULT:      -8.2      2.103      2.782
REMARK  Name = 
REMARK  7 active torsions:
REMARK  status: ('A' for Active; 'I' for Inactive)
REMARK    1  A    between atoms: C_1  and  O_2
REMARK    2  A    between atoms: O_2  and  C_3
REMARK    3  A    between atoms: C_10  and  C_11
REMARK    4  A    between atoms: C_14  and  C_15
REMARK    5  A    between atoms: C_15  and  N_16
REMARK    6  A    between atoms: C_30  and  O_31
REMARK    7  A    between atoms: O_31  and  C_32
REMARK                            x       y       z     vdW  Elec       q    Type
REMARK                         _______ _______ _______ _____ _____    ______ ____
ROOT
ATOM      1  C   UNL     1      -3.257  14.380  22.507  0.00  0.00    +0.000 A 
ATOM      2  C   UNL     1      -2.843  14.056  21.215  0.00  0.00    +0.000 A 
ATOM      3  C   UNL     1      -1.950  13.004  20.978  0.00  0.00    +0.000 A 
ATOM      4  S   UNL     1      -1.529  12.733  19.287  0.00  0.00    +0.000 S 
ATOM      5  C   UNL     1      -0.413  11.373  19.370  0.00  0.00    +0.000 A 
ATOM      6  C   UNL     1       0.082  10.909  18.143  0.00  0.00    +0.000 A 
ATOM      7  C   UNL     1       0.947   9.817  18.070  0.00  0.00    +0.000 A 
ATOM      8  C   UNL     1       1.345   9.149  19.228  0.00  0.00    +0.000 A 
ATOM      9  C   UNL     1       0.866   9.653  20.461  0.00  0.00    +0.000 A 
ATOM     10  C   UNL     1      -0.024  10.739  20.541  0.00  0.00    +0.000 A 
ATOM     11  C   UNL     1      -0.545  11.119  21.879  0.00  0.00    +0.000 A 
ATOM     12  O   UNL     1      -0.211  10.466  22.864  0.00  0.00    +0.000 OA
ATOM     13  C   UNL     1      -1.471  12.264  22.049  0.00  0.00    +0.000 A 
ATOM     14  C   UNL     1      -1.889  12.590  23.358  0.00  0.00    +0.000 A 
ATOM     15  C   UNL     1      -2.781  13.648  23.598  0.00  0.00    +0.000 A 
ENDROOT
BRANCH   8  16
ATOM     16  C   UNL     1       2.107   7.886  19.169  0.00  0.00    +0.000 A 
ATOM     17  C   UNL     1       2.169   6.930  20.207  0.00  0.00    +0.000 A 
ATOM     18  C   UNL     1       2.995   5.787  20.102  0.00  0.00    +0.000 A 
ATOM     19  C   UNL     1       3.751   5.561  18.939  0.00  0.00    +0.000 A 
ATOM     20  C   UNL     1       3.718   6.531  17.936  0.00  0.00    +0.000 A 
ATOM     21  C   UNL     1       2.913   7.653  18.048  0.00  0.00    +0.000 A 
BRANCH  19  22
ATOM     22  C   UNL     1       4.690   4.404  18.756  0.00  0.00    +0.000 C 
BRANCH  22  23
ATOM     23  N   UNL     1       4.173   3.057  18.547  0.00  0.00    +0.000 NA
ATOM     24  C   UNL     1       3.084   2.841  17.595  0.00  0.00    +0.000 C 
ATOM     25  C   UNL     1       1.662   2.895  18.185  0.00  0.00    +0.000 C 
ATOM     26  O   UNL     1       1.510   2.185  19.419  0.00  0.00    +0.000 OA
ATOM     27  C   UNL     1       2.573   2.366  20.356  0.00  0.00    +0.000 C 
ATOM     28  C   UNL     1       3.966   2.237  19.733  0.00  0.00    +0.000 C 
ENDBRANCH  22  23
ENDBRANCH  19  22
ENDBRANCH   8  16
BRANCH   1  30
ATOM     29  C   UNL     1      -5.559  15.010  22.518  0.00  0.00    +0.000 C 
ATOM     30  O   UNL     1      -4.190  15.391  22.521  0.00  0.00    +0.000 OA
ENDBRANCH   1  30
BRANCH  15  31
ATOM     31  O   UNL     1      -3.233  13.982  24.837  0.00  0.00    +0.000 OA
ATOM     32  C   UNL     1      -2.727  15.156  25.454  0.00  0.00    +0.000 C 
ENDBRANCH  15  31
TORSDOF 5
ENDMDL
MODEL 6
REMARK VINA RESULT:      -8.2      2.552      3.587
REMARK  Name = 
REMARK  7 active torsions:
REMARK  status: ('A' for Active; 'I' for Inactive)
REMARK    1  A    between atoms: C_1  and  O_2
REMARK    2  A    between atoms: O_2  and  C_3
REMARK    3  A    between atoms: C_10  and  C_11
REMARK    4  A    between atoms: C_14  and  C_15
REMARK    5  A    between atoms: C_15  and  N_16
REMARK    6  A    between atoms: C_30  and  O_31
REMARK    7  A    between atoms: O_31  and  C_32
REMARK                            x       y       z     vdW  Elec       q    Type
REMARK                         _______ _______ _______ _____ _____    ______ ____
ROOT
ATOM      1  C   UNL     1      -1.978  16.241  21.529  0.00  0.00    +0.000 A 
ATOM      2  C   UNL     1      -1.848  15.077  22.287  0.00  0.00    +0.000 A 
ATOM      3  C   UNL     1      -1.286  13.914  21.747  0.00  0.00    +0.000 A 
ATOM      4  S   UNL     1      -1.201  12.533  22.842  0.00  0.00    +0.000 S 
ATOM      5  C   UNL     1      -0.461  11.283  21.846  0.00  0.00    +0.000 A 
ATOM      6  C   UNL     1      -0.242  10.048  22.472  0.00  0.00    +0.000 A 
ATOM      7  C   UNL     1       0.367   8.987  21.802  0.00  0.00    +0.000 A 
ATOM      8  C   UNL     1       0.780   9.128  20.478  0.00  0.00    +0.000 A 
ATOM      9  C   UNL     1       0.518  10.369  19.848  0.00  0.00    +0.000 A 
ATOM     10  C   UNL     1      -0.075  11.451  20.523  0.00  0.00    +0.000 A 
ATOM     11  C   UNL     1      -0.209  12.739  19.798  0.00  0.00    +0.000 A 
ATOM     12  O   UNL     1       0.220  12.833  18.651  0.00  0.00    +0.000 OA
ATOM     13  C   UNL     1      -0.841  13.920  20.434  0.00  0.00    +0.000 A 
ATOM     14  C   UNL     1      -0.971  15.097  19.663  0.00  0.00    +0.000 A 
ATOM     15  C   UNL     1      -1.540  16.263  20.202  0.00  0.00    +0.000 A 
ENDROOT
BRANCH   8  16
ATOM     16  C   UNL     1       1.588   8.092  19.805  0.00  0.00    +0.000 A 
ATOM     17  C   UNL     1       1.917   6.835  20.361  0.00  0.00    +0.000 A 
ATOM     18  C   UNL     1       2.771   5.934  19.683  0.00  0.00    +0.000 A 
ATOM     19  C   UNL     1       3.287   6.261  18.418  0.00  0.00    +0.000 A 
ATOM     20  C   UNL     1       2.993   7.521  17.894  0.00  0.00    +0.000 A 
ATOM     21  C   UNL     1       2.162   8.402  18.566  0.00  0.00    +0.000 A 
BRANCH  19  22
ATOM     22  C   UNL     1       4.236   5.391  17.645  0.00  0.00    +0.000 C 
BRANCH  22  23
ATOM     23  N   UNL     1       5.418   5.964  17.012  0.00  0.00    +0.000 NA
ATOM     24  C   UNL     1       5.767   5.573  15.647  0.00  0.00    +0.000 C 
ATOM     25  C   UNL     1       6.734   4.380  15.522  0.00  0.00    +0.000 C 
ATOM     26  O   UNL     1       7.849   4.430  16.419  0.00  0.00    +0.000 OA
ATOM     27  C   UNL     1       7.533   4.830  17.755  0.00  0.00    +0.000 C 
ATOM     28  C   UNL     1       6.623   6.059  17.825  0.00  0.00    +0.000 C 
ENDBRANCH  22  23
ENDBRANCH  19  22
ENDBRANCH   8  16
BRANCH   1  30
ATOM     29  C   UNL     1      -1.557  18.067  23.006  0.00  0.00    +0.000 C 
ATOM     30  O   UNL     1      -2.484  17.290  22.261  0.00  0.00    +0.000 OA
ENDBRANCH   1  30
BRANCH  15  31
ATOM     31  O   UNL     1      -1.662  17.428  19.510  0.00  0.00    +0.000 OA
ATOM     32  C   UNL     1      -0.508  18.235  19.324  0.00  0.00    +0.000 C 
ENDBRANCH  15  31
TORSDOF 5
ENDMDL
MODEL 7
REMARK VINA RESULT:      -8.2      2.257      3.244
REMARK  Name = 
REMARK  7 active torsions:
REMARK  status: ('A' for Active; 'I' for Inactive)
REMARK    1  A    between atoms: C_1  and  O_2
REMARK    2  A    between atoms: O_2  and  C_3
REMARK    3  A    between atoms: C_10  and  C_11
REMARK    4  A    between atoms: C_14  and  C_15
REMARK    5  A    between atoms: C_15  and  N_16
REMARK    6  A    between atoms: C_30  and  O_31
REMARK    7  A    between atoms: O_31  and  C_32
REMARK                            x       y       z     vdW  Elec       q    Type
REMARK                         _______ _______ _______ _____ _____    ______ ____
ROOT
ATOM      1  C   UNL     1      -1.727  15.759  21.501  0.00  0.00    +0.000 A 
ATOM      2  C   UNL     1      -1.635  14.546  22.184  0.00  0.00    +0.000 A 
ATOM      3  C   UNL     1      -1.023  13.428  21.605  0.00  0.00    +0.000 A 
ATOM      4  S   UNL     1      -0.998  11.975  22.605  0.00  0.00    +0.000 S 
ATOM      5  C   UNL     1      -0.176  10.803  21.579  0.00  0.00    +0.000 A 
ATOM      6  C   UNL     1       0.015   9.529  22.131  0.00  0.00    +0.000 A 
ATOM      7  C   UNL     1       0.682   8.522  21.434  0.00  0.00    +0.000 A 
ATOM      8  C   UNL     1       1.183   8.758  20.154  0.00  0.00    +0.000 A 
ATOM      9  C   UNL     1       0.949  10.038  19.595  0.00  0.00    +0.000 A 
ATOM     10  C   UNL     1       0.298  11.066  20.301  0.00  0.00    +0.000 A 
ATOM     11  C   UNL     1       0.199  12.401  19.658  0.00  0.00    +0.000 A 
ATOM     12  O   UNL     1       0.704  12.577  18.553  0.00  0.00    +0.000 OA
ATOM     13  C   UNL     1      -0.489  13.529  20.329  0.00  0.00    +0.000 A 
ATOM     14  C   UNL     1      -0.581  14.756  19.635  0.00  0.00    +0.000 A 
ATOM     15  C   UNL     1      -1.200  15.878  20.213  0.00  0.00    +0.000 A 
ENDROOT
BRANCH   8  16
ATOM     16  C   UNL     1       2.048   7.777  19.469  0.00  0.00    +0.000 A 
ATOM     17  C   UNL     1       2.626   7.961  18.193  0.00  0.00    +0.000 A 
ATOM     18  C   UNL     1       3.370   6.932  17.571  0.00  0.00    +0.000 A 
ATOM     19  C   UNL     1       3.579   5.708  18.230  0.00  0.00    +0.000 A 
ATOM     20  C   UNL     1       2.969   5.518  19.470  0.00  0.00    +0.000 A 
ATOM     21  C   UNL     1       2.234   6.527  20.071  0.00  0.00    +0.000 A 
BRANCH  19  22
ATOM     22  C   UNL     1       4.314   4.544  17.630  0.00  0.00    +0.000 C 
BRANCH  22  23
ATOM     23  N   UNL     1       5.768   4.471  17.701  0.00  0.00    +0.000 NA
ATOM     24  C   UNL     1       6.510   5.510  18.415  0.00  0.00    +0.000 C 
ATOM     25  C   UNL     1       6.981   6.700  17.558  0.00  0.00    +0.000 C 
ATOM     26  O   UNL     1       7.558   6.329  16.301  0.00  0.00    +0.000 OA
ATOM     27  C   UNL     1       6.861   5.300  15.596  0.00  0.00    +0.000 C 
ATOM     28  C   UNL     1       6.473   4.110  16.478  0.00  0.00    +0.000 C 
ENDBRANCH  22  23
ENDBRANCH  19  22
ENDBRANCH   8  16
BRANCH   1  30
ATOM     29  C   UNL     1      -3.714  16.804  22.310  0.00  0.00    +0.000 C 
ATOM     30  O   UNL     1      -2.295  16.751  22.267  0.00  0.00    +0.000 OA
ENDBRANCH   1  30
BRANCH  15  31
ATOM     31  O   UNL     1      -1.287  17.087  19.596  0.00  0.00    +0.000 OA
ATOM     32  C   UNL     1      -0.772  17.220  18.280  0.00  0.00    +0.000 C 
ENDBRANCH  15  31
TORSDOF 5
ENDMDL
MODEL 8
REMARK VINA RESULT:      -8.1      2.307      3.465
REMARK  Name = 
REMARK  7 active torsions:
REMARK  status: ('A' for Active; 'I' for Inactive)
REMARK    1  A    between atoms: C_1  and  O_2
REMARK    2  A    between atoms: O_2  and  C_3
REMARK    3  A    between atoms: C_10  and  C_11
REMARK    4  A    between atoms: C_14  and  C_15
REMARK    5  A    between atoms: C_15  and  N_16
REMARK    6  A    between atoms: C_30  and  O_31
REMARK    7  A    between atoms: O_31  and  C_32
REMARK                            x       y       z     vdW  Elec       q    Type
REMARK                         _______ _______ _______ _____ _____    ______ ____
ROOT
ATOM      1  C   UNL     1      -2.599  15.909  22.718  0.00  0.00    +0.000 A 
ATOM      2  C   UNL     1      -2.462  14.610  23.208  0.00  0.00    +0.000 A 
ATOM      3  C   UNL     1      -1.784  13.624  22.483  0.00  0.00    +0.000 A 
ATOM      4  S   UNL     1      -1.708  12.037  23.249  0.00  0.00    +0.000 S 
ATOM      5  C   UNL     1      -0.808  11.076  22.078  0.00  0.00    +0.000 A 
ATOM      6  C   UNL     1      -0.567   9.742  22.435  0.00  0.00    +0.000 A 
ATOM      7  C   UNL     1       0.163   8.885  21.610  0.00  0.00    +0.000 A 
ATOM      8  C   UNL     1       0.678   9.339  20.396  0.00  0.00    +0.000 A 
ATOM      9  C   UNL     1       0.393  10.677  20.034  0.00  0.00    +0.000 A 
ATOM     10  C   UNL     1      -0.321  11.553  20.870  0.00  0.00    +0.000 A 
ATOM     11  C   UNL     1      -0.473  12.966  20.437  0.00  0.00    +0.000 A 
ATOM     12  O   UNL     1       0.046  13.333  19.386  0.00  0.00    +0.000 OA
ATOM     13  C   UNL     1      -1.230  13.945  21.253  0.00  0.00    +0.000 A 
ATOM     14  C   UNL     1      -1.367  15.259  20.753  0.00  0.00    +0.000 A 
ATOM     15  C   UNL     1      -2.052  16.248  21.478  0.00  0.00    +0.000 A 
ENDROOT
BRANCH   8  16
ATOM     16  C   UNL     1       1.604   8.515  19.593  0.00  0.00    +0.000 A 
ATOM     17  C   UNL     1       2.018   8.815  18.276  0.00  0.00    +0.000 A 
ATOM     18  C   UNL     1       2.839   7.925  17.546  0.00  0.00    +0.000 A 
ATOM     19  C   UNL     1       3.289   6.730  18.133  0.00  0.00    +0.000 A 
ATOM     20  C   UNL     1       2.841   6.420  19.417  0.00  0.00    +0.000 A 
ATOM     21  C   UNL     1       2.030   7.292  20.125  0.00  0.00    +0.000 A 
BRANCH  19  22
ATOM     22  C   UNL     1       4.123   5.704  17.421  0.00  0.00    +0.000 C 
BRANCH  22  23
ATOM     23  N   UNL     1       5.313   6.102  16.679  0.00  0.00    +0.000 NA
ATOM     24  C   UNL     1       5.696   5.362  15.477  0.00  0.00    +0.000 C 
ATOM     25  C   UNL     1       6.677   4.194  15.698  0.00  0.00    +0.000 C 
ATOM     26  O   UNL     1       7.771   4.501  16.570  0.00  0.00    +0.000 OA
ATOM     27  C   UNL     1       7.422   5.243  17.741  0.00  0.00    +0.000 C 
ATOM     28  C   UNL     1       6.499   6.432  17.459  0.00  0.00    +0.000 C 
ENDBRANCH  22  23
ENDBRANCH  19  22
ENDBRANCH   8  16
BRANCH   1  30
ATOM     29  C   UNL     1      -3.580  16.197  24.874  0.00  0.00    +0.000 C 
ATOM     30  O   UNL     1      -3.231  16.744  23.610  0.00  0.00    +0.000 OA
ENDBRANCH   1  30
BRANCH  15  31
ATOM     31  O   UNL     1      -2.186  17.533  21.051  0.00  0.00    +0.000 OA
ATOM     32  C   UNL     1      -1.138  18.111  20.286  0.00  0.00    +0.000 C 
ENDBRANCH  15  31
TORSDOF 5
ENDMDL
MODEL 9
REMARK VINA RESULT:      -8.0      3.236      4.734
REMARK  Name = 
REMARK  7 active torsions:
REMARK  status: ('A' for Active; 'I' for Inactive)
REMARK    1  A    between atoms: C_1  and  O_2
REMARK    2  A    between atoms: O_2  and  C_3
REMARK    3  A    between atoms: C_10  and  C_11
REMARK    4  A    between atoms: C_14  and  C_15
REMARK    5  A    between atoms: C_15  and  N_16
REMARK    6  A    between atoms: C_30  and  O_31
REMARK    7  A    between atoms: O_31  and  C_32
REMARK                            x       y       z     vdW  Elec       q    Type
REMARK                         _______ _______ _______ _____ _____    ______ ____
ROOT
ATOM      1  C   UNL     1      -0.742  12.165  21.486  0.00  0.00    +0.000 A 
ATOM      2  C   UNL     1      -0.287  10.900  21.857  0.00  0.00    +0.000 A 
ATOM      3  C   UNL     1       0.412  10.084  20.960  0.00  0.00    +0.000 A 
ATOM      4  S   UNL     1       0.910   8.514  21.594  0.00  0.00    +0.000 S 
ATOM      5  C   UNL     1       1.738   7.780  20.223  0.00  0.00    +0.000 A 
ATOM      6  C   UNL     1       2.276   6.504  20.442  0.00  0.00    +0.000 A 
ATOM      7  C   UNL     1       2.983   5.828  19.448  0.00  0.00    +0.000 A 
ATOM      8  C   UNL     1       3.178   6.411  18.196  0.00  0.00    +0.000 A 
ATOM      9  C   UNL     1       2.596   7.683  17.978  0.00  0.00    +0.000 A 
ATOM     10  C   UNL     1       1.901   8.381  18.983  0.00  0.00    +0.000 A 
ATOM     11  C   UNL     1       1.423   9.753  18.678  0.00  0.00    +0.000 A 
ATOM     12  O   UNL     1       1.666  10.247  17.580  0.00  0.00    +0.000 OA
ATOM     13  C   UNL     1       0.665  10.544  19.677  0.00  0.00    +0.000 A 
ATOM     14  C   UNL     1       0.206  11.824  19.297  0.00  0.00    +0.000 A 
ATOM     15  C   UNL     1      -0.501  12.643  20.195  0.00  0.00    +0.000 A 
ENDROOT
BRANCH   8  16
ATOM     16  C   UNL     1       4.073   5.804  17.191  0.00  0.00    +0.000 A 
ATOM     17  C   UNL     1       4.817   6.525  16.230  0.00  0.00    +0.000 A 
ATOM     18  C   UNL     1       5.583   5.858  15.246  0.00  0.00    +0.000 A 
ATOM     19  C   UNL     1       5.646   4.454  15.225  0.00  0.00    +0.000 A 
ATOM     20  C   UNL     1       4.875   3.749  16.149  0.00  0.00    +0.000 A 
ATOM     21  C   UNL     1       4.120   4.407  17.107  0.00  0.00    +0.000 A 
BRANCH  19  22
ATOM     22  C   UNL     1       6.393   3.660  14.192  0.00  0.00    +0.000 C 
BRANCH  22  23
ATOM     23  N   UNL     1       6.110   3.839  12.773  0.00  0.00    +0.000 NA
ATOM     24  C   UNL     1       5.052   3.051  12.143  0.00  0.00    +0.000 C 
ATOM     25  C   UNL     1       5.499   1.721  11.507  0.00  0.00    +0.000 C 
ATOM     26  O   UNL     1       6.700   1.814  10.732  0.00  0.00    +0.000 OA
ATOM     27  C   UNL     1       7.741   2.597  11.320  0.00  0.00    +0.000 C 
ATOM     28  C   UNL     1       7.256   3.938  11.878  0.00  0.00    +0.000 C 
ENDBRANCH  22  23
ENDBRANCH  19  22
ENDBRANCH   8  16
BRANCH   1  30
ATOM     29  C   UNL     1      -2.748  12.708  22.659  0.00  0.00    +0.000 C 
ATOM     30  O   UNL     1      -1.339  12.836  22.528  0.00  0.00    +0.000 OA
ENDBRANCH   1  30
BRANCH  15  31
ATOM     31  O   UNL     1      -0.939  13.893  19.885  0.00  0.00    +0.000 OA
ATOM     32  C   UNL     1      -0.045  14.789  19.242  0.00  0.00    +0.000 C 
ENDBRANCH  15  31
TORSDOF 5
ENDMDL
