MODEL 1
REMARK VINA RESULT:      -8.0      0.000      0.000
REMARK  Name = 
REMARK  7 active torsions:
REMARK  status: ('A' for Active; 'I' for Inactive)
REMARK    1  A    between atoms: C_1  and  C_2
REMARK    2  A    between atoms: C_2  and  C_12
REMARK    3  A    between atoms: C_3  and  C_4
REMARK    4  A    between atoms: C_7  and  C_8
REMARK    5  A    between atoms: C_8  and  O_9
REMARK    6  A    between atoms: C_18  and  C_19
REMARK    7  A    between atoms: C_18  and  C_20
REMARK                            x       y       z     vdW  Elec       q    Type
REMARK                         _______ _______ _______ _____ _____    ______ ____
ROOT
ATOM      1  C   UNL     1       1.730   8.004  20.243  0.00  0.00    +0.000 C 
ATOM      2  C   UNL     1       2.008   7.960  18.731  0.00  0.00    +0.000 C 
ATOM      3  C   UNL     1       1.609   8.929  17.881  0.00  0.00    +0.000 C 
ENDROOT
BRANCH   2   4
ATOM      4  C   UNL     1       2.547   6.688  18.201  0.00  0.00    +0.000 A 
ATOM      5  C   UNL     1       2.114   5.396  18.067  0.00  0.00    +0.000 A 
ATOM      6  C   UNL     1       3.094   4.236  17.531  0.00  0.00    +0.000 A 
ATOM      7  C   UNL     1       4.428   4.082  17.083  0.00  0.00    +0.000 A 
ATOM      8  C   UNL     1       4.486   5.504  17.338  0.00  0.00    +0.000 A 
ATOM      9  C   UNL     1       3.812   6.711  17.778  0.00  0.00    +0.000 A 
ATOM     10  C   UNL     1       5.797   5.771  17.036  0.00  0.00    +0.000 C 
ATOM     11  C   UNL     1       6.520   4.670  18.487  0.00  0.00    +0.000 C 
ATOM     12  C   UNL     1       5.544   5.430  15.129  0.00  0.00    +0.000 C 
ATOM     13  C   UNL     1       6.698   6.835  16.970  0.00  0.00    +0.000 C 
ATOM     14  C   UNL     1       7.295   5.429  16.532  0.00  0.00    +0.000 C 
ATOM     15  O   UNL     1       6.045   3.975  16.565  0.00  0.00    +0.000 OA
ENDBRANCH   2   4
BRANCH   3  16
ATOM     16  C   UNL     1       1.036  10.211  18.316  0.00  0.00    +0.000 A 
ATOM     17  C   UNL     1      -0.335  10.385  18.518  0.00  0.00    +0.000 A 
ATOM     18  C   UNL     1      -0.830  11.647  18.876  0.00  0.00    +0.000 A 
ATOM     19  C   UNL     1       0.046  12.715  19.142  0.00  0.00    +0.000 A 
ATOM     20  C   UNL     1       1.411  12.530  18.932  0.00  0.00    +0.000 A 
ATOM     21  C   UNL     1       1.886  11.311  18.479  0.00  0.00    +0.000 A 
BRANCH  19  22
ATOM     22  C   UNL     1      -0.497  14.024  19.650  0.00  0.00    +0.000 C 
BRANCH  22  23
ATOM     23  O   UNL     1      -0.677  14.983  18.611  0.00  0.00    +0.000 OA
ATOM     24  H   UNL     1      -1.574  15.346  18.721  0.00  0.00    +0.000 HD
ENDBRANCH  22  23
ENDBRANCH  19  22
ENDBRANCH   3  16
TORSDOF 4
ENDMDL
MODEL 2
REMARK VINA RESULT:      -8.0      0.125      1.011
REMARK  Name = 
REMARK  7 active torsions:
REMARK  status: ('A' for Active; 'I' for Inactive)
REMARK    1  A    between atoms: C_1  and  C_2
REMARK    2  A    between atoms: C_2  and  C_12
REMARK    3  A    between atoms: C_3  and  C_4
REMARK    4  A    between atoms: C_7  and  C_8
REMARK    5  A    between atoms: C_8  and  O_9
REMARK    6  A    between atoms: C_18  and  C_19
REMARK    7  A    between atoms: C_18  and  C_20
REMARK                            x       y       z     vdW  Elec       q    Type
REMARK                         _______ _______ _______ _____ _____    ______ ____
ROOT
ATOM      1  C   UNL     1       1.754   8.001  20.252  0.00  0.00    +0.000 C 
ATOM      2  C   UNL     1       2.005   7.957  18.736  0.00  0.00    +0.000 C 
ATOM      3  C   UNL     1       1.585   8.922  17.892  0.00  0.00    +0.000 C 
ENDROOT
BRANCH   2   4
ATOM      4  C   UNL     1       2.543   6.687  18.198  0.00  0.00    +0.000 A 
ATOM      5  C   UNL     1       2.106   5.398  18.052  0.00  0.00    +0.000 A 
ATOM      6  C   UNL     1       3.084   4.239  17.510  0.00  0.00    +0.000 A 
ATOM      7  C   UNL     1       4.419   4.085  17.066  0.00  0.00    +0.000 A 
ATOM      8  C   UNL     1       4.480   5.504  17.332  0.00  0.00    +0.000 A 
ATOM      9  C   UNL     1       3.809   6.710  17.779  0.00  0.00    +0.000 A 
ATOM     10  C   UNL     1       5.793   5.770  17.037  0.00  0.00    +0.000 C 
ATOM     11  C   UNL     1       6.508   4.655  18.482  0.00  0.00    +0.000 C 
ATOM     12  C   UNL     1       5.546   5.445  15.126  0.00  0.00    +0.000 C 
ATOM     13  C   UNL     1       6.698   6.832  16.983  0.00  0.00    +0.000 C 
ATOM     14  C   UNL     1       7.292   5.428  16.536  0.00  0.00    +0.000 C 
ATOM     15  O   UNL     1       6.038   3.977  16.553  0.00  0.00    +0.000 OA
ENDBRANCH   2   4
BRANCH   3  16
ATOM     16  C   UNL     1       1.012  10.201  18.336  0.00  0.00    +0.000 A 
ATOM     17  C   UNL     1       1.804  11.318  18.610  0.00  0.00    +0.000 A 
ATOM     18  C   UNL     1       1.206  12.493  19.087  0.00  0.00    +0.000 A 
ATOM     19  C   UNL     1      -0.192  12.600  19.187  0.00  0.00    +0.000 A 
ATOM     20  C   UNL     1      -0.971  11.477  18.916  0.00  0.00    +0.000 A 
ATOM     21  C   UNL     1      -0.370  10.287  18.544  0.00  0.00    +0.000 A 
BRANCH  19  22
ATOM     22  C   UNL     1      -0.821  13.912  19.578  0.00  0.00    +0.000 C 
BRANCH  22  23
ATOM     23  O   UNL     1      -0.629  14.926  18.596  0.00  0.00    +0.000 OA
ATOM     24  H   UNL     1      -1.503  15.322  18.430  0.00  0.00    +0.000 HD
ENDBRANCH  22  23
ENDBRANCH  19  22
ENDBRANCH   3  16
TORSDOF 4
ENDMDL
MODEL 3
REMARK VINA RESULT:      -7.7      1.940      3.517
REMARK  Name = 
REMARK  7 active torsions:
REMARK  status: ('A' for Active; 'I' for Inactive)
REMARK    1  A    between atoms: C_1  and  C_2
REMARK    2  A    between atoms: C_2  and  C_12
REMARK    3  A    between atoms: C_3  and  C_4
REMARK    4  A    between atoms: C_7  and  C_8
REMARK    5  A    between atoms: C_8  and  O_9
REMARK    6  A    between atoms: C_18  and  C_19
REMARK    7  A    between atoms: C_18  and  C_20
REMARK                            x       y       z     vdW  Elec       q    Type
REMARK                         _______ _______ _______ _____ _____    ______ ____
ROOT
ATOM      1  C   UNL     1       1.759   8.135  20.323  0.00  0.00    +0.000 C 
ATOM      2  C   UNL     1       2.197   7.956  18.860  0.00  0.00    +0.000 C 
ATOM      3  C   UNL     1       1.951   8.872  17.900  0.00  0.00    +0.000 C 
ENDROOT
BRANCH   2   4
ATOM      4  C   UNL     1       2.715   6.619  18.490  0.00  0.00    +0.000 A 
ATOM      5  C   UNL     1       3.477   6.085  17.486  0.00  0.00    +0.000 A 
ATOM      6  C   UNL     1       3.719   4.497  17.374  0.00  0.00    +0.000 A 
ATOM      7  C   UNL     1       3.371   3.309  18.061  0.00  0.00    +0.000 A 
ATOM      8  C   UNL     1       2.683   4.231  18.936  0.00  0.00    +0.000 A 
ATOM      9  C   UNL     1       2.329   5.601  19.260  0.00  0.00    +0.000 A 
ATOM     10  C   UNL     1       2.100   3.364  19.824  0.00  0.00    +0.000 C 
ATOM     11  C   UNL     1       0.943   2.521  18.484  0.00  0.00    +0.000 C 
ATOM     12  C   UNL     1       3.811   2.833  20.603  0.00  0.00    +0.000 C 
ATOM     13  C   UNL     1       1.305   3.361  20.972  0.00  0.00    +0.000 C 
ATOM     14  C   UNL     1       1.764   1.923  20.476  0.00  0.00    +0.000 C 
ATOM     15  O   UNL     1       2.904   1.925  18.934  0.00  0.00    +0.000 OA
ENDBRANCH   2   4
BRANCH   3  16
ATOM     16  C   UNL     1       1.411  10.212  18.171  0.00  0.00    +0.000 A 
ATOM     17  C   UNL     1       2.223  11.347  18.228  0.00  0.00    +0.000 A 
ATOM     18  C   UNL     1       1.659  12.590  18.548  0.00  0.00    +0.000 A 
ATOM     19  C   UNL     1       0.269  12.731  18.706  0.00  0.00    +0.000 A 
ATOM     20  C   UNL     1      -0.530  11.590  18.652  0.00  0.00    +0.000 A 
ATOM     21  C   UNL     1       0.043  10.349  18.437  0.00  0.00    +0.000 A 
BRANCH  19  22
ATOM     22  C   UNL     1      -0.329  14.095  18.922  0.00  0.00    +0.000 C 
BRANCH  22  23
ATOM     23  O   UNL     1      -1.624  14.039  19.513  0.00  0.00    +0.000 OA
ATOM     24  H   UNL     1      -1.919  13.114  19.451  0.00  0.00    +0.000 HD
ENDBRANCH  22  23
ENDBRANCH  19  22
ENDBRANCH   3  16
TORSDOF 4
ENDMDL
MODEL 4
REMARK VINA RESULT:      -7.6      2.540      3.757
REMARK  Name = 
REMARK  7 active torsions:
REMARK  status: ('A' for Active; 'I' for Inactive)
REMARK    1  A    between atoms: C_1  and  C_2
REMARK    2  A    between atoms: C_2  and  C_12
REMARK    3  A    between atoms: C_3  and  C_4
REMARK    4  A    between atoms: C_7  and  C_8
REMARK    5  A    between atoms: C_8  and  O_9
REMARK    6  A    between atoms: C_18  and  C_19
REMARK    7  A    between atoms: C_18  and  C_20
REMARK                            x       y       z     vdW  Elec       q    Type
REMARK                         _______ _______ _______ _____ _____    ______ ____
ROOT
ATOM      1  C   UNL     1       1.083   9.391  18.136  0.00  0.00    +0.000 C 
ATOM      2  C   UNL     1       1.748   8.399  19.104  0.00  0.00    +0.000 C 
ATOM      3  C   UNL     1       1.685   8.527  20.446  0.00  0.00    +0.000 C 
ENDROOT
BRANCH   2   4
ATOM      4  C   UNL     1       2.658   7.402  18.498  0.00  0.00    +0.000 A 
ATOM      5  C   UNL     1       3.633   7.391  17.538  0.00  0.00    +0.000 A 
ATOM      6  C   UNL     1       4.327   6.017  17.065  0.00  0.00    +0.000 A 
ATOM      7  C   UNL     1       4.267   4.632  17.352  0.00  0.00    +0.000 A 
ATOM      8  C   UNL     1       3.264   5.057  18.303  0.00  0.00    +0.000 A 
ATOM      9  C   UNL     1       2.506   6.139  18.902  0.00  0.00    +0.000 A 
ATOM     10  C   UNL     1       2.869   3.851  18.823  0.00  0.00    +0.000 C 
ATOM     11  C   UNL     1       2.135   3.183  17.133  0.00  0.00    +0.000 C 
ATOM     12  C   UNL     1       4.578   3.552  19.722  0.00  0.00    +0.000 C 
ATOM     13  C   UNL     1       2.002   3.315  19.776  0.00  0.00    +0.000 C 
ATOM     14  C   UNL     1       2.896   2.246  19.015  0.00  0.00    +0.000 C 
ATOM     15  O   UNL     1       4.132   2.983  17.745  0.00  0.00    +0.000 OA
ENDBRANCH   2   4
BRANCH   3  16
ATOM     16  C   UNL     1       0.833   9.507  21.134  0.00  0.00    +0.000 A 
ATOM     17  C   UNL     1       0.782  10.849  20.751  0.00  0.00    +0.000 A 
ATOM     18  C   UNL     1      -0.005  11.750  21.482  0.00  0.00    +0.000 A 
ATOM     19  C   UNL     1      -0.831  11.302  22.528  0.00  0.00    +0.000 A 
ATOM     20  C   UNL     1      -0.767   9.961  22.904  0.00  0.00    +0.000 A 
ATOM     21  C   UNL     1       0.089   9.095  22.246  0.00  0.00    +0.000 A 
BRANCH  19  22
ATOM     22  C   UNL     1      -1.764  12.263  23.215  0.00  0.00    +0.000 C 
BRANCH  22  23
ATOM     23  O   UNL     1      -3.027  11.677  23.522  0.00  0.00    +0.000 OA
ATOM     24  H   UNL     1      -3.270  11.125  22.758  0.00  0.00    +0.000 HD
ENDBRANCH  22  23
ENDBRANCH  19  22
ENDBRANCH   3  16
TORSDOF 4
ENDMDL
MODEL 5
REMARK VINA RESULT:      -7.6      1.615      2.863
REMARK  Name = 
REMARK  7 active torsions:
REMARK  status: ('A' for Active; 'I' for Inactive)
REMARK    1  A    between atoms: C_1  and  C_2
REMARK    2  A    between atoms: C_2  and  C_12
REMARK    3  A    between atoms: C_3  and  C_4
REMARK    4  A    between atoms: C_7  and  C_8
REMARK    5  A    between atoms: C_8  and  O_9
REMARK    6  A    between atoms: C_18  and  C_19
REMARK    7  A    between atoms: C_18  and  C_20
REMARK                            x       y       z     vdW  Elec       q    Type
REMARK                         _______ _______ _______ _____ _____    ______ ____
ROOT
ATOM      1  C   UNL     1       1.483   8.130  20.484  0.00  0.00    +0.000 C 
ATOM      2  C   UNL     1       1.878   8.366  19.017  0.00  0.00    +0.000 C 
ATOM      3  C   UNL     1       1.301   9.308  18.241  0.00  0.00    +0.000 C 
ENDROOT
BRANCH   2   4
ATOM      4  C   UNL     1       2.778   7.359  18.411  0.00  0.00    +0.000 A 
ATOM      5  C   UNL     1       3.751   7.338  17.449  0.00  0.00    +0.000 A 
ATOM      6  C   UNL     1       4.431   5.957  16.977  0.00  0.00    +0.000 A 
ATOM      7  C   UNL     1       4.360   4.573  17.266  0.00  0.00    +0.000 A 
ATOM      8  C   UNL     1       3.362   5.008  18.217  0.00  0.00    +0.000 A 
ATOM      9  C   UNL     1       2.615   6.099  18.816  0.00  0.00    +0.000 A 
ATOM     10  C   UNL     1       2.957   3.807  18.740  0.00  0.00    +0.000 C 
ATOM     11  C   UNL     1       2.214   3.144  17.052  0.00  0.00    +0.000 C 
ATOM     12  C   UNL     1       4.664   3.494  19.637  0.00  0.00    +0.000 C 
ATOM     13  C   UNL     1       2.086   3.280  19.696  0.00  0.00    +0.000 C 
ATOM     14  C   UNL     1       2.970   2.202  18.934  0.00  0.00    +0.000 C 
ATOM     15  O   UNL     1       4.210   2.926  17.662  0.00  0.00    +0.000 OA
ENDBRANCH   2   4
BRANCH   3  16
ATOM     16  C   UNL     1       0.374  10.328  18.750  0.00  0.00    +0.000 A 
ATOM     17  C   UNL     1      -1.000  10.275  18.507  0.00  0.00    +0.000 A 
ATOM     18  C   UNL     1      -1.827  11.308  18.969  0.00  0.00    +0.000 A 
ATOM     19  C   UNL     1      -1.310  12.343  19.768  0.00  0.00    +0.000 A 
ATOM     20  C   UNL     1       0.064  12.388  19.999  0.00  0.00    +0.000 A 
ATOM     21  C   UNL     1       0.892  11.421  19.455  0.00  0.00    +0.000 A 
BRANCH  19  22
ATOM     22  C   UNL     1      -2.236  13.372  20.360  0.00  0.00    +0.000 C 
BRANCH  22  23
ATOM     23  O   UNL     1      -3.520  13.376  19.743  0.00  0.00    +0.000 OA
ATOM     24  H   UNL     1      -4.092  13.939  20.293  0.00  0.00    +0.000 HD
ENDBRANCH  22  23
ENDBRANCH  19  22
ENDBRANCH   3  16
TORSDOF 4
ENDMDL
MODEL 6
REMARK VINA RESULT:      -7.5      1.680      3.067
REMARK  Name = 
REMARK  7 active torsions:
REMARK  status: ('A' for Active; 'I' for Inactive)
REMARK    1  A    between atoms: C_1  and  C_2
REMARK    2  A    between atoms: C_2  and  C_12
REMARK    3  A    between atoms: C_3  and  C_4
REMARK    4  A    between atoms: C_7  and  C_8
REMARK    5  A    between atoms: C_8  and  O_9
REMARK    6  A    between atoms: C_18  and  C_19
REMARK    7  A    between atoms: C_18  and  C_20
REMARK                            x       y       z     vdW  Elec       q    Type
REMARK                         _______ _______ _______ _____ _____    ______ ____
ROOT
ATOM      1  C   UNL     1       1.458   8.092  20.500  0.00  0.00    +0.000 C 
ATOM      2  C   UNL     1       1.870   8.328  19.038  0.00  0.00    +0.000 C 
ATOM      3  C   UNL     1       1.307   9.273  18.257  0.00  0.00    +0.000 C 
ENDROOT
BRANCH   2   4
ATOM      4  C   UNL     1       2.773   7.318  18.441  0.00  0.00    +0.000 A 
ATOM      5  C   UNL     1       3.756   7.294  17.489  0.00  0.00    +0.000 A 
ATOM      6  C   UNL     1       4.436   5.911  17.023  0.00  0.00    +0.000 A 
ATOM      7  C   UNL     1       4.357   4.527  17.311  0.00  0.00    +0.000 A 
ATOM      8  C   UNL     1       3.351   4.965  18.252  0.00  0.00    +0.000 A 
ATOM      9  C   UNL     1       2.602   6.058  18.844  0.00  0.00    +0.000 A 
ATOM     10  C   UNL     1       2.937   3.765  18.771  0.00  0.00    +0.000 C 
ATOM     11  C   UNL     1       2.208   3.105  17.075  0.00  0.00    +0.000 C 
ATOM     12  C   UNL     1       4.633   3.446  19.685  0.00  0.00    +0.000 C 
ATOM     13  C   UNL     1       2.054   3.241  19.717  0.00  0.00    +0.000 C 
ATOM     14  C   UNL     1       2.942   2.160  18.964  0.00  0.00    +0.000 C 
ATOM     15  O   UNL     1       4.197   2.880  17.705  0.00  0.00    +0.000 OA
ENDBRANCH   2   4
BRANCH   3  16
ATOM     16  C   UNL     1       0.378  10.297  18.757  0.00  0.00    +0.000 A 
ATOM     17  C   UNL     1       0.787  11.319  19.615  0.00  0.00    +0.000 A 
ATOM     18  C   UNL     1      -0.156  12.233  20.106  0.00  0.00    +0.000 A 
ATOM     19  C   UNL     1      -1.490  12.202  19.660  0.00  0.00    +0.000 A 
ATOM     20  C   UNL     1      -1.887  11.173  18.808  0.00  0.00    +0.000 A 
ATOM     21  C   UNL     1      -0.975  10.212  18.406  0.00  0.00    +0.000 A 
BRANCH  19  22
ATOM     22  C   UNL     1      -2.456  13.269  20.100  0.00  0.00    +0.000 C 
BRANCH  22  23
ATOM     23  O   UNL     1      -3.793  13.006  19.683  0.00  0.00    +0.000 OA
ATOM     24  H   UNL     1      -4.374  13.513  20.276  0.00  0.00    +0.000 HD
ENDBRANCH  22  23
ENDBRANCH  19  22
ENDBRANCH   3  16
TORSDOF 4
ENDMDL
MODEL 7
REMARK VINA RESULT:      -7.5      1.921      3.356
REMARK  Name = 
REMARK  7 active torsions:
REMARK  status: ('A' for Active; 'I' for Inactive)
REMARK    1  A    between atoms: C_1  and  C_2
REMARK    2  A    between atoms: C_2  and  C_12
REMARK    3  A    between atoms: C_3  and  C_4
REMARK    4  A    between atoms: C_7  and  C_8
REMARK    5  A    between atoms: C_8  and  O_9
REMARK    6  A    between atoms: C_18  and  C_19
REMARK    7  A    between atoms: C_18  and  C_20
REMARK                            x       y       z     vdW  Elec       q    Type
REMARK                         _______ _______ _______ _____ _____    ______ ____
ROOT
ATOM      1  C   UNL     1       1.765   8.157  20.385  0.00  0.00    +0.000 C 
ATOM      2  C   UNL     1       2.136   7.971  18.905  0.00  0.00    +0.000 C 
ATOM      3  C   UNL     1       1.810   8.862  17.946  0.00  0.00    +0.000 C 
ENDROOT
BRANCH   2   4
ATOM      4  C   UNL     1       2.684   6.648  18.529  0.00  0.00    +0.000 A 
ATOM      5  C   UNL     1       3.470   6.139  17.530  0.00  0.00    +0.000 A 
ATOM      6  C   UNL     1       3.743   4.557  17.406  0.00  0.00    +0.000 A 
ATOM      7  C   UNL     1       3.408   3.355  18.075  0.00  0.00    +0.000 A 
ATOM      8  C   UNL     1       2.691   4.255  18.950  0.00  0.00    +0.000 A 
ATOM      9  C   UNL     1       2.307   5.615  19.283  0.00  0.00    +0.000 A 
ATOM     10  C   UNL     1       2.112   3.368  19.821  0.00  0.00    +0.000 C 
ATOM     11  C   UNL     1       0.990   2.518  18.457  0.00  0.00    +0.000 C 
ATOM     12  C   UNL     1       3.822   2.861  20.618  0.00  0.00    +0.000 C 
ATOM     13  C   UNL     1       1.302   3.339  20.957  0.00  0.00    +0.000 C 
ATOM     14  C   UNL     1       1.794   1.914  20.454  0.00  0.00    +0.000 C 
ATOM     15  O   UNL     1       2.955   1.954  18.927  0.00  0.00    +0.000 OA
ENDBRANCH   2   4
BRANCH   3  16
ATOM     16  C   UNL     1       1.235  10.186  18.224  0.00  0.00    +0.000 A 
ATOM     17  C   UNL     1      -0.138  10.384  18.386  0.00  0.00    +0.000 A 
ATOM     18  C   UNL     1      -0.634  11.679  18.592  0.00  0.00    +0.000 A 
ATOM     19  C   UNL     1       0.241  12.769  18.748  0.00  0.00    +0.000 A 
ATOM     20  C   UNL     1       1.608  12.560  18.579  0.00  0.00    +0.000 A 
ATOM     21  C   UNL     1       2.086  11.297  18.274  0.00  0.00    +0.000 A 
BRANCH  19  22
ATOM     22  C   UNL     1      -0.305  14.128  19.095  0.00  0.00    +0.000 C 
BRANCH  22  23
ATOM     23  O   UNL     1       0.721  15.094  19.309  0.00  0.00    +0.000 OA
ATOM     24  H   UNL     1       1.293  14.741  20.013  0.00  0.00    +0.000 HD
ENDBRANCH  22  23
ENDBRANCH  19  22
ENDBRANCH   3  16
TORSDOF 4
ENDMDL
MODEL 8
REMARK VINA RESULT:      -7.5      2.051      2.558
REMARK  Name = 
REMARK  7 active torsions:
REMARK  status: ('A' for Active; 'I' for Inactive)
REMARK    1  A    between atoms: C_1  and  C_2
REMARK    2  A    between atoms: C_2  and  C_12
REMARK    3  A    between atoms: C_3  and  C_4
REMARK    4  A    between atoms: C_7  and  C_8
REMARK    5  A    between atoms: C_8  and  O_9
REMARK    6  A    between atoms: C_18  and  C_19
REMARK    7  A    between atoms: C_18  and  C_20
REMARK                            x       y       z     vdW  Elec       q    Type
REMARK                         _______ _______ _______ _____ _____    ______ ____
ROOT
ATOM      1  C   UNL     1       1.122   5.492  20.707  0.00  0.00    +0.000 C 
ATOM      2  C   UNL     1       2.052   6.237  19.736  0.00  0.00    +0.000 C 
ATOM      3  C   UNL     1       2.047   7.579  19.594  0.00  0.00    +0.000 C 
ENDROOT
BRANCH   2   4
ATOM      4  C   UNL     1       2.818   5.396  18.789  0.00  0.00    +0.000 A 
ATOM      5  C   UNL     1       2.740   4.122  18.294  0.00  0.00    +0.000 A 
ATOM      6  C   UNL     1       3.890   3.525  17.337  0.00  0.00    +0.000 A 
ATOM      7  C   UNL     1       5.112   3.929  16.749  0.00  0.00    +0.000 A 
ATOM      8  C   UNL     1       4.821   5.170  17.431  0.00  0.00    +0.000 A 
ATOM      9  C   UNL     1       3.930   5.934  18.285  0.00  0.00    +0.000 A 
ATOM     10  C   UNL     1       5.931   5.910  17.115  0.00  0.00    +0.000 C 
ATOM     11  C   UNL     1       7.177   4.743  18.078  0.00  0.00    +0.000 C 
ATOM     12  C   UNL     1       5.445   6.040  15.227  0.00  0.00    +0.000 C 
ATOM     13  C   UNL     1       6.477   7.180  17.308  0.00  0.00    +0.000 C 
ATOM     14  C   UNL     1       7.350   6.211  16.400  0.00  0.00    +0.000 C 
ATOM     15  O   UNL     1       6.576   4.485  16.084  0.00  0.00    +0.000 OA
ENDBRANCH   2   4
BRANCH   3  16
ATOM     16  C   UNL     1       1.294   8.489  20.469  0.00  0.00    +0.000 A 
ATOM     17  C   UNL     1       1.503   8.540  21.849  0.00  0.00    +0.000 A 
ATOM     18  C   UNL     1       0.714   9.386  22.640  0.00  0.00    +0.000 A 
ATOM     19  C   UNL     1      -0.211  10.267  22.052  0.00  0.00    +0.000 A 
ATOM     20  C   UNL     1      -0.415  10.202  20.675  0.00  0.00    +0.000 A 
ATOM     21  C   UNL     1       0.294   9.293  19.909  0.00  0.00    +0.000 A 
BRANCH  19  22
ATOM     22  C   UNL     1      -0.956  11.257  22.907  0.00  0.00    +0.000 C 
BRANCH  22  23
ATOM     23  O   UNL     1      -0.368  12.555  22.882  0.00  0.00    +0.000 OA
ATOM     24  H   UNL     1       0.052  12.687  23.750  0.00  0.00    +0.000 HD
ENDBRANCH  22  23
ENDBRANCH  19  22
ENDBRANCH   3  16
TORSDOF 4
ENDMDL
MODEL 9
REMARK VINA RESULT:      -7.4      1.281      1.829
REMARK  Name = 
REMARK  7 active torsions:
REMARK  status: ('A' for Active; 'I' for Inactive)
REMARK    1  A    between atoms: C_1  and  C_2
REMARK    2  A    between atoms: C_2  and  C_12
REMARK    3  A    between atoms: C_3  and  C_4
REMARK    4  A    between atoms: C_7  and  C_8
REMARK    5  A    between atoms: C_8  and  O_9
REMARK    6  A    between atoms: C_18  and  C_19
REMARK    7  A    between atoms: C_18  and  C_20
REMARK                            x       y       z     vdW  Elec       q    Type
REMARK                         _______ _______ _______ _____ _____    ______ ____
ROOT
ATOM      1  C   UNL     1       1.081   8.792  21.407  0.00  0.00    +0.000 C 
ATOM      2  C   UNL     1       1.554   8.249  20.049  0.00  0.00    +0.000 C 
ATOM      3  C   UNL     1       1.414   8.931  18.893  0.00  0.00    +0.000 C 
ENDROOT
BRANCH   2   4
ATOM      4  C   UNL     1       1.980   6.831  20.024  0.00  0.00    +0.000 A 
ATOM      5  C   UNL     1       1.832   5.728  20.821  0.00  0.00    +0.000 A 
ATOM      6  C   UNL     1       2.588   4.347  20.486  0.00  0.00    +0.000 A 
ATOM      7  C   UNL     1       3.464   3.813  19.511  0.00  0.00    +0.000 A 
ATOM      8  C   UNL     1       3.344   5.137  18.941  0.00  0.00    +0.000 A 
ATOM      9  C   UNL     1       2.774   6.469  19.016  0.00  0.00    +0.000 A 
ATOM     10  C   UNL     1       4.190   5.037  17.866  0.00  0.00    +0.000 C 
ATOM     11  C   UNL     1       5.799   4.781  18.956  0.00  0.00    +0.000 C 
ATOM     12  C   UNL     1       3.027   3.782  16.924  0.00  0.00    +0.000 C 
ATOM     13  C   UNL     1       4.659   5.785  16.785  0.00  0.00    +0.000 C 
ATOM     14  C   UNL     1       5.210   4.297  16.854  0.00  0.00    +0.000 C 
ATOM     15  O   UNL     1       4.523   3.247  18.305  0.00  0.00    +0.000 OA
ENDBRANCH   2   4
BRANCH   3  16
ATOM     16  C   UNL     1       0.970  10.330  18.821  0.00  0.00    +0.000 A 
ATOM     17  C   UNL     1      -0.379  10.688  18.873  0.00  0.00    +0.000 A 
ATOM     18  C   UNL     1      -0.746  12.035  18.740  0.00  0.00    +0.000 A 
ATOM     19  C   UNL     1       0.231  13.044  18.665  0.00  0.00    +0.000 A 
ATOM     20  C   UNL     1       1.574  12.673  18.608  0.00  0.00    +0.000 A 
ATOM     21  C   UNL     1       1.927  11.335  18.636  0.00  0.00    +0.000 A 
BRANCH  19  22
ATOM     22  C   UNL     1      -0.181  14.492  18.652  0.00  0.00    +0.000 C 
BRANCH  22  23
ATOM     23  O   UNL     1      -1.348  14.737  19.432  0.00  0.00    +0.000 OA
ATOM     24  H   UNL     1      -1.902  15.350  18.918  0.00  0.00    +0.000 HD
ENDBRANCH  22  23
ENDBRANCH  19  22
ENDBRANCH   3  16
TORSDOF 4
ENDMDL
