MODEL 1
REMARK VINA RESULT:      -6.1      0.000      0.000
REMARK  Name = 
REMARK  3 active torsions:
REMARK  status: ('A' for Active; 'I' for Inactive)
REMARK    1  A    between atoms: C_1  and  C_2
REMARK    2  A    between atoms: C_9  and  N_10
REMARK    3  A    between atoms: C_13  and  C_14
REMARK                            x       y       z     vdW  Elec       q    Type
REMARK                         _______ _______ _______ _____ _____    ______ ____
ROOT
ATOM      1  C   UNL     1       2.567   7.937  18.177  0.00  0.00    +0.000 C 
ATOM      2  C   UNL     1       3.503   6.813  17.799  0.00  0.00    +0.000 A 
ATOM      3  C   UNL     1       4.439   7.053  16.773  0.00  0.00    +0.000 A 
ATOM      4  C   UNL     1       5.295   6.011  16.409  0.00  0.00    +0.000 A 
ATOM      5  N   UNL     1       6.292   5.928  15.469  0.00  0.00    +0.000 N 
ATOM      6  C   UNL     1       6.807   4.665  15.514  0.00  0.00    +0.000 A 
ATOM      7  N   UNL     1       6.201   3.932  16.418  0.00  0.00    +0.000 NA
ATOM      8  C   UNL     1       5.264   4.754  17.005  0.00  0.00    +0.000 A 
ATOM      9  C   UNL     1       4.329   4.543  18.028  0.00  0.00    +0.000 A 
ATOM     10  C   UNL     1       3.435   5.555  18.450  0.00  0.00    +0.000 A 
ATOM     11  C   UNL     1       2.436   5.354  19.561  0.00  0.00    +0.000 C 
ATOM     12  H   UNL     1       6.592   6.669  14.853  0.00  0.00    +0.000 HD
ENDROOT
BRANCH   9  13
ATOM     13  N   UNL     1       4.332   3.219  18.606  0.00  0.00    +0.000 N 
ATOM     14  O   UNL     1       5.020   3.036  19.619  0.00  0.00    +0.000 OA
ATOM     15  O   UNL     1       3.591   2.374  18.079  0.00  0.00    +0.000 OA
ENDBRANCH   9  13
TORSDOF 1
ENDMDL
MODEL 2
REMARK VINA RESULT:      -6.0      1.820      3.539
REMARK  Name = 
REMARK  3 active torsions:
REMARK  status: ('A' for Active; 'I' for Inactive)
REMARK    1  A    between atoms: C_1  and  C_2
REMARK    2  A    between atoms: C_9  and  N_10
REMARK    3  A    between atoms: C_13  and  C_14
REMARK                            x       y       z     vdW  Elec       q    Type
REMARK                         _______ _______ _______ _____ _____    ______ ____
ROOT
ATOM      1  C   UNL     1       2.609   7.820  17.958  0.00  0.00    +0.000 C 
ATOM      2  C   UNL     1       3.274   6.508  18.302  0.00  0.00    +0.000 A 
ATOM      3  C   UNL     1       2.632   5.671  19.238  0.00  0.00    +0.000 A 
ATOM      4  C   UNL     1       3.251   4.463  19.571  0.00  0.00    +0.000 A 
ATOM      5  N   UNL     1       2.892   3.455  20.429  0.00  0.00    +0.000 N 
ATOM      6  C   UNL     1       3.871   2.504  20.391  0.00  0.00    +0.000 A 
ATOM      7  N   UNL     1       4.836   2.841  19.569  0.00  0.00    +0.000 NA
ATOM      8  C   UNL     1       4.466   4.054  19.030  0.00  0.00    +0.000 A 
ATOM      9  C   UNL     1       5.079   4.899  18.095  0.00  0.00    +0.000 A 
ATOM     10  C   UNL     1       4.506   6.134  17.709  0.00  0.00    +0.000 A 
ATOM     11  C   UNL     1       5.141   7.049  16.692  0.00  0.00    +0.000 C 
ATOM     12  H   UNL     1       2.053   3.420  20.990  0.00  0.00    +0.000 HD
ENDROOT
BRANCH   9  13
ATOM     13  N   UNL     1       6.341   4.432  17.571  0.00  0.00    +0.000 N 
ATOM     14  O   UNL     1       7.339   4.537  18.298  0.00  0.00    +0.000 OA
ATOM     15  O   UNL     1       6.323   3.898  16.451  0.00  0.00    +0.000 OA
ENDBRANCH   9  13
TORSDOF 1
ENDMDL
MODEL 3
REMARK VINA RESULT:      -6.0      1.417      2.258
REMARK  Name = 
REMARK  3 active torsions:
REMARK  status: ('A' for Active; 'I' for Inactive)
REMARK    1  A    between atoms: C_1  and  C_2
REMARK    2  A    between atoms: C_9  and  N_10
REMARK    3  A    between atoms: C_13  and  C_14
REMARK                            x       y       z     vdW  Elec       q    Type
REMARK                         _______ _______ _______ _____ _____    ______ ____
ROOT
ATOM      1  C   UNL     1       1.412   6.385  20.826  0.00  0.00    +0.000 C 
ATOM      2  C   UNL     1       2.387   5.653  19.934  0.00  0.00    +0.000 A 
ATOM      3  C   UNL     1       2.936   6.355  18.842  0.00  0.00    +0.000 A 
ATOM      4  C   UNL     1       3.826   5.677  18.006  0.00  0.00    +0.000 A 
ATOM      5  N   UNL     1       4.513   6.071  16.886  0.00  0.00    +0.000 N 
ATOM      6  C   UNL     1       5.238   5.003  16.441  0.00  0.00    +0.000 A 
ATOM      7  N   UNL     1       5.055   3.949  17.201  0.00  0.00    +0.000 NA
ATOM      8  C   UNL     1       4.191   4.348  18.198  0.00  0.00    +0.000 A 
ATOM      9  C   UNL     1       3.639   3.674  19.296  0.00  0.00    +0.000 A 
ATOM     10  C   UNL     1       2.734   4.301  20.185  0.00  0.00    +0.000 A 
ATOM     11  C   UNL     1       2.144   3.599  21.382  0.00  0.00    +0.000 C 
ATOM     12  H   UNL     1       4.488   6.988  16.463  0.00  0.00    +0.000 HD
ENDROOT
BRANCH   9  13
ATOM     13  N   UNL     1       4.042   2.296  19.443  0.00  0.00    +0.000 N 
ATOM     14  O   UNL     1       3.472   1.451  18.738  0.00  0.00    +0.000 OA
ATOM     15  O   UNL     1       4.980   2.063  20.223  0.00  0.00    +0.000 OA
ENDBRANCH   9  13
TORSDOF 1
ENDMDL
MODEL 4
REMARK VINA RESULT:      -6.0      1.975      4.135
REMARK  Name = 
REMARK  3 active torsions:
REMARK  status: ('A' for Active; 'I' for Inactive)
REMARK    1  A    between atoms: C_1  and  C_2
REMARK    2  A    between atoms: C_9  and  N_10
REMARK    3  A    between atoms: C_13  and  C_14
REMARK                            x       y       z     vdW  Elec       q    Type
REMARK                         _______ _______ _______ _____ _____    ______ ____
ROOT
ATOM      1  C   UNL     1       2.047   8.039  19.166  0.00  0.00    +0.000 C 
ATOM      2  C   UNL     1       2.502   6.618  19.407  0.00  0.00    +0.000 A 
ATOM      3  C   UNL     1       1.885   5.897  20.449  0.00  0.00    +0.000 A 
ATOM      4  C   UNL     1       2.313   4.589  20.686  0.00  0.00    +0.000 A 
ATOM      5  N   UNL     1       1.923   3.647  21.604  0.00  0.00    +0.000 N 
ATOM      6  C   UNL     1       2.684   2.531  21.410  0.00  0.00    +0.000 A 
ATOM      7  N   UNL     1       3.541   2.699  20.430  0.00  0.00    +0.000 NA
ATOM      8  C   UNL     1       3.318   3.970  19.948  0.00  0.00    +0.000 A 
ATOM      9  C   UNL     1       3.910   4.705  18.911  0.00  0.00    +0.000 A 
ATOM     10  C   UNL     1       3.522   6.033  18.615  0.00  0.00    +0.000 A 
ATOM     11  C   UNL     1       4.133   6.834  17.493  0.00  0.00    +0.000 C 
ATOM     12  H   UNL     1       1.201   3.758  22.301  0.00  0.00    +0.000 HD
ENDROOT
BRANCH   9  13
ATOM     13  N   UNL     1       4.953   4.021  18.184  0.00  0.00    +0.000 N 
ATOM     14  O   UNL     1       4.632   3.419  17.150  0.00  0.00    +0.000 OA
ATOM     15  O   UNL     1       6.111   4.138  18.615  0.00  0.00    +0.000 OA
ENDBRANCH   9  13
TORSDOF 1
ENDMDL
MODEL 5
REMARK VINA RESULT:      -5.9      2.320      3.918
REMARK  Name = 
REMARK  3 active torsions:
REMARK  status: ('A' for Active; 'I' for Inactive)
REMARK    1  A    between atoms: C_1  and  C_2
REMARK    2  A    between atoms: C_9  and  N_10
REMARK    3  A    between atoms: C_13  and  C_14
REMARK                            x       y       z     vdW  Elec       q    Type
REMARK                         _______ _______ _______ _____ _____    ______ ____
ROOT
ATOM      1  C   UNL     1       1.947   3.083  21.585  0.00  0.00    +0.000 C 
ATOM      2  C   UNL     1       2.568   3.996  20.554  0.00  0.00    +0.000 A 
ATOM      3  C   UNL     1       1.984   5.264  20.361  0.00  0.00    +0.000 A 
ATOM      4  C   UNL     1       2.545   6.106  19.397  0.00  0.00    +0.000 A 
ATOM      5  N   UNL     1       2.216   7.370  18.979  0.00  0.00    +0.000 N 
ATOM      6  C   UNL     1       3.086   7.725  17.990  0.00  0.00    +0.000 A 
ATOM      7  N   UNL     1       3.948   6.767  17.743  0.00  0.00    +0.000 NA
ATOM      8  C   UNL     1       3.644   5.750  18.622  0.00  0.00    +0.000 A 
ATOM      9  C   UNL     1       4.212   4.487  18.839  0.00  0.00    +0.000 A 
ATOM     10  C   UNL     1       3.697   3.587  19.801  0.00  0.00    +0.000 A 
ATOM     11  C   UNL     1       4.305   2.232  20.062  0.00  0.00    +0.000 C 
ATOM     12  H   UNL     1       1.463   7.939  19.339  0.00  0.00    +0.000 HD
ENDROOT
BRANCH   9  13
ATOM     13  N   UNL     1       5.344   4.165  18.001  0.00  0.00    +0.000 N 
ATOM     14  O   UNL     1       5.112   3.771  16.849  0.00  0.00    +0.000 OA
ATOM     15  O   UNL     1       6.472   4.366  18.477  0.00  0.00    +0.000 OA
ENDBRANCH   9  13
TORSDOF 1
ENDMDL
MODEL 6
REMARK VINA RESULT:      -5.9      1.943      3.781
REMARK  Name = 
REMARK  3 active torsions:
REMARK  status: ('A' for Active; 'I' for Inactive)
REMARK    1  A    between atoms: C_1  and  C_2
REMARK    2  A    between atoms: C_9  and  N_10
REMARK    3  A    between atoms: C_13  and  C_14
REMARK                            x       y       z     vdW  Elec       q    Type
REMARK                         _______ _______ _______ _____ _____    ______ ____
ROOT
ATOM      1  C   UNL     1       5.097   6.589  15.924  0.00  0.00    +0.000 C 
ATOM      2  C   UNL     1       4.414   5.960  17.116  0.00  0.00    +0.000 A 
ATOM      3  C   UNL     1       3.617   6.789  17.931  0.00  0.00    +0.000 A 
ATOM      4  C   UNL     1       2.997   6.216  19.043  0.00  0.00    +0.000 A 
ATOM      5  N   UNL     1       2.178   6.742  20.010  0.00  0.00    +0.000 N 
ATOM      6  C   UNL     1       1.863   5.742  20.884  0.00  0.00    +0.000 A 
ATOM      7  N   UNL     1       2.431   4.609  20.541  0.00  0.00    +0.000 NA
ATOM      8  C   UNL     1       3.131   4.873  19.384  0.00  0.00    +0.000 A 
ATOM      9  C   UNL     1       3.922   4.068  18.553  0.00  0.00    +0.000 A 
ATOM     10  C   UNL     1       4.576   4.582  17.408  0.00  0.00    +0.000 A 
ATOM     11  C   UNL     1       5.415   3.728  16.492  0.00  0.00    +0.000 C 
ATOM     12  H   UNL     1       1.864   7.700  20.068  0.00  0.00    +0.000 HD
ENDROOT
BRANCH   9  13
ATOM     13  N   UNL     1       4.036   2.686  18.957  0.00  0.00    +0.000 N 
ATOM     14  O   UNL     1       3.306   1.860  18.391  0.00  0.00    +0.000 OA
ATOM     15  O   UNL     1       4.906   2.415  19.800  0.00  0.00    +0.000 OA
ENDBRANCH   9  13
TORSDOF 1
ENDMDL
MODEL 7
REMARK VINA RESULT:      -5.8      1.839      3.285
REMARK  Name = 
REMARK  3 active torsions:
REMARK  status: ('A' for Active; 'I' for Inactive)
REMARK    1  A    between atoms: C_1  and  C_2
REMARK    2  A    between atoms: C_9  and  N_10
REMARK    3  A    between atoms: C_13  and  C_14
REMARK                            x       y       z     vdW  Elec       q    Type
REMARK                         _______ _______ _______ _____ _____    ______ ____
ROOT
ATOM      1  C   UNL     1       2.784   8.067  17.844  0.00  0.00    +0.000 C 
ATOM      2  C   UNL     1       3.174   6.608  17.791  0.00  0.00    +0.000 A 
ATOM      3  C   UNL     1       2.177   5.650  18.063  0.00  0.00    +0.000 A 
ATOM      4  C   UNL     1       2.538   4.300  18.031  0.00  0.00    +0.000 A 
ATOM      5  N   UNL     1       1.817   3.153  18.247  0.00  0.00    +0.000 N 
ATOM      6  C   UNL     1       2.665   2.092  18.106  0.00  0.00    +0.000 A 
ATOM      7  N   UNL     1       3.883   2.487  17.819  0.00  0.00    +0.000 NA
ATOM      8  C   UNL     1       3.827   3.862  17.748  0.00  0.00    +0.000 A 
ATOM      9  C   UNL     1       4.799   4.834  17.472  0.00  0.00    +0.000 A 
ATOM     10  C   UNL     1       4.502   6.217  17.484  0.00  0.00    +0.000 A 
ATOM     11  C   UNL     1       5.528   7.277  17.171  0.00  0.00    +0.000 C 
ATOM     12  H   UNL     1       0.834   3.100  18.471  0.00  0.00    +0.000 HD
ENDROOT
BRANCH   9  13
ATOM     13  N   UNL     1       6.122   4.326  17.195  0.00  0.00    +0.000 N 
ATOM     14  O   UNL     1       6.910   4.226  18.145  0.00  0.00    +0.000 OA
ATOM     15  O   UNL     1       6.354   3.965  16.030  0.00  0.00    +0.000 OA
ENDBRANCH   9  13
TORSDOF 1
ENDMDL
MODEL 8
REMARK VINA RESULT:      -5.8      2.548      3.372
REMARK  Name = 
REMARK  3 active torsions:
REMARK  status: ('A' for Active; 'I' for Inactive)
REMARK    1  A    between atoms: C_1  and  C_2
REMARK    2  A    between atoms: C_9  and  N_10
REMARK    3  A    between atoms: C_13  and  C_14
REMARK                            x       y       z     vdW  Elec       q    Type
REMARK                         _______ _______ _______ _____ _____    ______ ____
ROOT
ATOM      1  C   UNL     1       2.665   7.457  18.296  0.00  0.00    +0.000 C 
ATOM      2  C   UNL     1       2.795   5.989  18.626  0.00  0.00    +0.000 A 
ATOM      3  C   UNL     1       3.495   5.170  17.718  0.00  0.00    +0.000 A 
ATOM      4  C   UNL     1       3.604   3.808  18.011  0.00  0.00    +0.000 A 
ATOM      5  N   UNL     1       4.206   2.772  17.344  0.00  0.00    +0.000 N 
ATOM      6  C   UNL     1       3.998   1.631  18.065  0.00  0.00    +0.000 A 
ATOM      7  N   UNL     1       3.298   1.871  19.149  0.00  0.00    +0.000 NA
ATOM      8  C   UNL     1       3.053   3.227  19.148  0.00  0.00    +0.000 A 
ATOM      9  C   UNL     1       2.369   4.064  20.041  0.00  0.00    +0.000 A 
ATOM     10  C   UNL     1       2.224   5.452  19.808  0.00  0.00    +0.000 A 
ATOM     11  C   UNL     1       1.509   6.372  20.764  0.00  0.00    +0.000 C 
ATOM     12  H   UNL     1       4.713   2.838  16.473  0.00  0.00    +0.000 HD
ENDROOT
BRANCH   9  13
ATOM     13  N   UNL     1       1.809   3.409  21.199  0.00  0.00    +0.000 N 
ATOM     14  O   UNL     1       0.700   2.871  21.075  0.00  0.00    +0.000 OA
ATOM     15  O   UNL     1       2.511   3.377  22.223  0.00  0.00    +0.000 OA
ENDBRANCH   9  13
TORSDOF 1
ENDMDL
MODEL 9
REMARK VINA RESULT:      -5.8      2.927      3.412
REMARK  Name = 
REMARK  3 active torsions:
REMARK  status: ('A' for Active; 'I' for Inactive)
REMARK    1  A    between atoms: C_1  and  C_2
REMARK    2  A    between atoms: C_9  and  N_10
REMARK    3  A    between atoms: C_13  and  C_14
REMARK                            x       y       z     vdW  Elec       q    Type
REMARK                         _______ _______ _______ _____ _____    ______ ____
ROOT
ATOM      1  C   UNL     1       3.263   3.461  18.056  0.00  0.00    +0.000 C 
ATOM      2  C   UNL     1       4.415   4.100  17.316  0.00  0.00    +0.000 A 
ATOM      3  C   UNL     1       4.685   3.654  16.007  0.00  0.00    +0.000 A 
ATOM      4  C   UNL     1       5.759   4.231  15.325  0.00  0.00    +0.000 A 
ATOM      5  N   UNL     1       6.269   4.018  14.070  0.00  0.00    +0.000 N 
ATOM      6  C   UNL     1       7.345   4.843  13.908  0.00  0.00    +0.000 A 
ATOM      7  N   UNL     1       7.560   5.566  14.982  0.00  0.00    +0.000 NA
ATOM      8  C   UNL     1       6.572   5.216  15.877  0.00  0.00    +0.000 A 
ATOM      9  C   UNL     1       6.277   5.649  17.177  0.00  0.00    +0.000 A 
ATOM     10  C   UNL     1       5.202   5.111  17.923  0.00  0.00    +0.000 A 
ATOM     11  C   UNL     1       4.858   5.577  19.315  0.00  0.00    +0.000 C 
ATOM     12  H   UNL     1       5.914   3.367  13.384  0.00  0.00    +0.000 HD
ENDROOT
BRANCH   9  13
ATOM     13  N   UNL     1       7.157   6.666  17.705  0.00  0.00    +0.000 N 
ATOM     14  O   UNL     1       7.992   6.319  18.553  0.00  0.00    +0.000 OA
ATOM     15  O   UNL     1       7.055   7.805  17.223  0.00  0.00    +0.000 OA
ENDBRANCH   9  13
TORSDOF 1
ENDMDL
