MODEL 1
REMARK VINA RESULT:      -7.6      0.000      0.000
REMARK  Name = 
REMARK  12 active torsions:
REMARK  status: ('A' for Active; 'I' for Inactive)
REMARK    1  A    between atoms: C_1  and  C_2
REMARK    2  A    between atoms: C_2  and  C_3
REMARK    3  A    between atoms: C_3  and  C_4
REMARK    4  A    between atoms: C_4  and  C_5
REMARK    5  A    between atoms: C_5  and  C_6
REMARK    6  A    between atoms: C_6  and  C_8
REMARK    7  A    between atoms: C_11  and  O_12
REMARK    8  A    between atoms: O_12  and  C_13
REMARK    9  A    between atoms: C_13  and  C_14
REMARK   10  A    between atoms: C_14  and  C_15
REMARK   11  A    between atoms: C_15  and  N_16
REMARK   12  A    between atoms: C_20  and  C_22
REMARK                            x       y       z     vdW  Elec       q    Type
REMARK                         _______ _______ _______ _____ _____    ______ ____
ROOT
ATOM      1  C   UNL     1       8.013   7.424  18.065  0.00  0.00    +0.000 C 
ENDROOT
BRANCH   1   2
ATOM      2  C   UNL     1       8.168   8.931  17.910  0.00  0.00    +0.000 C 
BRANCH   2   3
ATOM      3  O   UNL     1       8.858   9.386  19.077  0.00  0.00    +0.000 OA
BRANCH   3   7
ATOM      4  C   UNL     1      10.764  13.085  19.008  0.00  0.00    +0.000 A 
ATOM      5  C   UNL     1      10.348  12.485  20.202  0.00  0.00    +0.000 A 
ATOM      6  C   UNL     1       9.709  11.246  20.175  0.00  0.00    +0.000 A 
ATOM      7  C   UNL     1       9.483  10.594  18.965  0.00  0.00    +0.000 A 
ATOM      8  C   UNL     1       9.934  11.163  17.776  0.00  0.00    +0.000 A 
ATOM      9  C   UNL     1      10.569  12.407  17.799  0.00  0.00    +0.000 A 
BRANCH   4  10
ATOM     10  C   UNL     1      11.406  14.431  18.973  0.00  0.00    +0.000 C 
ATOM     11  O   UNL     1      12.333  14.676  19.743  0.00  0.00    +0.000 OA
BRANCH  10  12
ATOM     12  C   UNL     1      10.868  15.467  18.005  0.00  0.00    +0.000 C 
BRANCH  12  13
ATOM     13  C   UNL     1       9.369  15.685  18.175  0.00  0.00    +0.000 C 
BRANCH  13  14
ATOM     14  C   UNL     1       9.097  16.523  19.421  0.00  0.00    +0.000 C 
BRANCH  14  16
ATOM     15  C   UNL     1       7.188  17.525  20.708  0.00  0.00    +0.000 C 
ATOM     16  C   UNL     1       7.669  16.323  19.914  0.00  0.00    +0.000 C 
ENDBRANCH  14  16
ENDBRANCH  13  14
ENDBRANCH  12  13
ENDBRANCH  10  12
ENDBRANCH   4  10
ENDBRANCH   3   7
ENDBRANCH   2   3
ENDBRANCH   1   2
BRANCH   1  17
ATOM     17  C   UNL     1       7.233   6.767  16.925  0.00  0.00    +0.000 C 
BRANCH  17  18
ATOM     18  N   UNL     1       7.472   5.323  16.755  0.00  0.00    +0.000 NA
ATOM     19  C   UNL     1       7.220   4.537  17.978  0.00  0.00    +0.000 C 
ATOM     20  C   UNL     1       5.754   4.523  18.428  0.00  0.00    +0.000 C 
ATOM     21  N   UNL     1       4.805   4.173  17.363  0.00  0.00    +0.000 N 
ATOM     22  C   UNL     1       3.483   3.782  17.633  0.00  0.00    +0.000 C 
ATOM     23  O   UNL     1       2.691   3.477  16.738  0.00  0.00    +0.000 OA
ATOM     24  C   UNL     1       5.097   4.699  16.029  0.00  0.00    +0.000 C 
ATOM     25  C   UNL     1       6.604   4.763  15.691  0.00  0.00    +0.000 C 
BRANCH  22  26
ATOM     26  C   UNL     1       2.999   3.726  19.060  0.00  0.00    +0.000 A 
ATOM     27  C   UNL     1       2.294   4.799  19.597  0.00  0.00    +0.000 A 
ATOM     28  C   UNL     1       1.837   4.688  20.910  0.00  0.00    +0.000 A 
ATOM     29  C   UNL     1       2.099   3.532  21.640  0.00  0.00    +0.000 A 
ATOM     30  C   UNL     1       2.832   2.528  21.033  0.00  0.00    +0.000 A 
ATOM     31  N   UNL     1       3.294   2.609  19.772  0.00  0.00    +0.000 NA
ENDBRANCH  22  26
ENDBRANCH  17  18
ENDBRANCH   1  17
TORSDOF 11
ENDMDL
MODEL 2
REMARK VINA RESULT:      -7.3      7.925     11.915
REMARK  Name = 
REMARK  12 active torsions:
REMARK  status: ('A' for Active; 'I' for Inactive)
REMARK    1  A    between atoms: C_1  and  C_2
REMARK    2  A    between atoms: C_2  and  C_3
REMARK    3  A    between atoms: C_3  and  C_4
REMARK    4  A    between atoms: C_4  and  C_5
REMARK    5  A    between atoms: C_5  and  C_6
REMARK    6  A    between atoms: C_6  and  C_8
REMARK    7  A    between atoms: C_11  and  O_12
REMARK    8  A    between atoms: O_12  and  C_13
REMARK    9  A    between atoms: C_13  and  C_14
REMARK   10  A    between atoms: C_14  and  C_15
REMARK   11  A    between atoms: C_15  and  N_16
REMARK   12  A    between atoms: C_20  and  C_22
REMARK                            x       y       z     vdW  Elec       q    Type
REMARK                         _______ _______ _______ _____ _____    ______ ____
ROOT
ATOM      1  C   UNL     1      -0.376  10.309  18.453  0.00  0.00    +0.000 C 
ENDROOT
BRANCH   1   2
ATOM      2  C   UNL     1       1.047   9.822  18.210  0.00  0.00    +0.000 C 
BRANCH   2   3
ATOM      3  O   UNL     1       1.362   8.945  19.295  0.00  0.00    +0.000 OA
BRANCH   3   7
ATOM      4  C   UNL     1       3.893   5.708  18.637  0.00  0.00    +0.000 A 
ATOM      5  C   UNL     1       3.088   5.803  19.779  0.00  0.00    +0.000 A 
ATOM      6  C   UNL     1       2.259   6.909  19.958  0.00  0.00    +0.000 A 
ATOM      7  C   UNL     1       2.220   7.925  19.005  0.00  0.00    +0.000 A 
ATOM      8  C   UNL     1       2.983   7.817  17.845  0.00  0.00    +0.000 A 
ATOM      9  C   UNL     1       3.821   6.713  17.665  0.00  0.00    +0.000 A 
BRANCH   4  10
ATOM     10  C   UNL     1       4.836   4.573  18.418  0.00  0.00    +0.000 C 
ATOM     11  O   UNL     1       5.779   4.417  19.191  0.00  0.00    +0.000 OA
BRANCH  10  12
ATOM     12  C   UNL     1       4.615   3.666  17.223  0.00  0.00    +0.000 C 
BRANCH  12  13
ATOM     13  C   UNL     1       3.153   3.261  17.074  0.00  0.00    +0.000 C 
BRANCH  13  14
ATOM     14  C   UNL     1       2.881   1.977  17.852  0.00  0.00    +0.000 C 
BRANCH  14  16
ATOM     15  C   UNL     1       0.660   2.379  18.953  0.00  0.00    +0.000 C 
ATOM     16  C   UNL     1       2.161   2.273  19.163  0.00  0.00    +0.000 C 
ENDBRANCH  14  16
ENDBRANCH  13  14
ENDBRANCH  12  13
ENDBRANCH  10  12
ENDBRANCH   4  10
ENDBRANCH   3   7
ENDBRANCH   2   3
ENDBRANCH   1   2
BRANCH   1  17
ATOM     17  C   UNL     1      -0.717  10.491  19.933  0.00  0.00    +0.000 C 
BRANCH  17  18
ATOM     18  N   UNL     1      -0.404  11.821  20.486  0.00  0.00    +0.000 NA
ATOM     19  C   UNL     1      -1.358  12.869  20.076  0.00  0.00    +0.000 C 
ATOM     20  C   UNL     1      -2.781  12.674  20.613  0.00  0.00    +0.000 C 
ATOM     21  N   UNL     1      -2.846  12.431  22.060  0.00  0.00    +0.000 N 
ATOM     22  C   UNL     1      -4.038  12.560  22.791  0.00  0.00    +0.000 C 
ATOM     23  O   UNL     1      -4.088  12.368  24.009  0.00  0.00    +0.000 OA
ATOM     24  C   UNL     1      -1.787  11.596  22.630  0.00  0.00    +0.000 C 
ATOM     25  C   UNL     1      -0.403  11.791  21.970  0.00  0.00    +0.000 C 
BRANCH  22  26
ATOM     26  C   UNL     1      -5.310  12.947  22.080  0.00  0.00    +0.000 A 
ATOM     27  C   UNL     1      -5.672  14.287  21.985  0.00  0.00    +0.000 A 
ATOM     28  C   UNL     1      -6.839  14.601  21.288  0.00  0.00    +0.000 A 
ATOM     29  C   UNL     1      -7.602  13.583  20.721  0.00  0.00    +0.000 A 
ATOM     30  C   UNL     1      -7.178  12.277  20.890  0.00  0.00    +0.000 A 
ATOM     31  N   UNL     1      -6.063  11.943  21.564  0.00  0.00    +0.000 NA
ENDBRANCH  22  26
ENDBRANCH  17  18
ENDBRANCH   1  17
TORSDOF 11
ENDMDL
MODEL 3
REMARK VINA RESULT:      -7.3      3.138     11.121
REMARK  Name = 
REMARK  12 active torsions:
REMARK  status: ('A' for Active; 'I' for Inactive)
REMARK    1  A    between atoms: C_1  and  C_2
REMARK    2  A    between atoms: C_2  and  C_3
REMARK    3  A    between atoms: C_3  and  C_4
REMARK    4  A    between atoms: C_4  and  C_5
REMARK    5  A    between atoms: C_5  and  C_6
REMARK    6  A    between atoms: C_6  and  C_8
REMARK    7  A    between atoms: C_11  and  O_12
REMARK    8  A    between atoms: O_12  and  C_13
REMARK    9  A    between atoms: C_13  and  C_14
REMARK   10  A    between atoms: C_14  and  C_15
REMARK   11  A    between atoms: C_15  and  N_16
REMARK   12  A    between atoms: C_20  and  C_22
REMARK                            x       y       z     vdW  Elec       q    Type
REMARK                         _______ _______ _______ _____ _____    ______ ____
ROOT
ATOM      1  C   UNL     1       8.049   9.347  17.836  0.00  0.00    +0.000 C 
ENDROOT
BRANCH   1   2
ATOM      2  C   UNL     1       7.946   7.832  17.954  0.00  0.00    +0.000 C 
BRANCH   2   3
ATOM      3  O   UNL     1       7.284   7.381  16.769  0.00  0.00    +0.000 OA
BRANCH   3   7
ATOM      4  C   UNL     1       4.258   4.579  17.329  0.00  0.00    +0.000 A 
ATOM      5  C   UNL     1       5.579   4.203  17.059  0.00  0.00    +0.000 A 
ATOM      6  C   UNL     1       6.559   5.179  16.874  0.00  0.00    +0.000 A 
ATOM      7  C   UNL     1       6.235   6.531  16.960  0.00  0.00    +0.000 A 
ATOM      8  C   UNL     1       4.932   6.913  17.273  0.00  0.00    +0.000 A 
ATOM      9  C   UNL     1       3.946   5.939  17.453  0.00  0.00    +0.000 A 
BRANCH   4  10
ATOM     10  C   UNL     1       3.161   3.582  17.485  0.00  0.00    +0.000 C 
ATOM     11  O   UNL     1       2.059   3.817  16.993  0.00  0.00    +0.000 OA
BRANCH  10  12
ATOM     12  C   UNL     1       3.435   2.319  18.279  0.00  0.00    +0.000 C 
BRANCH  12  13
ATOM     13  C   UNL     1       2.274   1.956  19.197  0.00  0.00    +0.000 C 
BRANCH  13  14
ATOM     14  C   UNL     1       2.328   2.796  20.470  0.00  0.00    +0.000 C 
BRANCH  14  16
ATOM     15  C   UNL     1       1.732   5.234  20.549  0.00  0.00    +0.000 C 
ATOM     16  C   UNL     1       1.194   3.814  20.501  0.00  0.00    +0.000 C 
ENDBRANCH  14  16
ENDBRANCH  13  14
ENDBRANCH  12  13
ENDBRANCH  10  12
ENDBRANCH   4  10
ENDBRANCH   3   7
ENDBRANCH   2   3
ENDBRANCH   1   2
BRANCH   1  17
ATOM     17  C   UNL     1       9.027   9.974  18.832  0.00  0.00    +0.000 C 
BRANCH  17  18
ATOM     18  N   UNL     1       9.954  10.964  18.256  0.00  0.00    +0.000 NA
ATOM     19  C   UNL     1       9.289  12.203  17.808  0.00  0.00    +0.000 C 
ATOM     20  C   UNL     1       8.668  13.031  18.940  0.00  0.00    +0.000 C 
ATOM     21  N   UNL     1       9.580  13.291  20.061  0.00  0.00    +0.000 N 
ATOM     22  C   UNL     1       9.330  14.287  21.019  0.00  0.00    +0.000 C 
ATOM     23  O   UNL     1      10.104  14.513  21.953  0.00  0.00    +0.000 OA
ATOM     24  C   UNL     1      10.480  12.199  20.437  0.00  0.00    +0.000 C 
ATOM     25  C   UNL     1      10.989  11.358  19.244  0.00  0.00    +0.000 C 
BRANCH  22  26
ATOM     26  C   UNL     1       8.078  15.121  20.916  0.00  0.00    +0.000 A 
ATOM     27  C   UNL     1       8.115  16.355  20.275  0.00  0.00    +0.000 A 
ATOM     28  C   UNL     1       6.926  17.075  20.173  0.00  0.00    +0.000 A 
ATOM     29  C   UNL     1       5.752  16.554  20.714  0.00  0.00    +0.000 A 
ATOM     30  C   UNL     1       5.816  15.332  21.358  0.00  0.00    +0.000 A 
ATOM     31  N   UNL     1       6.950  14.618  21.479  0.00  0.00    +0.000 NA
ENDBRANCH  22  26
ENDBRANCH  17  18
ENDBRANCH   1  17
TORSDOF 11
ENDMDL
MODEL 4
REMARK VINA RESULT:      -7.0      2.198      2.938
REMARK  Name = 
REMARK  12 active torsions:
REMARK  status: ('A' for Active; 'I' for Inactive)
REMARK    1  A    between atoms: C_1  and  C_2
REMARK    2  A    between atoms: C_2  and  C_3
REMARK    3  A    between atoms: C_3  and  C_4
REMARK    4  A    between atoms: C_4  and  C_5
REMARK    5  A    between atoms: C_5  and  C_6
REMARK    6  A    between atoms: C_6  and  C_8
REMARK    7  A    between atoms: C_11  and  O_12
REMARK    8  A    between atoms: O_12  and  C_13
REMARK    9  A    between atoms: C_13  and  C_14
REMARK   10  A    between atoms: C_14  and  C_15
REMARK   11  A    between atoms: C_15  and  N_16
REMARK   12  A    between atoms: C_20  and  C_22
REMARK                            x       y       z     vdW  Elec       q    Type
REMARK                         _______ _______ _______ _____ _____    ______ ____
ROOT
ATOM      1  C   UNL     1       8.042   8.895  17.424  0.00  0.00    +0.000 C 
ENDROOT
BRANCH   1   2
ATOM      2  C   UNL     1       8.754   9.442  18.654  0.00  0.00    +0.000 C 
BRANCH   2   3
ATOM      3  O   UNL     1       9.485  10.591  18.216  0.00  0.00    +0.000 OA
BRANCH   3   7
ATOM      4  C   UNL     1       9.531  13.724  20.955  0.00  0.00    +0.000 A 
ATOM      5  C   UNL     1      10.023  12.453  21.271  0.00  0.00    +0.000 A 
ATOM      6  C   UNL     1       9.983  11.432  20.322  0.00  0.00    +0.000 A 
ATOM      7  C   UNL     1       9.458  11.668  19.053  0.00  0.00    +0.000 A 
ATOM      8  C   UNL     1       9.007  12.941  18.715  0.00  0.00    +0.000 A 
ATOM      9  C   UNL     1       9.040  13.965  19.665  0.00  0.00    +0.000 A 
BRANCH   4  10
ATOM     10  C   UNL     1       9.502  14.838  21.946  0.00  0.00    +0.000 C 
ATOM     11  O   UNL     1      10.562  15.337  22.322  0.00  0.00    +0.000 OA
BRANCH  10  12
ATOM     12  C   UNL     1       8.160  15.298  22.483  0.00  0.00    +0.000 C 
BRANCH  12  13
ATOM     13  C   UNL     1       7.383  14.158  23.131  0.00  0.00    +0.000 C 
BRANCH  13  14
ATOM     14  C   UNL     1       8.112  13.666  24.378  0.00  0.00    +0.000 C 
BRANCH  14  16
ATOM     15  C   UNL     1       6.990  11.465  24.828  0.00  0.00    +0.000 C 
ATOM     16  C   UNL     1       8.263  12.149  24.361  0.00  0.00    +0.000 C 
ENDBRANCH  14  16
ENDBRANCH  13  14
ENDBRANCH  12  13
ENDBRANCH  10  12
ENDBRANCH   4  10
ENDBRANCH   3   7
ENDBRANCH   2   3
ENDBRANCH   1   2
BRANCH   1  17
ATOM     17  C   UNL     1       7.067   7.757  17.736  0.00  0.00    +0.000 C 
BRANCH  17  18
ATOM     18  N   UNL     1       7.641   6.402  17.652  0.00  0.00    +0.000 NA
ATOM     19  C   UNL     1       7.358   5.568  18.836  0.00  0.00    +0.000 C 
ATOM     20  C   UNL     1       5.876   5.228  19.029  0.00  0.00    +0.000 C 
ATOM     21  N   UNL     1       5.225   4.688  17.829  0.00  0.00    +0.000 N 
ATOM     22  C   UNL     1       3.994   4.013  17.879  0.00  0.00    +0.000 C 
ATOM     23  O   UNL     1       3.455   3.549  16.872  0.00  0.00    +0.000 OA
ATOM     24  C   UNL     1       5.622   5.278  16.549  0.00  0.00    +0.000 C 
ATOM     25  C   UNL     1       7.114   5.675  16.472  0.00  0.00    +0.000 C 
BRANCH  22  26
ATOM     26  C   UNL     1       3.295   3.839  19.204  0.00  0.00    +0.000 A 
ATOM     27  C   UNL     1       3.504   2.685  19.953  0.00  0.00    +0.000 A 
ATOM     28  C   UNL     1       2.863   2.583  21.188  0.00  0.00    +0.000 A 
ATOM     29  C   UNL     1       2.039   3.615  21.628  0.00  0.00    +0.000 A 
ATOM     30  C   UNL     1       1.869   4.713  20.803  0.00  0.00    +0.000 A 
ATOM     31  N   UNL     1       2.466   4.836  19.604  0.00  0.00    +0.000 NA
ENDBRANCH  22  26
ENDBRANCH  17  18
ENDBRANCH   1  17
TORSDOF 11
ENDMDL
MODEL 5
REMARK VINA RESULT:      -7.0      3.314     11.149
REMARK  Name = 
REMARK  12 active torsions:
REMARK  status: ('A' for Active; 'I' for Inactive)
REMARK    1  A    between atoms: C_1  and  C_2
REMARK    2  A    between atoms: C_2  and  C_3
REMARK    3  A    between atoms: C_3  and  C_4
REMARK    4  A    between atoms: C_4  and  C_5
REMARK    5  A    between atoms: C_5  and  C_6
REMARK    6  A    between atoms: C_6  and  C_8
REMARK    7  A    between atoms: C_11  and  O_12
REMARK    8  A    between atoms: O_12  and  C_13
REMARK    9  A    between atoms: C_13  and  C_14
REMARK   10  A    between atoms: C_14  and  C_15
REMARK   11  A    between atoms: C_15  and  N_16
REMARK   12  A    between atoms: C_20  and  C_22
REMARK                            x       y       z     vdW  Elec       q    Type
REMARK                         _______ _______ _______ _____ _____    ______ ____
ROOT
ATOM      1  C   UNL     1       8.347   9.351  17.472  0.00  0.00    +0.000 C 
ENDROOT
BRANCH   1   2
ATOM      2  C   UNL     1       8.009   7.926  17.891  0.00  0.00    +0.000 C 
BRANCH   2   3
ATOM      3  O   UNL     1       6.854   7.549  17.137  0.00  0.00    +0.000 OA
BRANCH   3   7
ATOM      4  C   UNL     1       5.068   4.098  18.627  0.00  0.00    +0.000 A 
ATOM      5  C   UNL     1       6.264   4.602  19.151  0.00  0.00    +0.000 A 
ATOM      6  C   UNL     1       6.827   5.760  18.616  0.00  0.00    +0.000 A 
ATOM      7  C   UNL     1       6.206   6.426  17.562  0.00  0.00    +0.000 A 
ATOM      8  C   UNL     1       4.993   5.957  17.064  0.00  0.00    +0.000 A 
ATOM      9  C   UNL     1       4.428   4.794  17.593  0.00  0.00    +0.000 A 
BRANCH   4  10
ATOM     10  C   UNL     1       4.448   2.837  19.125  0.00  0.00    +0.000 C 
ATOM     11  O   UNL     1       4.910   2.293  20.126  0.00  0.00    +0.000 OA
BRANCH  10  12
ATOM     12  C   UNL     1       3.280   2.249  18.356  0.00  0.00    +0.000 C 
BRANCH  12  13
ATOM     13  C   UNL     1       2.017   2.170  19.205  0.00  0.00    +0.000 C 
BRANCH  13  14
ATOM     14  C   UNL     1       1.171   3.425  19.008  0.00  0.00    +0.000 C 
BRANCH  14  16
ATOM     15  C   UNL     1       2.210   4.712  20.896  0.00  0.00    +0.000 C 
ATOM     16  C   UNL     1       0.923   4.131  20.335  0.00  0.00    +0.000 C 
ENDBRANCH  14  16
ENDBRANCH  13  14
ENDBRANCH  12  13
ENDBRANCH  10  12
ENDBRANCH   4  10
ENDBRANCH   3   7
ENDBRANCH   2   3
ENDBRANCH   1   2
BRANCH   1  17
ATOM     17  C   UNL     1       8.828  10.232  18.626  0.00  0.00    +0.000 C 
BRANCH  17  18
ATOM     18  N   UNL     1       9.939  11.142  18.297  0.00  0.00    +0.000 NA
ATOM     19  C   UNL     1       9.497  12.478  17.856  0.00  0.00    +0.000 C 
ATOM     20  C   UNL     1       8.783  13.296  18.940  0.00  0.00    +0.000 C 
ATOM     21  N   UNL     1       9.513  13.369  20.211  0.00  0.00    +0.000 N 
ATOM     22  C   UNL     1       9.210  14.321  21.199  0.00  0.00    +0.000 C 
ATOM     23  O   UNL     1       9.833  14.388  22.262  0.00  0.00    +0.000 OA
ATOM     24  C   UNL     1      10.214  12.154  20.633  0.00  0.00    +0.000 C 
ATOM     25  C   UNL     1      10.826  11.341  19.469  0.00  0.00    +0.000 C 
BRANCH  22  26
ATOM     26  C   UNL     1       8.090  15.303  20.968  0.00  0.00    +0.000 A 
ATOM     27  C   UNL     1       8.342  16.501  20.307  0.00  0.00    +0.000 A 
ATOM     28  C   UNL     1       7.269  17.363  20.084  0.00  0.00    +0.000 A 
ATOM     29  C   UNL     1       5.996  17.014  20.529  0.00  0.00    +0.000 A 
ATOM     30  C   UNL     1       5.845  15.814  21.202  0.00  0.00    +0.000 A 
ATOM     31  N   UNL     1       6.862  14.966  21.439  0.00  0.00    +0.000 NA
ENDBRANCH  22  26
ENDBRANCH  17  18
ENDBRANCH   1  17
TORSDOF 11
ENDMDL
MODEL 6
REMARK VINA RESULT:      -6.9      3.089     11.113
REMARK  Name = 
REMARK  12 active torsions:
REMARK  status: ('A' for Active; 'I' for Inactive)
REMARK    1  A    between atoms: C_1  and  C_2
REMARK    2  A    between atoms: C_2  and  C_3
REMARK    3  A    between atoms: C_3  and  C_4
REMARK    4  A    between atoms: C_4  and  C_5
REMARK    5  A    between atoms: C_5  and  C_6
REMARK    6  A    between atoms: C_6  and  C_8
REMARK    7  A    between atoms: C_11  and  O_12
REMARK    8  A    between atoms: O_12  and  C_13
REMARK    9  A    between atoms: C_13  and  C_14
REMARK   10  A    between atoms: C_14  and  C_15
REMARK   11  A    between atoms: C_15  and  N_16
REMARK   12  A    between atoms: C_20  and  C_22
REMARK                            x       y       z     vdW  Elec       q    Type
REMARK                         _______ _______ _______ _____ _____    ______ ____
ROOT
ATOM      1  C   UNL     1       8.130   8.547  17.403  0.00  0.00    +0.000 C 
ENDROOT
BRANCH   1   2
ATOM      2  C   UNL     1       7.470   7.358  18.088  0.00  0.00    +0.000 C 
BRANCH   2   3
ATOM      3  O   UNL     1       6.344   7.003  17.280  0.00  0.00    +0.000 OA
BRANCH   3   7
ATOM      4  C   UNL     1       4.118   3.619  18.236  0.00  0.00    +0.000 A 
ATOM      5  C   UNL     1       3.904   4.341  17.056  0.00  0.00    +0.000 A 
ATOM      6  C   UNL     1       4.672   5.471  16.781  0.00  0.00    +0.000 A 
ATOM      7  C   UNL     1       5.659   5.890  17.671  0.00  0.00    +0.000 A 
ATOM      8  C   UNL     1       5.909   5.152  18.826  0.00  0.00    +0.000 A 
ATOM      9  C   UNL     1       5.137   4.022  19.108  0.00  0.00    +0.000 A 
BRANCH   4  10
ATOM     10  C   UNL     1       3.294   2.433  18.606  0.00  0.00    +0.000 C 
ATOM     11  O   UNL     1       3.717   1.305  18.359  0.00  0.00    +0.000 OA
BRANCH  10  12
ATOM     12  C   UNL     1       1.939   2.662  19.249  0.00  0.00    +0.000 C 
BRANCH  12  13
ATOM     13  C   UNL     1       2.015   2.628  20.771  0.00  0.00    +0.000 C 
BRANCH  13  14
ATOM     14  C   UNL     1       2.159   4.043  21.323  0.00  0.00    +0.000 C 
BRANCH  14  16
ATOM     15  C   UNL     1       2.269   6.197  20.037  0.00  0.00    +0.000 C 
ATOM     16  C   UNL     1       1.383   5.043  20.473  0.00  0.00    +0.000 C 
ENDBRANCH  14  16
ENDBRANCH  13  14
ENDBRANCH  12  13
ENDBRANCH  10  12
ENDBRANCH   4  10
ENDBRANCH   3   7
ENDBRANCH   2   3
ENDBRANCH   1   2
BRANCH   1  17
ATOM     17  C   UNL     1       8.187   9.803  18.274  0.00  0.00    +0.000 C 
BRANCH  17  18
ATOM     18  N   UNL     1       9.510  10.446  18.356  0.00  0.00    +0.000 NA
ATOM     19  C   UNL     1       9.543  11.803  17.777  0.00  0.00    +0.000 C 
ATOM     20  C   UNL     1       8.689  12.831  18.529  0.00  0.00    +0.000 C 
ATOM     21  N   UNL     1       8.930  12.864  19.977  0.00  0.00    +0.000 N 
ATOM     22  C   UNL     1       8.513  13.935  20.785  0.00  0.00    +0.000 C 
ATOM     23  O   UNL     1       8.727  13.966  21.999  0.00  0.00    +0.000 OA
ATOM     24  C   UNL     1       9.166  11.574  20.629  0.00  0.00    +0.000 C 
ATOM     25  C   UNL     1       9.956  10.564  19.766  0.00  0.00    +0.000 C 
BRANCH  22  26
ATOM     26  C   UNL     1       7.778  15.095  20.162  0.00  0.00    +0.000 A 
ATOM     27  C   UNL     1       8.487  16.203  19.708  0.00  0.00    +0.000 A 
ATOM     28  C   UNL     1       7.770  17.237  19.108  0.00  0.00    +0.000 A 
ATOM     29  C   UNL     1       6.385  17.140  18.988  0.00  0.00    +0.000 A 
ATOM     30  C   UNL     1       5.762  16.013  19.492  0.00  0.00    +0.000 A 
ATOM     31  N   UNL     1       6.426  15.004  20.084  0.00  0.00    +0.000 NA
ENDBRANCH  22  26
ENDBRANCH  17  18
ENDBRANCH   1  17
TORSDOF 11
ENDMDL
MODEL 7
REMARK VINA RESULT:      -6.9      2.071      2.874
REMARK  Name = 
REMARK  12 active torsions:
REMARK  status: ('A' for Active; 'I' for Inactive)
REMARK    1  A    between atoms: C_1  and  C_2
REMARK    2  A    between atoms: C_2  and  C_3
REMARK    3  A    between atoms: C_3  and  C_4
REMARK    4  A    between atoms: C_4  and  C_5
REMARK    5  A    between atoms: C_5  and  C_6
REMARK    6  A    between atoms: C_6  and  C_8
REMARK    7  A    between atoms: C_11  and  O_12
REMARK    8  A    between atoms: O_12  and  C_13
REMARK    9  A    between atoms: C_13  and  C_14
REMARK   10  A    between atoms: C_14  and  C_15
REMARK   11  A    between atoms: C_15  and  N_16
REMARK   12  A    between atoms: C_20  and  C_22
REMARK                            x       y       z     vdW  Elec       q    Type
REMARK                         _______ _______ _______ _____ _____    ______ ____
ROOT
ATOM      1  C   UNL     1       7.317   8.710  17.478  0.00  0.00    +0.000 C 
ENDROOT
BRANCH   1   2
ATOM      2  C   UNL     1       8.454   8.801  18.487  0.00  0.00    +0.000 C 
BRANCH   2   3
ATOM      3  O   UNL     1       9.272   9.898  18.072  0.00  0.00    +0.000 OA
BRANCH   3   7
ATOM      4  C   UNL     1       9.523  13.209  20.580  0.00  0.00    +0.000 A 
ATOM      5  C   UNL     1       9.185  13.325  19.227  0.00  0.00    +0.000 A 
ATOM      6  C   UNL     1       9.117  12.187  18.424  0.00  0.00    +0.000 A 
ATOM      7  C   UNL     1       9.381  10.928  18.959  0.00  0.00    +0.000 A 
ATOM      8  C   UNL     1       9.675  10.798  20.314  0.00  0.00    +0.000 A 
ATOM      9  C   UNL     1       9.749  11.937  21.121  0.00  0.00    +0.000 A 
BRANCH   4  10
ATOM     10  C   UNL     1       9.659  14.395  21.473  0.00  0.00    +0.000 C 
ATOM     11  O   UNL     1      10.764  14.914  21.621  0.00  0.00    +0.000 OA
BRANCH  10  12
ATOM     12  C   UNL     1       8.428  14.904  22.198  0.00  0.00    +0.000 C 
BRANCH  12  13
ATOM     13  C   UNL     1       7.954  13.932  23.273  0.00  0.00    +0.000 C 
BRANCH  13  14
ATOM     14  C   UNL     1       6.705  13.193  22.801  0.00  0.00    +0.000 C 
BRANCH  14  16
ATOM     15  C   UNL     1       7.753  11.581  24.416  0.00  0.00    +0.000 C 
ATOM     16  C   UNL     1       6.577  11.840  23.489  0.00  0.00    +0.000 C 
ENDBRANCH  14  16
ENDBRANCH  13  14
ENDBRANCH  12  13
ENDBRANCH  10  12
ENDBRANCH   4  10
ENDBRANCH   3   7
ENDBRANCH   2   3
ENDBRANCH   1   2
BRANCH   1  17
ATOM     17  C   UNL     1       6.528   7.402  17.559  0.00  0.00    +0.000 C 
BRANCH  17  18
ATOM     18  N   UNL     1       7.300   6.235  18.023  0.00  0.00    +0.000 NA
ATOM     19  C   UNL     1       6.829   5.691  19.311  0.00  0.00    +0.000 C 
ATOM     20  C   UNL     1       5.419   5.088  19.264  0.00  0.00    +0.000 C 
ATOM     21  N   UNL     1       5.216   4.127  18.173  0.00  0.00    +0.000 N 
ATOM     22  C   UNL     1       4.135   3.230  18.153  0.00  0.00    +0.000 C 
ATOM     23  O   UNL     1       3.973   2.414  17.241  0.00  0.00    +0.000 OA
ATOM     24  C   UNL     1       5.859   4.443  16.896  0.00  0.00    +0.000 C 
ATOM     25  C   UNL     1       7.237   5.131  17.035  0.00  0.00    +0.000 C 
BRANCH  22  26
ATOM     26  C   UNL     1       3.130   3.249  19.277  0.00  0.00    +0.000 A 
ATOM     27  C   UNL     1       3.406   2.582  20.466  0.00  0.00    +0.000 A 
ATOM     28  C   UNL     1       2.463   2.655  21.490  0.00  0.00    +0.000 A 
ATOM     29  C   UNL     1       1.286   3.376  21.298  0.00  0.00    +0.000 A 
ATOM     30  C   UNL     1       1.086   3.985  20.072  0.00  0.00    +0.000 A 
ATOM     31  N   UNL     1       1.973   3.924  19.062  0.00  0.00    +0.000 NA
ENDBRANCH  22  26
ENDBRANCH  17  18
ENDBRANCH   1  17
TORSDOF 11
ENDMDL
MODEL 8
REMARK VINA RESULT:      -6.8      1.727      2.200
REMARK  Name = 
REMARK  12 active torsions:
REMARK  status: ('A' for Active; 'I' for Inactive)
REMARK    1  A    between atoms: C_1  and  C_2
REMARK    2  A    between atoms: C_2  and  C_3
REMARK    3  A    between atoms: C_3  and  C_4
REMARK    4  A    between atoms: C_4  and  C_5
REMARK    5  A    between atoms: C_5  and  C_6
REMARK    6  A    between atoms: C_6  and  C_8
REMARK    7  A    between atoms: C_11  and  O_12
REMARK    8  A    between atoms: O_12  and  C_13
REMARK    9  A    between atoms: C_13  and  C_14
REMARK   10  A    between atoms: C_14  and  C_15
REMARK   11  A    between atoms: C_15  and  N_16
REMARK   12  A    between atoms: C_20  and  C_22
REMARK                            x       y       z     vdW  Elec       q    Type
REMARK                         _______ _______ _______ _____ _____    ______ ____
ROOT
ATOM      1  C   UNL     1       7.115   6.981  18.005  0.00  0.00    +0.000 C 
ENDROOT
BRANCH   1   2
ATOM      2  C   UNL     1       8.086   8.059  17.542  0.00  0.00    +0.000 C 
BRANCH   2   3
ATOM      3  O   UNL     1       8.532   8.732  18.723  0.00  0.00    +0.000 OA
BRANCH   3   7
ATOM      4  C   UNL     1       9.652  12.685  18.060  0.00  0.00    +0.000 A 
ATOM      5  C   UNL     1       8.454  12.158  17.563  0.00  0.00    +0.000 A 
ATOM      6  C   UNL     1       8.123  10.826  17.807  0.00  0.00    +0.000 A 
ATOM      7  C   UNL     1       8.975  10.010  18.548  0.00  0.00    +0.000 A 
ATOM      8  C   UNL     1      10.148  10.538  19.084  0.00  0.00    +0.000 A 
ATOM      9  C   UNL     1      10.486  11.871  18.837  0.00  0.00    +0.000 A 
BRANCH   4  10
ATOM     10  C   UNL     1      10.080  14.087  17.788  0.00  0.00    +0.000 C 
ATOM     11  O   UNL     1      11.177  14.291  17.271  0.00  0.00    +0.000 OA
BRANCH  10  12
ATOM     12  C   UNL     1       9.155  15.220  18.189  0.00  0.00    +0.000 C 
BRANCH  12  13
ATOM     13  C   UNL     1       8.853  15.210  19.683  0.00  0.00    +0.000 C 
BRANCH  13  14
ATOM     14  C   UNL     1      10.152  15.266  20.483  0.00  0.00    +0.000 C 
BRANCH  14  16
ATOM     15  C   UNL     1       9.339  13.321  21.847  0.00  0.00    +0.000 C 
ATOM     16  C   UNL     1       9.954  14.709  21.888  0.00  0.00    +0.000 C 
ENDBRANCH  14  16
ENDBRANCH  13  14
ENDBRANCH  12  13
ENDBRANCH  10  12
ENDBRANCH   4  10
ENDBRANCH   3   7
ENDBRANCH   2   3
ENDBRANCH   1   2
BRANCH   1  17
ATOM     17  C   UNL     1       7.288   5.647  17.277  0.00  0.00    +0.000 C 
BRANCH  17  18
ATOM     18  N   UNL     1       6.312   5.389  16.205  0.00  0.00    +0.000 NA
ATOM     19  C   UNL     1       5.438   4.229  16.469  0.00  0.00    +0.000 C 
ATOM     20  C   UNL     1       4.494   4.409  17.664  0.00  0.00    +0.000 C 
ATOM     21  N   UNL     1       3.726   5.660  17.636  0.00  0.00    +0.000 N 
ATOM     22  C   UNL     1       2.588   5.861  18.434  0.00  0.00    +0.000 C 
ATOM     23  O   UNL     1       1.936   6.908  18.400  0.00  0.00    +0.000 OA
ATOM     24  C   UNL     1       4.428   6.847  17.144  0.00  0.00    +0.000 C 
ATOM     25  C   UNL     1       5.427   6.562  16.000  0.00  0.00    +0.000 C 
BRANCH  22  26
ATOM     26  C   UNL     1       2.132   4.770  19.369  0.00  0.00    +0.000 A 
ATOM     27  C   UNL     1       1.267   3.780  18.912  0.00  0.00    +0.000 A 
ATOM     28  C   UNL     1       0.899   2.772  19.802  0.00  0.00    +0.000 A 
ATOM     29  C   UNL     1       1.391   2.784  21.105  0.00  0.00    +0.000 A 
ATOM     30  C   UNL     1       2.225   3.823  21.479  0.00  0.00    +0.000 A 
ATOM     31  N   UNL     1       2.590   4.815  20.646  0.00  0.00    +0.000 NA
ENDBRANCH  22  26
ENDBRANCH  17  18
ENDBRANCH   1  17
TORSDOF 11
ENDMDL
MODEL 9
REMARK VINA RESULT:      -6.8      3.165     11.208
REMARK  Name = 
REMARK  12 active torsions:
REMARK  status: ('A' for Active; 'I' for Inactive)
REMARK    1  A    between atoms: C_1  and  C_2
REMARK    2  A    between atoms: C_2  and  C_3
REMARK    3  A    between atoms: C_3  and  C_4
REMARK    4  A    between atoms: C_4  and  C_5
REMARK    5  A    between atoms: C_5  and  C_6
REMARK    6  A    between atoms: C_6  and  C_8
REMARK    7  A    between atoms: C_11  and  O_12
REMARK    8  A    between atoms: O_12  and  C_13
REMARK    9  A    between atoms: C_13  and  C_14
REMARK   10  A    between atoms: C_14  and  C_15
REMARK   11  A    between atoms: C_15  and  N_16
REMARK   12  A    between atoms: C_20  and  C_22
REMARK                            x       y       z     vdW  Elec       q    Type
REMARK                         _______ _______ _______ _____ _____    ______ ____
ROOT
ATOM      1  C   UNL     1       7.417   9.191  17.557  0.00  0.00    +0.000 C 
ENDROOT
BRANCH   1   2
ATOM      2  C   UNL     1       8.158   7.914  17.932  0.00  0.00    +0.000 C 
BRANCH   2   3
ATOM      3  O   UNL     1       7.825   6.949  16.931  0.00  0.00    +0.000 OA
BRANCH   3   7
ATOM      4  C   UNL     1       4.826   4.170  17.706  0.00  0.00    +0.000 A 
ATOM      5  C   UNL     1       5.105   4.621  16.411  0.00  0.00    +0.000 A 
ATOM      6  C   UNL     1       6.117   5.557  16.201  0.00  0.00    +0.000 A 
ATOM      7  C   UNL     1       6.860   6.047  17.272  0.00  0.00    +0.000 A 
ATOM      8  C   UNL     1       6.619   5.570  18.558  0.00  0.00    +0.000 A 
ATOM      9  C   UNL     1       5.602   4.637  18.774  0.00  0.00    +0.000 A 
BRANCH   4  10
ATOM     10  C   UNL     1       3.723   3.209  17.996  0.00  0.00    +0.000 C 
ATOM     11  O   UNL     1       3.836   2.038  17.641  0.00  0.00    +0.000 OA
BRANCH  10  12
ATOM     12  C   UNL     1       2.478   3.723  18.695  0.00  0.00    +0.000 C 
BRANCH  12  13
ATOM     13  C   UNL     1       1.866   4.916  17.971  0.00  0.00    +0.000 C 
BRANCH  13  14
ATOM     14  C   UNL     1       2.113   6.196  18.765  0.00  0.00    +0.000 C 
BRANCH  14  16
ATOM     15  C   UNL     1       2.328   8.523  17.845  0.00  0.00    +0.000 C 
ATOM     16  C   UNL     1       2.993   7.164  17.983  0.00  0.00    +0.000 C 
ENDBRANCH  14  16
ENDBRANCH  13  14
ENDBRANCH  12  13
ENDBRANCH  10  12
ENDBRANCH   4  10
ENDBRANCH   3   7
ENDBRANCH   2   3
ENDBRANCH   1   2
BRANCH   1  17
ATOM     17  C   UNL     1       8.073  10.462  18.101  0.00  0.00    +0.000 C 
BRANCH  17  18
ATOM     18  N   UNL     1       9.479  10.312  18.515  0.00  0.00    +0.000 NA
ATOM     19  C   UNL     1      10.400  11.233  17.821  0.00  0.00    +0.000 C 
ATOM     20  C   UNL     1      10.174  12.715  18.146  0.00  0.00    +0.000 C 
ATOM     21  N   UNL     1      10.108  13.009  19.582  0.00  0.00    +0.000 N 
ATOM     22  C   UNL     1      10.243  14.311  20.091  0.00  0.00    +0.000 C 
ATOM     23  O   UNL     1      10.200  14.555  21.299  0.00  0.00    +0.000 OA
ATOM     24  C   UNL     1       9.426  12.021  20.421  0.00  0.00    +0.000 C 
ATOM     25  C   UNL     1       9.633  10.557  19.970  0.00  0.00    +0.000 C 
BRANCH  22  26
ATOM     26  C   UNL     1      10.450  15.463  19.140  0.00  0.00    +0.000 A 
ATOM     27  C   UNL     1      11.738  15.840  18.775  0.00  0.00    +0.000 A 
ATOM     28  C   UNL     1      11.880  16.888  17.866  0.00  0.00    +0.000 A 
ATOM     29  C   UNL     1      10.749  17.526  17.363  0.00  0.00    +0.000 A 
ATOM     30  C   UNL     1       9.509  17.102  17.804  0.00  0.00    +0.000 A 
ATOM     31  N   UNL     1       9.340  16.100  18.686  0.00  0.00    +0.000 NA
ENDBRANCH  22  26
ENDBRANCH  17  18
ENDBRANCH   1  17
TORSDOF 11
ENDMDL
