MODEL 1
REMARK VINA RESULT:      -6.4      0.000      0.000
REMARK  Name = 
REMARK  1 active torsions:
REMARK  status: ('A' for Active; 'I' for Inactive)
REMARK    1  A    between atoms: N_13  and  O_14
REMARK                            x       y       z     vdW  Elec       q    Type
REMARK                         _______ _______ _______ _____ _____    ______ ____
ROOT
ATOM      1  O   UNL     1       7.651   4.910  17.160  0.00  0.00    +0.000 OA
ATOM      2  C   UNL     1       6.583   4.757  17.746  0.00  0.00    +0.000 C 
ATOM      3  C   UNL     1       6.308   5.346  19.129  0.00  0.00    +0.000 C 
ATOM      4  O   UNL     1       4.968   5.565  19.540  0.00  0.00    +0.000 OA
ATOM      5  C   UNL     1       4.056   4.679  19.034  0.00  0.00    +0.000 A 
ATOM      6  C   UNL     1       4.312   3.872  17.919  0.00  0.00    +0.000 A 
ATOM      7  C   UNL     1       3.315   3.016  17.429  0.00  0.00    +0.000 A 
ATOM      8  C   UNL     1       2.064   2.971  18.045  0.00  0.00    +0.000 A 
ATOM      9  C   UNL     1       1.815   3.785  19.139  0.00  0.00    +0.000 A 
ATOM     10  F   UNL     1       0.605   3.748  19.724  0.00  0.00    +0.000 F 
ATOM     11  C   UNL     1       2.795   4.639  19.632  0.00  0.00    +0.000 A 
ATOM     12  F   UNL     1       2.529   5.423  20.688  0.00  0.00    +0.000 F 
ATOM     13  N   UNL     1       5.560   3.962  17.295  0.00  0.00    +0.000 N 
ENDROOT
BRANCH  13  14
ATOM     14  O   UNL     1       5.704   3.306  16.057  0.00  0.00    +0.000 OA
ATOM     15  H   UNL     1       6.237   3.944  15.554  0.00  0.00    +0.000 HD
ENDBRANCH  13  14
TORSDOF 1
ENDMDL
MODEL 2
REMARK VINA RESULT:      -6.3      2.073      2.978
REMARK  Name = 
REMARK  1 active torsions:
REMARK  status: ('A' for Active; 'I' for Inactive)
REMARK    1  A    between atoms: N_13  and  O_14
REMARK                            x       y       z     vdW  Elec       q    Type
REMARK                         _______ _______ _______ _____ _____    ______ ____
ROOT
ATOM      1  O   UNL     1       7.727   5.539  15.178  0.00  0.00    +0.000 OA
ATOM      2  C   UNL     1       6.633   5.201  15.620  0.00  0.00    +0.000 C 
ATOM      3  C   UNL     1       5.995   3.850  15.301  0.00  0.00    +0.000 C 
ATOM      4  O   UNL     1       5.018   3.314  16.179  0.00  0.00    +0.000 OA
ATOM      5  C   UNL     1       4.248   4.244  16.823  0.00  0.00    +0.000 A 
ATOM      6  C   UNL     1       4.610   5.591  16.934  0.00  0.00    +0.000 A 
ATOM      7  C   UNL     1       3.792   6.482  17.645  0.00  0.00    +0.000 A 
ATOM      8  C   UNL     1       2.620   6.027  18.249  0.00  0.00    +0.000 A 
ATOM      9  C   UNL     1       2.277   4.688  18.148  0.00  0.00    +0.000 A 
ATOM     10  F   UNL     1       1.153   4.249  18.740  0.00  0.00    +0.000 F 
ATOM     11  C   UNL     1       3.082   3.795  17.447  0.00  0.00    +0.000 A 
ATOM     12  F   UNL     1       2.734   2.502  17.368  0.00  0.00    +0.000 F 
ATOM     13  N   UNL     1       5.808   6.017  16.352  0.00  0.00    +0.000 N 
ENDROOT
BRANCH  13  14
ATOM     14  O   UNL     1       6.246   7.318  16.669  0.00  0.00    +0.000 OA
ATOM     15  H   UNL     1       5.413   7.820  16.644  0.00  0.00    +0.000 HD
ENDBRANCH  13  14
TORSDOF 1
ENDMDL
MODEL 3
REMARK VINA RESULT:      -6.3      2.153      2.249
REMARK  Name = 
REMARK  1 active torsions:
REMARK  status: ('A' for Active; 'I' for Inactive)
REMARK    1  A    between atoms: N_13  and  O_14
REMARK                            x       y       z     vdW  Elec       q    Type
REMARK                         _______ _______ _______ _____ _____    ______ ____
ROOT
ATOM      1  O   UNL     1       7.685   7.478  17.084  0.00  0.00    +0.000 OA
ATOM      2  C   UNL     1       7.040   6.508  17.472  0.00  0.00    +0.000 C 
ATOM      3  C   UNL     1       7.466   5.657  18.668  0.00  0.00    +0.000 C 
ATOM      4  O   UNL     1       6.494   4.892  19.363  0.00  0.00    +0.000 OA
ATOM      5  C   UNL     1       5.462   4.431  18.590  0.00  0.00    +0.000 A 
ATOM      6  C   UNL     1       5.152   4.963  17.333  0.00  0.00    +0.000 A 
ATOM      7  C   UNL     1       4.053   4.469  16.615  0.00  0.00    +0.000 A 
ATOM      8  C   UNL     1       3.262   3.454  17.153  0.00  0.00    +0.000 A 
ATOM      9  C   UNL     1       3.567   2.945  18.405  0.00  0.00    +0.000 A 
ATOM     10  F   UNL     1       2.797   1.975  18.927  0.00  0.00    +0.000 F 
ATOM     11  C   UNL     1       4.653   3.428  19.128  0.00  0.00    +0.000 A 
ATOM     12  F   UNL     1       4.925   2.925  20.341  0.00  0.00    +0.000 F 
ATOM     13  N   UNL     1       5.936   6.005  16.830  0.00  0.00    +0.000 N 
ENDROOT
BRANCH  13  14
ATOM     14  O   UNL     1       5.467   6.658  15.674  0.00  0.00    +0.000 OA
ATOM     15  H   UNL     1       6.016   7.460  15.661  0.00  0.00    +0.000 HD
ENDBRANCH  13  14
TORSDOF 1
ENDMDL
MODEL 4
REMARK VINA RESULT:      -6.3      1.649      1.663
REMARK  Name = 
REMARK  1 active torsions:
REMARK  status: ('A' for Active; 'I' for Inactive)
REMARK    1  A    between atoms: N_13  and  O_14
REMARK                            x       y       z     vdW  Elec       q    Type
REMARK                         _______ _______ _______ _____ _____    ______ ____
ROOT
ATOM      1  O   UNL     1       7.472   5.540  15.361  0.00  0.00    +0.000 OA
ATOM      2  C   UNL     1       6.459   5.471  16.051  0.00  0.00    +0.000 C 
ATOM      3  C   UNL     1       5.913   6.660  16.840  0.00  0.00    +0.000 C 
ATOM      4  O   UNL     1       4.542   6.686  17.204  0.00  0.00    +0.000 OA
ATOM      5  C   UNL     1       3.983   5.458  17.437  0.00  0.00    +0.000 A 
ATOM      6  C   UNL     1       4.556   4.261  16.993  0.00  0.00    +0.000 A 
ATOM      7  C   UNL     1       3.905   3.042  17.231  0.00  0.00    +0.000 A 
ATOM      8  C   UNL     1       2.683   3.018  17.904  0.00  0.00    +0.000 A 
ATOM      9  C   UNL     1       2.116   4.210  18.325  0.00  0.00    +0.000 A 
ATOM     10  F   UNL     1       0.933   4.186  18.964  0.00  0.00    +0.000 F 
ATOM     11  C   UNL     1       2.751   5.426  18.093  0.00  0.00    +0.000 A 
ATOM     12  F   UNL     1       2.179   6.567  18.505  0.00  0.00    +0.000 F 
ATOM     13  N   UNL     1       5.762   4.313  16.288  0.00  0.00    +0.000 N 
ENDROOT
BRANCH  13  14
ATOM     14  O   UNL     1       6.193   3.122  15.670  0.00  0.00    +0.000 OA
ATOM     15  H   UNL     1       7.112   3.059  15.979  0.00  0.00    +0.000 HD
ENDBRANCH  13  14
TORSDOF 1
ENDMDL
MODEL 5
REMARK VINA RESULT:      -6.2      2.405      3.330
REMARK  Name = 
REMARK  1 active torsions:
REMARK  status: ('A' for Active; 'I' for Inactive)
REMARK    1  A    between atoms: N_13  and  O_14
REMARK                            x       y       z     vdW  Elec       q    Type
REMARK                         _______ _______ _______ _____ _____    ______ ____
ROOT
ATOM      1  O   UNL     1       5.088   1.648  20.335  0.00  0.00    +0.000 OA
ATOM      2  C   UNL     1       4.384   2.640  20.168  0.00  0.00    +0.000 C 
ATOM      3  C   UNL     1       3.052   2.839  20.889  0.00  0.00    +0.000 C 
ATOM      4  O   UNL     1       2.534   4.151  21.048  0.00  0.00    +0.000 OA
ATOM      5  C   UNL     1       2.849   5.022  20.041  0.00  0.00    +0.000 A 
ATOM      6  C   UNL     1       3.891   4.798  19.134  0.00  0.00    +0.000 A 
ATOM      7  C   UNL     1       4.185   5.755  18.152  0.00  0.00    +0.000 A 
ATOM      8  C   UNL     1       3.445   6.936  18.080  0.00  0.00    +0.000 A 
ATOM      9  C   UNL     1       2.425   7.157  18.992  0.00  0.00    +0.000 A 
ATOM     10  F   UNL     1       1.721   8.300  18.928  0.00  0.00    +0.000 F 
ATOM     11  C   UNL     1       2.126   6.215  19.972  0.00  0.00    +0.000 A 
ATOM     12  F   UNL     1       1.139   6.453  20.848  0.00  0.00    +0.000 F 
ATOM     13  N   UNL     1       4.643   3.625  19.249  0.00  0.00    +0.000 N 
ENDROOT
BRANCH  13  14
ATOM     14  O   UNL     1       5.812   3.536  18.468  0.00  0.00    +0.000 OA
ATOM     15  H   UNL     1       6.420   3.077  19.071  0.00  0.00    +0.000 HD
ENDBRANCH  13  14
TORSDOF 1
ENDMDL
MODEL 6
REMARK VINA RESULT:      -6.2      1.427      2.589
REMARK  Name = 
REMARK  1 active torsions:
REMARK  status: ('A' for Active; 'I' for Inactive)
REMARK    1  A    between atoms: N_13  and  O_14
REMARK                            x       y       z     vdW  Elec       q    Type
REMARK                         _______ _______ _______ _____ _____    ______ ____
ROOT
ATOM      1  O   UNL     1       8.176   4.445  16.998  0.00  0.00    +0.000 OA
ATOM      2  C   UNL     1       6.960   4.433  17.165  0.00  0.00    +0.000 C 
ATOM      3  C   UNL     1       5.977   4.071  16.053  0.00  0.00    +0.000 C 
ATOM      4  O   UNL     1       4.681   3.602  16.391  0.00  0.00    +0.000 OA
ATOM      5  C   UNL     1       4.167   4.114  17.552  0.00  0.00    +0.000 A 
ATOM      6  C   UNL     1       4.955   4.728  18.531  0.00  0.00    +0.000 A 
ATOM      7  C   UNL     1       4.367   5.192  19.717  0.00  0.00    +0.000 A 
ATOM      8  C   UNL     1       2.996   5.037  19.927  0.00  0.00    +0.000 A 
ATOM      9  C   UNL     1       2.226   4.412  18.958  0.00  0.00    +0.000 A 
ATOM     10  F   UNL     1       0.908   4.254  19.168  0.00  0.00    +0.000 F 
ATOM     11  C   UNL     1       2.799   3.946  17.780  0.00  0.00    +0.000 A 
ATOM     12  F   UNL     1       2.035   3.339  16.859  0.00  0.00    +0.000 F 
ATOM     13  N   UNL     1       6.332   4.839  18.315  0.00  0.00    +0.000 N 
ENDROOT
BRANCH  13  14
ATOM     14  O   UNL     1       7.118   5.259  19.406  0.00  0.00    +0.000 OA
ATOM     15  H   UNL     1       7.897   4.683  19.324  0.00  0.00    +0.000 HD
ENDBRANCH  13  14
TORSDOF 1
ENDMDL
MODEL 7
REMARK VINA RESULT:      -6.2      1.767      2.071
REMARK  Name = 
REMARK  1 active torsions:
REMARK  status: ('A' for Active; 'I' for Inactive)
REMARK    1  A    between atoms: N_13  and  O_14
REMARK                            x       y       z     vdW  Elec       q    Type
REMARK                         _______ _______ _______ _____ _____    ______ ____
ROOT
ATOM      1  O   UNL     1       7.599   6.255  16.442  0.00  0.00    +0.000 OA
ATOM      2  C   UNL     1       6.509   5.960  16.926  0.00  0.00    +0.000 C 
ATOM      3  C   UNL     1       5.243   6.775  16.668  0.00  0.00    +0.000 C 
ATOM      4  O   UNL     1       3.974   6.161  16.822  0.00  0.00    +0.000 OA
ATOM      5  C   UNL     1       3.917   5.185  17.780  0.00  0.00    +0.000 A 
ATOM      6  C   UNL     1       5.055   4.556  18.298  0.00  0.00    +0.000 A 
ATOM      7  C   UNL     1       4.920   3.533  19.248  0.00  0.00    +0.000 A 
ATOM      8  C   UNL     1       3.653   3.134  19.674  0.00  0.00    +0.000 A 
ATOM      9  C   UNL     1       2.531   3.751  19.143  0.00  0.00    +0.000 A 
ATOM     10  F   UNL     1       1.310   3.357  19.546  0.00  0.00    +0.000 F 
ATOM     11  C   UNL     1       2.653   4.766  18.199  0.00  0.00    +0.000 A 
ATOM     12  F   UNL     1       1.553   5.344  17.694  0.00  0.00    +0.000 F 
ATOM     13  N   UNL     1       6.313   4.947  17.830  0.00  0.00    +0.000 N 
ENDROOT
BRANCH  13  14
ATOM     14  O   UNL     1       7.411   4.149  18.206  0.00  0.00    +0.000 OA
ATOM     15  H   UNL     1       7.354   3.417  17.568  0.00  0.00    +0.000 HD
ENDBRANCH  13  14
TORSDOF 1
ENDMDL
MODEL 8
REMARK VINA RESULT:      -6.2      2.845      4.047
REMARK  Name = 
REMARK  1 active torsions:
REMARK  status: ('A' for Active; 'I' for Inactive)
REMARK    1  A    between atoms: N_13  and  O_14
REMARK                            x       y       z     vdW  Elec       q    Type
REMARK                         _______ _______ _______ _____ _____    ______ ____
ROOT
ATOM      1  O   UNL     1       2.832   2.416  21.920  0.00  0.00    +0.000 OA
ATOM      2  C   UNL     1       2.929   3.204  20.983  0.00  0.00    +0.000 C 
ATOM      3  C   UNL     1       1.921   4.326  20.741  0.00  0.00    +0.000 C 
ATOM      4  O   UNL     1       2.311   5.465  19.989  0.00  0.00    +0.000 OA
ATOM      5  C   UNL     1       3.240   5.221  19.013  0.00  0.00    +0.000 A 
ATOM      6  C   UNL     1       4.036   4.071  18.985  0.00  0.00    +0.000 A 
ATOM      7  C   UNL     1       4.997   3.907  17.977  0.00  0.00    +0.000 A 
ATOM      8  C   UNL     1       5.169   4.893  17.005  0.00  0.00    +0.000 A 
ATOM      9  C   UNL     1       4.387   6.037  17.050  0.00  0.00    +0.000 A 
ATOM     10  F   UNL     1       4.562   6.990  16.119  0.00  0.00    +0.000 F 
ATOM     11  C   UNL     1       3.432   6.211  18.046  0.00  0.00    +0.000 A 
ATOM     12  F   UNL     1       2.692   7.329  18.074  0.00  0.00    +0.000 F 
ATOM     13  N   UNL     1       3.872   3.113  19.991  0.00  0.00    +0.000 N 
ENDROOT
BRANCH  13  14
ATOM     14  O   UNL     1       4.831   2.084  20.056  0.00  0.00    +0.000 OA
ATOM     15  H   UNL     1       5.057   2.082  21.002  0.00  0.00    +0.000 HD
ENDBRANCH  13  14
TORSDOF 1
ENDMDL
MODEL 9
REMARK VINA RESULT:      -6.2      2.157      3.418
REMARK  Name = 
REMARK  1 active torsions:
REMARK  status: ('A' for Active; 'I' for Inactive)
REMARK    1  A    between atoms: N_13  and  O_14
REMARK                            x       y       z     vdW  Elec       q    Type
REMARK                         _______ _______ _______ _____ _____    ______ ____
ROOT
ATOM      1  O   UNL     1       7.889   5.488  14.159  0.00  0.00    +0.000 OA
ATOM      2  C   UNL     1       7.037   5.104  14.956  0.00  0.00    +0.000 C 
ATOM      3  C   UNL     1       6.040   3.994  14.629  0.00  0.00    +0.000 C 
ATOM      4  O   UNL     1       5.431   3.269  15.686  0.00  0.00    +0.000 OA
ATOM      5  C   UNL     1       5.233   3.983  16.836  0.00  0.00    +0.000 A 
ATOM      6  C   UNL     1       5.899   5.181  17.116  0.00  0.00    +0.000 A 
ATOM      7  C   UNL     1       5.677   5.839  18.336  0.00  0.00    +0.000 A 
ATOM      8  C   UNL     1       4.799   5.297  19.275  0.00  0.00    +0.000 A 
ATOM      9  C   UNL     1       4.156   4.102  18.995  0.00  0.00    +0.000 A 
ATOM     10  F   UNL     1       3.319   3.576  19.907  0.00  0.00    +0.000 F 
ATOM     11  C   UNL     1       4.369   3.440  17.791  0.00  0.00    +0.000 A 
ATOM     12  F   UNL     1       3.741   2.281  17.545  0.00  0.00    +0.000 F 
ATOM     13  N   UNL     1       6.802   5.686  16.176  0.00  0.00    +0.000 N 
ENDROOT
BRANCH  13  14
ATOM     14  O   UNL     1       7.611   6.765  16.582  0.00  0.00    +0.000 OA
ATOM     15  H   UNL     1       6.946   7.434  16.818  0.00  0.00    +0.000 HD
ENDBRANCH  13  14
TORSDOF 1
ENDMDL
