MODEL 1
REMARK VINA RESULT:      -7.8      0.000      0.000
REMARK  Name = 
REMARK  12 active torsions:
REMARK  status: ('A' for Active; 'I' for Inactive)
REMARK    1  A    between atoms: C_1  and  C_2
REMARK    2  A    between atoms: C_2  and  N_3
REMARK    3  A    between atoms: C_2  and  C_24
REMARK    4  A    between atoms: N_3  and  C_4
REMARK    5  A    between atoms: C_4  and  C_5
REMARK    6  A    between atoms: C_5  and  C_6
REMARK    7  A    between atoms: C_6  and  S_7
REMARK    8  A    between atoms: S_7  and  N_10
REMARK    9  A    between atoms: N_10  and  C_11
REMARK   10  A    between atoms: C_11  and  C_12
REMARK   11  A    between atoms: C_12  and  N_13
REMARK   12  A    between atoms: N_13  and  C_14
REMARK                            x       y       z     vdW  Elec       q    Type
REMARK                         _______ _______ _______ _____ _____    ______ ____
ROOT
ATOM      1  S   UNL     1       3.051   2.653  20.693  0.00  0.00    +0.000 S 
ATOM      2  O   UNL     1       1.760   2.200  20.232  0.00  0.00    +0.000 OA
ATOM      3  O   UNL     1       3.769   1.975  21.749  0.00  0.00    +0.000 OA
ENDROOT
BRANCH   1   4
ATOM      4  N   UNL     1       2.747   4.239  21.207  0.00  0.00    +0.000 NA
ATOM      5  H   UNL     1       3.573   4.823  21.060  0.00  0.00    +0.000 HD
BRANCH   4   6
ATOM      6  C   UNL     1       1.571   4.872  20.497  0.00  0.00    +0.000 C 
BRANCH   6   7
ATOM      7  C   UNL     1       1.971   6.085  19.648  0.00  0.00    +0.000 C 
BRANCH   7   8
ATOM      8  N   UNL     1       2.186   7.289  20.455  0.00  0.00    +0.000 N 
ATOM      9  H   UNL     1       3.177   7.490  20.585  0.00  0.00    +0.000 HD
BRANCH   8  10
ATOM     10  C   UNL     1       1.551   8.482  20.000  0.00  0.00    +0.000 A 
ATOM     11  C   UNL     1       1.631   8.899  18.657  0.00  0.00    +0.000 A 
ATOM     12  C   UNL     1       0.971  10.038  18.205  0.00  0.00    +0.000 A 
ATOM     13  C   UNL     1       0.189  10.776  19.081  0.00  0.00    +0.000 A 
ATOM     14  C   UNL     1       0.062  10.391  20.422  0.00  0.00    +0.000 A 
ATOM     15  C   UNL     1      -0.752  11.143  21.282  0.00  0.00    +0.000 A 
ATOM     16  C   UNL     1      -0.902  10.787  22.620  0.00  0.00    +0.000 A 
ATOM     17  C   UNL     1      -0.237   9.674  23.115  0.00  0.00    +0.000 A 
ATOM     18  C   UNL     1       0.569   8.909  22.268  0.00  0.00    +0.000 A 
ATOM     19  C   UNL     1       0.744   9.241  20.902  0.00  0.00    +0.000 A 
ENDBRANCH   8  10
ENDBRANCH   7   8
ENDBRANCH   6   7
ENDBRANCH   4   6
ENDBRANCH   1   4
BRANCH   1  20
ATOM     20  C   UNL     1       4.171   2.853  19.306  0.00  0.00    +0.000 C 
BRANCH  20  21
ATOM     21  C   UNL     1       3.420   2.833  17.969  0.00  0.00    +0.000 C 
BRANCH  21  22
ATOM     22  C   UNL     1       3.983   3.869  16.993  0.00  0.00    +0.000 C 
BRANCH  22  23
ATOM     23  N   UNL     1       5.339   3.564  16.561  0.00  0.00    +0.000 NA
ATOM     24  H   UNL     1       5.918   3.296  17.355  0.00  0.00    +0.000 HD
BRANCH  23  26
ATOM     25  C   UNL     1       6.904   4.344  14.719  0.00  0.00    +0.000 C 
ATOM     26  C   UNL     1       5.971   4.717  15.886  0.00  0.00    +0.000 C 
BRANCH  26  27
ATOM     27  C   UNL     1       6.739   5.530  16.909  0.00  0.00    +0.000 A 
ATOM     28  C   UNL     1       7.255   4.913  18.060  0.00  0.00    +0.000 A 
ATOM     29  C   UNL     1       7.963   5.660  19.000  0.00  0.00    +0.000 A 
ATOM     30  C   UNL     1       8.168   7.026  18.802  0.00  0.00    +0.000 A 
ATOM     31  C   UNL     1       7.672   7.647  17.656  0.00  0.00    +0.000 A 
ATOM     32  C   UNL     1       6.968   6.902  16.714  0.00  0.00    +0.000 A 
ENDBRANCH  26  27
ENDBRANCH  23  26
ENDBRANCH  22  23
ENDBRANCH  21  22
ENDBRANCH  20  21
ENDBRANCH   1  20
TORSDOF 11
ENDMDL
MODEL 2
REMARK VINA RESULT:      -7.5      4.756      7.840
REMARK  Name = 
REMARK  12 active torsions:
REMARK  status: ('A' for Active; 'I' for Inactive)
REMARK    1  A    between atoms: C_1  and  C_2
REMARK    2  A    between atoms: C_2  and  N_3
REMARK    3  A    between atoms: C_2  and  C_24
REMARK    4  A    between atoms: N_3  and  C_4
REMARK    5  A    between atoms: C_4  and  C_5
REMARK    6  A    between atoms: C_5  and  C_6
REMARK    7  A    between atoms: C_6  and  S_7
REMARK    8  A    between atoms: S_7  and  N_10
REMARK    9  A    between atoms: N_10  and  C_11
REMARK   10  A    between atoms: C_11  and  C_12
REMARK   11  A    between atoms: C_12  and  N_13
REMARK   12  A    between atoms: N_13  and  C_14
REMARK                            x       y       z     vdW  Elec       q    Type
REMARK                         _______ _______ _______ _____ _____    ______ ____
ROOT
ATOM      1  S   UNL     1       7.405   5.805  17.743  0.00  0.00    +0.000 S 
ATOM      2  O   UNL     1       8.076   4.698  18.384  0.00  0.00    +0.000 OA
ATOM      3  O   UNL     1       7.453   6.004  16.311  0.00  0.00    +0.000 OA
ENDROOT
BRANCH   1   4
ATOM      4  N   UNL     1       8.103   7.162  18.479  0.00  0.00    +0.000 NA
ATOM      5  H   UNL     1       9.052   6.946  18.792  0.00  0.00    +0.000 HD
BRANCH   4   6
ATOM      6  C   UNL     1       8.156   8.365  17.563  0.00  0.00    +0.000 C 
BRANCH   6   7
ATOM      7  C   UNL     1       8.210   9.694  18.328  0.00  0.00    +0.000 C 
BRANCH   7   8
ATOM      8  N   UNL     1       9.326   9.749  19.276  0.00  0.00    +0.000 N 
ATOM      9  H   UNL     1      10.001   9.002  19.115  0.00  0.00    +0.000 HD
BRANCH   8  10
ATOM     10  C   UNL     1      10.041  10.980  19.346  0.00  0.00    +0.000 A 
ATOM     11  C   UNL     1      10.960  11.362  18.348  0.00  0.00    +0.000 A 
ATOM     12  C   UNL     1      11.621  12.586  18.393  0.00  0.00    +0.000 A 
ATOM     13  C   UNL     1      11.360  13.475  19.425  0.00  0.00    +0.000 A 
ATOM     14  C   UNL     1      10.440  13.149  20.431  0.00  0.00    +0.000 A 
ATOM     15  C   UNL     1      10.179  14.074  21.453  0.00  0.00    +0.000 A 
ATOM     16  C   UNL     1       9.269  13.784  22.467  0.00  0.00    +0.000 A 
ATOM     17  C   UNL     1       8.610  12.563  22.471  0.00  0.00    +0.000 A 
ATOM     18  C   UNL     1       8.854  11.635  21.455  0.00  0.00    +0.000 A 
ATOM     19  C   UNL     1       9.771  11.897  20.408  0.00  0.00    +0.000 A 
ENDBRANCH   8  10
ENDBRANCH   7   8
ENDBRANCH   6   7
ENDBRANCH   4   6
ENDBRANCH   1   4
BRANCH   1  20
ATOM     20  C   UNL     1       5.687   5.869  18.252  0.00  0.00    +0.000 C 
BRANCH  20  21
ATOM     21  C   UNL     1       4.832   6.652  17.247  0.00  0.00    +0.000 C 
BRANCH  21  22
ATOM     22  C   UNL     1       3.365   6.707  17.683  0.00  0.00    +0.000 C 
BRANCH  22  23
ATOM     23  N   UNL     1       3.186   6.463  19.107  0.00  0.00    +0.000 NA
ATOM     24  H   UNL     1       4.043   6.098  19.520  0.00  0.00    +0.000 HD
BRANCH  23  26
ATOM     25  C   UNL     1       1.542   5.529  20.801  0.00  0.00    +0.000 C 
ATOM     26  C   UNL     1       2.094   5.501  19.364  0.00  0.00    +0.000 C 
BRANCH  26  27
ATOM     27  C   UNL     1       2.577   4.103  19.033  0.00  0.00    +0.000 A 
ATOM     28  C   UNL     1       2.071   3.426  17.912  0.00  0.00    +0.000 A 
ATOM     29  C   UNL     1       2.516   2.141  17.607  0.00  0.00    +0.000 A 
ATOM     30  C   UNL     1       3.471   1.520  18.412  0.00  0.00    +0.000 A 
ATOM     31  C   UNL     1       3.991   2.187  19.520  0.00  0.00    +0.000 A 
ATOM     32  C   UNL     1       3.551   3.472  19.824  0.00  0.00    +0.000 A 
ENDBRANCH  26  27
ENDBRANCH  23  26
ENDBRANCH  22  23
ENDBRANCH  21  22
ENDBRANCH  20  21
ENDBRANCH   1  20
TORSDOF 11
ENDMDL
MODEL 3
REMARK VINA RESULT:      -7.5      1.619      2.998
REMARK  Name = 
REMARK  12 active torsions:
REMARK  status: ('A' for Active; 'I' for Inactive)
REMARK    1  A    between atoms: C_1  and  C_2
REMARK    2  A    between atoms: C_2  and  N_3
REMARK    3  A    between atoms: C_2  and  C_24
REMARK    4  A    between atoms: N_3  and  C_4
REMARK    5  A    between atoms: C_4  and  C_5
REMARK    6  A    between atoms: C_5  and  C_6
REMARK    7  A    between atoms: C_6  and  S_7
REMARK    8  A    between atoms: S_7  and  N_10
REMARK    9  A    between atoms: N_10  and  C_11
REMARK   10  A    between atoms: C_11  and  C_12
REMARK   11  A    between atoms: C_12  and  N_13
REMARK   12  A    between atoms: N_13  and  C_14
REMARK                            x       y       z     vdW  Elec       q    Type
REMARK                         _______ _______ _______ _____ _____    ______ ____
ROOT
ATOM      1  S   UNL     1       2.082   2.872  18.812  0.00  0.00    +0.000 S 
ATOM      2  O   UNL     1       1.401   4.005  18.230  0.00  0.00    +0.000 OA
ATOM      3  O   UNL     1       1.367   1.701  19.270  0.00  0.00    +0.000 OA
ENDROOT
BRANCH   1   4
ATOM      4  N   UNL     1       2.887   3.542  20.144  0.00  0.00    +0.000 NA
ATOM      5  H   UNL     1       3.516   4.287  19.838  0.00  0.00    +0.000 HD
BRANCH   4   6
ATOM      6  C   UNL     1       1.940   4.102  21.182  0.00  0.00    +0.000 C 
BRANCH   6   7
ATOM      7  C   UNL     1       1.273   5.410  20.736  0.00  0.00    +0.000 C 
BRANCH   7   8
ATOM      8  N   UNL     1       2.165   6.565  20.863  0.00  0.00    +0.000 N 
ATOM      9  H   UNL     1       3.147   6.295  20.823  0.00  0.00    +0.000 HD
BRANCH   8  10
ATOM     10  C   UNL     1       1.963   7.630  19.937  0.00  0.00    +0.000 A 
ATOM     11  C   UNL     1       2.478   7.581  18.626  0.00  0.00    +0.000 A 
ATOM     12  C   UNL     1       2.239   8.600  17.708  0.00  0.00    +0.000 A 
ATOM     13  C   UNL     1       1.453   9.684  18.070  0.00  0.00    +0.000 A 
ATOM     14  C   UNL     1       0.903   9.770  19.355  0.00  0.00    +0.000 A 
ATOM     15  C   UNL     1       0.096  10.867  19.689  0.00  0.00    +0.000 A 
ATOM     16  C   UNL     1      -0.470  10.982  20.956  0.00  0.00    +0.000 A 
ATOM     17  C   UNL     1      -0.231  10.001  21.908  0.00  0.00    +0.000 A 
ATOM     18  C   UNL     1       0.564   8.897  21.587  0.00  0.00    +0.000 A 
ATOM     19  C   UNL     1       1.153   8.747  20.308  0.00  0.00    +0.000 A 
ENDBRANCH   8  10
ENDBRANCH   7   8
ENDBRANCH   6   7
ENDBRANCH   4   6
ENDBRANCH   1   4
BRANCH   1  20
ATOM     20  C   UNL     1       3.406   2.323  17.735  0.00  0.00    +0.000 C 
BRANCH  20  21
ATOM     21  C   UNL     1       3.963   3.478  16.893  0.00  0.00    +0.000 C 
BRANCH  21  22
ATOM     22  C   UNL     1       5.173   4.130  17.567  0.00  0.00    +0.000 C 
BRANCH  22  23
ATOM     23  N   UNL     1       6.401   3.978  16.800  0.00  0.00    +0.000 NA
ATOM     24  H   UNL     1       7.190   3.793  17.418  0.00  0.00    +0.000 HD
BRANCH  23  26
ATOM     25  C   UNL     1       5.687   6.333  16.174  0.00  0.00    +0.000 C 
ATOM     26  C   UNL     1       6.702   5.187  16.004  0.00  0.00    +0.000 C 
BRANCH  26  27
ATOM     27  C   UNL     1       6.795   4.806  14.540  0.00  0.00    +0.000 A 
ATOM     28  C   UNL     1       7.718   5.446  13.699  0.00  0.00    +0.000 A 
ATOM     29  C   UNL     1       7.806   5.094  12.353  0.00  0.00    +0.000 A 
ATOM     30  C   UNL     1       6.977   4.100  11.833  0.00  0.00    +0.000 A 
ATOM     31  C   UNL     1       6.064   3.447  12.661  0.00  0.00    +0.000 A 
ATOM     32  C   UNL     1       5.979   3.794  14.006  0.00  0.00    +0.000 A 
ENDBRANCH  26  27
ENDBRANCH  23  26
ENDBRANCH  22  23
ENDBRANCH  21  22
ENDBRANCH  20  21
ENDBRANCH   1  20
TORSDOF 11
ENDMDL
MODEL 4
REMARK VINA RESULT:      -7.4      4.631      7.934
REMARK  Name = 
REMARK  12 active torsions:
REMARK  status: ('A' for Active; 'I' for Inactive)
REMARK    1  A    between atoms: C_1  and  C_2
REMARK    2  A    between atoms: C_2  and  N_3
REMARK    3  A    between atoms: C_2  and  C_24
REMARK    4  A    between atoms: N_3  and  C_4
REMARK    5  A    between atoms: C_4  and  C_5
REMARK    6  A    between atoms: C_5  and  C_6
REMARK    7  A    between atoms: C_6  and  S_7
REMARK    8  A    between atoms: S_7  and  N_10
REMARK    9  A    between atoms: N_10  and  C_11
REMARK   10  A    between atoms: C_11  and  C_12
REMARK   11  A    between atoms: C_12  and  N_13
REMARK   12  A    between atoms: N_13  and  C_14
REMARK                            x       y       z     vdW  Elec       q    Type
REMARK                         _______ _______ _______ _____ _____    ______ ____
ROOT
ATOM      1  S   UNL     1       7.267   5.510  17.505  0.00  0.00    +0.000 S 
ATOM      2  O   UNL     1       7.983   4.450  18.177  0.00  0.00    +0.000 OA
ATOM      3  O   UNL     1       7.427   5.766  16.091  0.00  0.00    +0.000 OA
ENDROOT
BRANCH   1   4
ATOM      4  N   UNL     1       7.753   6.901  18.342  0.00  0.00    +0.000 NA
ATOM      5  H   UNL     1       8.579   6.701  18.909  0.00  0.00    +0.000 HD
BRANCH   4   6
ATOM      6  C   UNL     1       8.063   8.062  17.423  0.00  0.00    +0.000 C 
BRANCH   6   7
ATOM      7  C   UNL     1       8.022   9.417  18.141  0.00  0.00    +0.000 C 
BRANCH   7   8
ATOM      8  N   UNL     1       9.132   9.588  19.080  0.00  0.00    +0.000 N 
ATOM      9  H   UNL     1       9.823   8.843  18.993  0.00  0.00    +0.000 HD
BRANCH   8  10
ATOM     10  C   UNL     1       9.823  10.834  19.030  0.00  0.00    +0.000 A 
ATOM     11  C   UNL     1      10.549  11.235  17.891  0.00  0.00    +0.000 A 
ATOM     12  C   UNL     1      11.181  12.474  17.826  0.00  0.00    +0.000 A 
ATOM     13  C   UNL     1      11.081  13.357  18.890  0.00  0.00    +0.000 A 
ATOM     14  C   UNL     1      10.354  13.012  20.037  0.00  0.00    +0.000 A 
ATOM     15  C   UNL     1      10.252  13.932  21.092  0.00  0.00    +0.000 A 
ATOM     16  C   UNL     1       9.535  13.622  22.246  0.00  0.00    +0.000 A 
ATOM     17  C   UNL     1       8.914  12.387  22.359  0.00  0.00    +0.000 A 
ATOM     18  C   UNL     1       8.999  11.464  21.313  0.00  0.00    +0.000 A 
ATOM     19  C   UNL     1       9.718  11.745  20.126  0.00  0.00    +0.000 A 
ENDBRANCH   8  10
ENDBRANCH   7   8
ENDBRANCH   6   7
ENDBRANCH   4   6
ENDBRANCH   1   4
BRANCH   1  20
ATOM     20  C   UNL     1       5.511   5.388  17.847  0.00  0.00    +0.000 C 
BRANCH  20  21
ATOM     21  C   UNL     1       4.705   6.402  17.025  0.00  0.00    +0.000 C 
BRANCH  21  22
ATOM     22  C   UNL     1       3.304   6.609  17.605  0.00  0.00    +0.000 C 
BRANCH  22  23
ATOM     23  N   UNL     1       3.305   6.746  19.055  0.00  0.00    +0.000 NA
ATOM     24  H   UNL     1       3.961   6.092  19.478  0.00  0.00    +0.000 HD
BRANCH  23  26
ATOM     25  C   UNL     1       1.617   7.385  20.841  0.00  0.00    +0.000 C 
ATOM     26  C   UNL     1       1.963   6.503  19.627  0.00  0.00    +0.000 C 
BRANCH  26  27
ATOM     27  C   UNL     1       1.847   5.042  20.012  0.00  0.00    +0.000 A 
ATOM     28  C   UNL     1       2.330   4.596  21.252  0.00  0.00    +0.000 A 
ATOM     29  C   UNL     1       2.221   3.253  21.607  0.00  0.00    +0.000 A 
ATOM     30  C   UNL     1       1.627   2.342  20.733  0.00  0.00    +0.000 A 
ATOM     31  C   UNL     1       1.131   2.775  19.504  0.00  0.00    +0.000 A 
ATOM     32  C   UNL     1       1.235   4.117  19.149  0.00  0.00    +0.000 A 
ENDBRANCH  26  27
ENDBRANCH  23  26
ENDBRANCH  22  23
ENDBRANCH  21  22
ENDBRANCH  20  21
ENDBRANCH   1  20
TORSDOF 11
ENDMDL
MODEL 5
REMARK VINA RESULT:      -7.4      4.762      8.170
REMARK  Name = 
REMARK  12 active torsions:
REMARK  status: ('A' for Active; 'I' for Inactive)
REMARK    1  A    between atoms: C_1  and  C_2
REMARK    2  A    between atoms: C_2  and  N_3
REMARK    3  A    between atoms: C_2  and  C_24
REMARK    4  A    between atoms: N_3  and  C_4
REMARK    5  A    between atoms: C_4  and  C_5
REMARK    6  A    between atoms: C_5  and  C_6
REMARK    7  A    between atoms: C_6  and  S_7
REMARK    8  A    between atoms: S_7  and  N_10
REMARK    9  A    between atoms: N_10  and  C_11
REMARK   10  A    between atoms: C_11  and  C_12
REMARK   11  A    between atoms: C_12  and  N_13
REMARK   12  A    between atoms: N_13  and  C_14
REMARK                            x       y       z     vdW  Elec       q    Type
REMARK                         _______ _______ _______ _____ _____    ______ ____
ROOT
ATOM      1  S   UNL     1       7.067   5.945  16.719  0.00  0.00    +0.000 S 
ATOM      2  O   UNL     1       7.615   5.332  17.906  0.00  0.00    +0.000 OA
ATOM      3  O   UNL     1       7.707   5.820  15.427  0.00  0.00    +0.000 OA
ENDROOT
BRANCH   1   4
ATOM      4  N   UNL     1       7.018   7.591  17.116  0.00  0.00    +0.000 NA
ATOM      5  H   UNL     1       6.092   7.843  17.467  0.00  0.00    +0.000 HD
BRANCH   4   6
ATOM      6  C   UNL     1       8.052   7.977  18.151  0.00  0.00    +0.000 C 
BRANCH   6   7
ATOM      7  C   UNL     1       8.335   9.484  18.176  0.00  0.00    +0.000 C 
BRANCH   7   8
ATOM      8  N   UNL     1       9.625   9.802  18.793  0.00  0.00    +0.000 N 
ATOM      9  H   UNL     1      10.388   9.773  18.118  0.00  0.00    +0.000 HD
BRANCH   8  10
ATOM     10  C   UNL     1       9.707  11.041  19.495  0.00  0.00    +0.000 A 
ATOM     11  C   UNL     1       9.298  11.161  20.838  0.00  0.00    +0.000 A 
ATOM     12  C   UNL     1       9.424  12.359  21.535  0.00  0.00    +0.000 A 
ATOM     13  C   UNL     1       9.989  13.463  20.915  0.00  0.00    +0.000 A 
ATOM     14  C   UNL     1      10.428  13.389  19.587  0.00  0.00    +0.000 A 
ATOM     15  C   UNL     1      11.014  14.514  18.989  0.00  0.00    +0.000 A 
ATOM     16  C   UNL     1      11.465  14.474  17.672  0.00  0.00    +0.000 A 
ATOM     17  C   UNL     1      11.331  13.305  16.935  0.00  0.00    +0.000 A 
ATOM     18  C   UNL     1      10.757  12.173  17.520  0.00  0.00    +0.000 A 
ATOM     19  C   UNL     1      10.290  12.178  18.857  0.00  0.00    +0.000 A 
ENDBRANCH   8  10
ENDBRANCH   7   8
ENDBRANCH   6   7
ENDBRANCH   4   6
ENDBRANCH   1   4
BRANCH   1  20
ATOM     20  C   UNL     1       5.342   5.493  16.525  0.00  0.00    +0.000 C 
BRANCH  20  21
ATOM     21  C   UNL     1       5.178   3.985  16.293  0.00  0.00    +0.000 C 
BRANCH  21  22
ATOM     22  C   UNL     1       3.871   3.464  16.894  0.00  0.00    +0.000 C 
BRANCH  22  23
ATOM     23  N   UNL     1       4.078   2.436  17.903  0.00  0.00    +0.000 NA
ATOM     24  H   UNL     1       3.240   1.867  18.014  0.00  0.00    +0.000 HD
BRANCH  23  26
ATOM     25  C   UNL     1       4.762   1.987  20.307  0.00  0.00    +0.000 C 
ATOM     26  C   UNL     1       4.426   3.020  19.216  0.00  0.00    +0.000 C 
BRANCH  26  27
ATOM     27  C   UNL     1       3.283   3.899  19.685  0.00  0.00    +0.000 A 
ATOM     28  C   UNL     1       3.435   5.294  19.730  0.00  0.00    +0.000 A 
ATOM     29  C   UNL     1       2.384   6.102  20.159  0.00  0.00    +0.000 A 
ATOM     30  C   UNL     1       1.172   5.531  20.545  0.00  0.00    +0.000 A 
ATOM     31  C   UNL     1       1.004   4.147  20.493  0.00  0.00    +0.000 A 
ATOM     32  C   UNL     1       2.051   3.339  20.060  0.00  0.00    +0.000 A 
ENDBRANCH  26  27
ENDBRANCH  23  26
ENDBRANCH  22  23
ENDBRANCH  21  22
ENDBRANCH  20  21
ENDBRANCH   1  20
TORSDOF 11
ENDMDL
MODEL 6
REMARK VINA RESULT:      -7.4      4.221      6.763
REMARK  Name = 
REMARK  12 active torsions:
REMARK  status: ('A' for Active; 'I' for Inactive)
REMARK    1  A    between atoms: C_1  and  C_2
REMARK    2  A    between atoms: C_2  and  N_3
REMARK    3  A    between atoms: C_2  and  C_24
REMARK    4  A    between atoms: N_3  and  C_4
REMARK    5  A    between atoms: C_4  and  C_5
REMARK    6  A    between atoms: C_5  and  C_6
REMARK    7  A    between atoms: C_6  and  S_7
REMARK    8  A    between atoms: S_7  and  N_10
REMARK    9  A    between atoms: N_10  and  C_11
REMARK   10  A    between atoms: C_11  and  C_12
REMARK   11  A    between atoms: C_12  and  N_13
REMARK   12  A    between atoms: N_13  and  C_14
REMARK                            x       y       z     vdW  Elec       q    Type
REMARK                         _______ _______ _______ _____ _____    ______ ____
ROOT
ATOM      1  S   UNL     1       7.239   5.318  18.541  0.00  0.00    +0.000 S 
ATOM      2  O   UNL     1       8.492   4.756  18.989  0.00  0.00    +0.000 OA
ATOM      3  O   UNL     1       6.078   5.385  19.401  0.00  0.00    +0.000 OA
ENDROOT
BRANCH   1   4
ATOM      4  N   UNL     1       6.838   4.360  17.202  0.00  0.00    +0.000 NA
ATOM      5  H   UNL     1       6.056   3.743  17.431  0.00  0.00    +0.000 HD
BRANCH   4   6
ATOM      6  C   UNL     1       6.470   5.178  15.983  0.00  0.00    +0.000 C 
BRANCH   6   7
ATOM      7  C   UNL     1       5.026   5.691  16.024  0.00  0.00    +0.000 C 
BRANCH   7   8
ATOM      8  N   UNL     1       4.128   4.782  16.740  0.00  0.00    +0.000 N 
ATOM      9  H   UNL     1       4.611   3.945  17.064  0.00  0.00    +0.000 HD
BRANCH   8  10
ATOM     10  C   UNL     1       3.413   5.331  17.844  0.00  0.00    +0.000 A 
ATOM     11  C   UNL     1       3.317   6.722  18.048  0.00  0.00    +0.000 A 
ATOM     12  C   UNL     1       2.578   7.257  19.100  0.00  0.00    +0.000 A 
ATOM     13  C   UNL     1       1.891   6.414  19.960  0.00  0.00    +0.000 A 
ATOM     14  C   UNL     1       1.939   5.025  19.787  0.00  0.00    +0.000 A 
ATOM     15  C   UNL     1       1.219   4.195  20.659  0.00  0.00    +0.000 A 
ATOM     16  C   UNL     1       1.242   2.810  20.514  0.00  0.00    +0.000 A 
ATOM     17  C   UNL     1       1.990   2.237  19.495  0.00  0.00    +0.000 A 
ATOM     18  C   UNL     1       2.706   3.052  18.613  0.00  0.00    +0.000 A 
ATOM     19  C   UNL     1       2.703   4.463  18.730  0.00  0.00    +0.000 A 
ENDBRANCH   8  10
ENDBRANCH   7   8
ENDBRANCH   6   7
ENDBRANCH   4   6
ENDBRANCH   1   4
BRANCH   1  20
ATOM     20  C   UNL     1       7.503   6.950  17.845  0.00  0.00    +0.000 C 
BRANCH  20  21
ATOM     21  C   UNL     1       8.445   7.789  18.718  0.00  0.00    +0.000 C 
BRANCH  21  22
ATOM     22  C   UNL     1       8.459   9.255  18.279  0.00  0.00    +0.000 C 
BRANCH  22  23
ATOM     23  N   UNL     1       9.237  10.106  19.166  0.00  0.00    +0.000 NA
ATOM     24  H   UNL     1       8.782  10.191  20.074  0.00  0.00    +0.000 HD
BRANCH  23  26
ATOM     25  C   UNL     1      10.604  11.597  17.630  0.00  0.00    +0.000 C 
ATOM     26  C   UNL     1       9.418  11.461  18.604  0.00  0.00    +0.000 C 
BRANCH  26  27
ATOM     27  C   UNL     1       9.580  12.452  19.739  0.00  0.00    +0.000 A 
ATOM     28  C   UNL     1       9.108  12.139  21.024  0.00  0.00    +0.000 A 
ATOM     29  C   UNL     1       9.258  13.049  22.069  0.00  0.00    +0.000 A 
ATOM     30  C   UNL     1       9.882  14.277  21.846  0.00  0.00    +0.000 A 
ATOM     31  C   UNL     1      10.366  14.594  20.578  0.00  0.00    +0.000 A 
ATOM     32  C   UNL     1      10.221  13.685  19.534  0.00  0.00    +0.000 A 
ENDBRANCH  26  27
ENDBRANCH  23  26
ENDBRANCH  22  23
ENDBRANCH  21  22
ENDBRANCH  20  21
ENDBRANCH   1  20
TORSDOF 11
ENDMDL
MODEL 7
REMARK VINA RESULT:      -7.4      4.806      8.062
REMARK  Name = 
REMARK  12 active torsions:
REMARK  status: ('A' for Active; 'I' for Inactive)
REMARK    1  A    between atoms: C_1  and  C_2
REMARK    2  A    between atoms: C_2  and  N_3
REMARK    3  A    between atoms: C_2  and  C_24
REMARK    4  A    between atoms: N_3  and  C_4
REMARK    5  A    between atoms: C_4  and  C_5
REMARK    6  A    between atoms: C_5  and  C_6
REMARK    7  A    between atoms: C_6  and  S_7
REMARK    8  A    between atoms: S_7  and  N_10
REMARK    9  A    between atoms: N_10  and  C_11
REMARK   10  A    between atoms: C_11  and  C_12
REMARK   11  A    between atoms: C_12  and  N_13
REMARK   12  A    between atoms: N_13  and  C_14
REMARK                            x       y       z     vdW  Elec       q    Type
REMARK                         _______ _______ _______ _____ _____    ______ ____
ROOT
ATOM      1  S   UNL     1       7.249   5.698  17.397  0.00  0.00    +0.000 S 
ATOM      2  O   UNL     1       7.806   4.522  18.023  0.00  0.00    +0.000 OA
ATOM      3  O   UNL     1       7.474   6.001  16.000  0.00  0.00    +0.000 OA
ENDROOT
BRANCH   1   4
ATOM      4  N   UNL     1       7.890   6.970  18.314  0.00  0.00    +0.000 NA
ATOM      5  H   UNL     1       8.862   6.773  18.560  0.00  0.00    +0.000 HD
BRANCH   4   6
ATOM      6  C   UNL     1       7.831   8.301  17.596  0.00  0.00    +0.000 C 
BRANCH   6   7
ATOM      7  C   UNL     1       8.597   9.408  18.330  0.00  0.00    +0.000 C 
BRANCH   7   8
ATOM      8  N   UNL     1       8.282  10.743  17.816  0.00  0.00    +0.000 N 
ATOM      9  H   UNL     1       7.448  11.133  18.253  0.00  0.00    +0.000 HD
BRANCH   8  10
ATOM     10  C   UNL     1       9.319  11.718  17.902  0.00  0.00    +0.000 A 
ATOM     11  C   UNL     1      10.680  11.354  17.933  0.00  0.00    +0.000 A 
ATOM     12  C   UNL     1      11.691  12.310  17.967  0.00  0.00    +0.000 A 
ATOM     13  C   UNL     1      11.368  13.659  17.944  0.00  0.00    +0.000 A 
ATOM     14  C   UNL     1      10.030  14.071  17.893  0.00  0.00    +0.000 A 
ATOM     15  C   UNL     1       9.731  15.441  17.850  0.00  0.00    +0.000 A 
ATOM     16  C   UNL     1       8.412  15.885  17.796  0.00  0.00    +0.000 A 
ATOM     17  C   UNL     1       7.375  14.963  17.789  0.00  0.00    +0.000 A 
ATOM     18  C   UNL     1       7.658  13.595  17.823  0.00  0.00    +0.000 A 
ATOM     19  C   UNL     1       8.987  13.108  17.875  0.00  0.00    +0.000 A 
ENDBRANCH   8  10
ENDBRANCH   7   8
ENDBRANCH   6   7
ENDBRANCH   4   6
ENDBRANCH   1   4
BRANCH   1  20
ATOM     20  C   UNL     1       5.484   5.788  17.702  0.00  0.00    +0.000 C 
BRANCH  20  21
ATOM     21  C   UNL     1       4.932   4.450  18.210  0.00  0.00    +0.000 C 
BRANCH  21  22
ATOM     22  C   UNL     1       3.402   4.424  18.171  0.00  0.00    +0.000 C 
BRANCH  22  23
ATOM     23  N   UNL     1       2.810   5.754  18.195  0.00  0.00    +0.000 NA
ATOM     24  H   UNL     1       3.399   6.418  17.694  0.00  0.00    +0.000 HD
BRANCH  23  26
ATOM     25  C   UNL     1       1.765   5.325  20.469  0.00  0.00    +0.000 C 
ATOM     26  C   UNL     1       2.620   6.243  19.577  0.00  0.00    +0.000 C 
BRANCH  26  27
ATOM     27  C   UNL     1       2.001   7.626  19.533  0.00  0.00    +0.000 A 
ATOM     28  C   UNL     1       1.438   8.187  20.690  0.00  0.00    +0.000 A 
ATOM     29  C   UNL     1       0.870   9.459  20.649  0.00  0.00    +0.000 A 
ATOM     30  C   UNL     1       0.860  10.186  19.458  0.00  0.00    +0.000 A 
ATOM     31  C   UNL     1       1.428   9.645  18.306  0.00  0.00    +0.000 A 
ATOM     32  C   UNL     1       1.999   8.376  18.345  0.00  0.00    +0.000 A 
ENDBRANCH  26  27
ENDBRANCH  23  26
ENDBRANCH  22  23
ENDBRANCH  21  22
ENDBRANCH  20  21
ENDBRANCH   1  20
TORSDOF 11
ENDMDL
MODEL 8
REMARK VINA RESULT:      -7.4      3.868      6.763
REMARK  Name = 
REMARK  12 active torsions:
REMARK  status: ('A' for Active; 'I' for Inactive)
REMARK    1  A    between atoms: C_1  and  C_2
REMARK    2  A    between atoms: C_2  and  N_3
REMARK    3  A    between atoms: C_2  and  C_24
REMARK    4  A    between atoms: N_3  and  C_4
REMARK    5  A    between atoms: C_4  and  C_5
REMARK    6  A    between atoms: C_5  and  C_6
REMARK    7  A    between atoms: C_6  and  S_7
REMARK    8  A    between atoms: S_7  and  N_10
REMARK    9  A    between atoms: N_10  and  C_11
REMARK   10  A    between atoms: C_11  and  C_12
REMARK   11  A    between atoms: C_12  and  N_13
REMARK   12  A    between atoms: N_13  and  C_14
REMARK                            x       y       z     vdW  Elec       q    Type
REMARK                         _______ _______ _______ _____ _____    ______ ____
ROOT
ATOM      1  S   UNL     1       7.353   5.709  19.149  0.00  0.00    +0.000 S 
ATOM      2  O   UNL     1       7.901   5.185  20.378  0.00  0.00    +0.000 OA
ATOM      3  O   UNL     1       5.961   6.086  19.030  0.00  0.00    +0.000 OA
ENDROOT
BRANCH   1   4
ATOM      4  N   UNL     1       7.653   4.473  18.029  0.00  0.00    +0.000 NA
ATOM      5  H   UNL     1       7.309   3.580  18.388  0.00  0.00    +0.000 HD
BRANCH   4   6
ATOM      6  C   UNL     1       7.017   4.733  16.681  0.00  0.00    +0.000 C 
BRANCH   6   7
ATOM      7  C   UNL     1       5.785   3.857  16.426  0.00  0.00    +0.000 C 
BRANCH   7   8
ATOM      8  N   UNL     1       4.535   4.525  16.797  0.00  0.00    +0.000 N 
ATOM      9  H   UNL     1       3.994   4.803  15.979  0.00  0.00    +0.000 HD
BRANCH   8  10
ATOM     10  C   UNL     1       3.668   3.811  17.675  0.00  0.00    +0.000 A 
ATOM     11  C   UNL     1       3.581   2.405  17.653  0.00  0.00    +0.000 A 
ATOM     12  C   UNL     1       2.770   1.708  18.544  0.00  0.00    +0.000 A 
ATOM     13  C   UNL     1       2.043   2.399  19.501  0.00  0.00    +0.000 A 
ATOM     14  C   UNL     1       2.110   3.797  19.577  0.00  0.00    +0.000 A 
ATOM     15  C   UNL     1       1.381   4.470  20.568  0.00  0.00    +0.000 A 
ATOM     16  C   UNL     1       1.427   5.858  20.673  0.00  0.00    +0.000 A 
ATOM     17  C   UNL     1       2.202   6.590  19.785  0.00  0.00    +0.000 A 
ATOM     18  C   UNL     1       2.942   5.932  18.798  0.00  0.00    +0.000 A 
ATOM     19  C   UNL     1       2.920   4.523  18.664  0.00  0.00    +0.000 A 
ENDBRANCH   8  10
ENDBRANCH   7   8
ENDBRANCH   6   7
ENDBRANCH   4   6
ENDBRANCH   1   4
BRANCH   1  20
ATOM     20  C   UNL     1       8.347   7.081  18.559  0.00  0.00    +0.000 C 
BRANCH  20  21
ATOM     21  C   UNL     1       7.596   7.909  17.509  0.00  0.00    +0.000 C 
BRANCH  21  22
ATOM     22  C   UNL     1       7.804   9.410  17.725  0.00  0.00    +0.000 C 
BRANCH  22  23
ATOM     23  N   UNL     1       8.978   9.710  18.533  0.00  0.00    +0.000 NA
ATOM     24  H   UNL     1       8.785   9.548  19.520  0.00  0.00    +0.000 HD
BRANCH  23  26
ATOM     25  C   UNL     1      10.865  11.277  17.877  0.00  0.00    +0.000 C 
ATOM     26  C   UNL     1       9.413  11.113  18.364  0.00  0.00    +0.000 C 
BRANCH  26  27
ATOM     27  C   UNL     1       9.232  11.850  19.676  0.00  0.00    +0.000 A 
ATOM     28  C   UNL     1       9.024  13.238  19.685  0.00  0.00    +0.000 A 
ATOM     29  C   UNL     1       8.855  13.915  20.891  0.00  0.00    +0.000 A 
ATOM     30  C   UNL     1       8.889  13.217  22.099  0.00  0.00    +0.000 A 
ATOM     31  C   UNL     1       9.082  11.837  22.102  0.00  0.00    +0.000 A 
ATOM     32  C   UNL     1       9.246  11.157  20.898  0.00  0.00    +0.000 A 
ENDBRANCH  26  27
ENDBRANCH  23  26
ENDBRANCH  22  23
ENDBRANCH  21  22
ENDBRANCH  20  21
ENDBRANCH   1  20
TORSDOF 11
ENDMDL
MODEL 9
REMARK VINA RESULT:      -7.3      1.889      8.120
REMARK  Name = 
REMARK  12 active torsions:
REMARK  status: ('A' for Active; 'I' for Inactive)
REMARK    1  A    between atoms: C_1  and  C_2
REMARK    2  A    between atoms: C_2  and  N_3
REMARK    3  A    between atoms: C_2  and  C_24
REMARK    4  A    between atoms: N_3  and  C_4
REMARK    5  A    between atoms: C_4  and  C_5
REMARK    6  A    between atoms: C_5  and  C_6
REMARK    7  A    between atoms: C_6  and  S_7
REMARK    8  A    between atoms: S_7  and  N_10
REMARK    9  A    between atoms: N_10  and  C_11
REMARK   10  A    between atoms: C_11  and  C_12
REMARK   11  A    between atoms: C_12  and  N_13
REMARK   12  A    between atoms: N_13  and  C_14
REMARK                            x       y       z     vdW  Elec       q    Type
REMARK                         _______ _______ _______ _____ _____    ______ ____
ROOT
ATOM      1  S   UNL     1       1.826   4.811  19.850  0.00  0.00    +0.000 S 
ATOM      2  O   UNL     1       0.635   5.167  20.586  0.00  0.00    +0.000 OA
ATOM      3  O   UNL     1       1.767   4.061  18.615  0.00  0.00    +0.000 OA
ENDROOT
BRANCH   1   4
ATOM      4  N   UNL     1       2.719   3.902  20.967  0.00  0.00    +0.000 NA
ATOM      5  H   UNL     1       2.162   3.727  21.805  0.00  0.00    +0.000 HD
BRANCH   4   6
ATOM      6  C   UNL     1       3.185   2.576  20.407  0.00  0.00    +0.000 C 
BRANCH   6   7
ATOM      7  C   UNL     1       4.609   2.638  19.839  0.00  0.00    +0.000 C 
BRANCH   7   8
ATOM      8  N   UNL     1       4.638   3.096  18.448  0.00  0.00    +0.000 N 
ATOM      9  H   UNL     1       3.713   3.371  18.118  0.00  0.00    +0.000 HD
BRANCH   8  10
ATOM     10  C   UNL     1       5.545   4.153  18.145  0.00  0.00    +0.000 A 
ATOM     11  C   UNL     1       6.116   4.954  19.154  0.00  0.00    +0.000 A 
ATOM     12  C   UNL     1       7.038   5.954  18.859  0.00  0.00    +0.000 A 
ATOM     13  C   UNL     1       7.436   6.161  17.547  0.00  0.00    +0.000 A 
ATOM     14  C   UNL     1       6.912   5.379  16.510  0.00  0.00    +0.000 A 
ATOM     15  C   UNL     1       7.346   5.596  15.194  0.00  0.00    +0.000 A 
ATOM     16  C   UNL     1       6.847   4.834  14.140  0.00  0.00    +0.000 A 
ATOM     17  C   UNL     1       5.905   3.846  14.390  0.00  0.00    +0.000 A 
ATOM     18  C   UNL     1       5.470   3.612  15.697  0.00  0.00    +0.000 A 
ATOM     19  C   UNL     1       5.956   4.367  16.793  0.00  0.00    +0.000 A 
ENDBRANCH   8  10
ENDBRANCH   7   8
ENDBRANCH   6   7
ENDBRANCH   4   6
ENDBRANCH   1   4
BRANCH   1  20
ATOM     20  C   UNL     1       2.837   6.265  19.564  0.00  0.00    +0.000 C 
BRANCH  20  21
ATOM     21  C   UNL     1       2.705   6.767  18.121  0.00  0.00    +0.000 C 
BRANCH  21  22
ATOM     22  C   UNL     1       2.588   8.292  18.066  0.00  0.00    +0.000 C 
BRANCH  22  23
ATOM     23  N   UNL     1       1.215   8.752  17.921  0.00  0.00    +0.000 NA
ATOM     24  H   UNL     1       1.064   9.144  16.993  0.00  0.00    +0.000 HD
BRANCH  23  26
ATOM     25  C   UNL     1       0.897   9.282  20.384  0.00  0.00    +0.000 C 
ATOM     26  C   UNL     1       0.873   9.780  18.927  0.00  0.00    +0.000 C 
BRANCH  26  27
ATOM     27  C   UNL     1      -0.495  10.349  18.608  0.00  0.00    +0.000 A 
ATOM     28  C   UNL     1      -1.037  11.375  19.399  0.00  0.00    +0.000 A 
ATOM     29  C   UNL     1      -2.294  11.900  19.105  0.00  0.00    +0.000 A 
ATOM     30  C   UNL     1      -3.022  11.411  18.020  0.00  0.00    +0.000 A 
ATOM     31  C   UNL     1      -2.489  10.402  17.219  0.00  0.00    +0.000 A 
ATOM     32  C   UNL     1      -1.232   9.880  17.508  0.00  0.00    +0.000 A 
ENDBRANCH  26  27
ENDBRANCH  23  26
ENDBRANCH  22  23
ENDBRANCH  21  22
ENDBRANCH  20  21
ENDBRANCH   1  20
TORSDOF 11
ENDMDL
