MODEL 1
REMARK VINA RESULT:      -8.5      0.000      0.000
REMARK  Name = 
REMARK  7 active torsions:
REMARK  status: ('A' for Active; 'I' for Inactive)
REMARK    1  A    between atoms: C_1  and  C_2
REMARK    2  A    between atoms: C_2  and  C_3
REMARK    3  A    between atoms: C_3  and  N_4
REMARK    4  A    between atoms: C_3  and  C_25
REMARK    5  A    between atoms: C_5  and  C_7
REMARK    6  A    between atoms: C_8  and  N_9
REMARK    7  A    between atoms: C_10  and  C_11
REMARK                            x       y       z     vdW  Elec       q    Type
REMARK                         _______ _______ _______ _____ _____    ______ ____
ROOT
ATOM      1  C   UNL     1       1.305  10.220  19.265  0.00  0.00    +0.000 A 
ATOM      2  C   UNL     1       1.662  11.521  18.816  0.00  0.00    +0.000 A 
ATOM      3  C   UNL     1       1.441  12.590  19.706  0.00  0.00    +0.000 A 
ATOM      4  N   UNL     1       0.861  12.403  20.922  0.00  0.00    +0.000 NA
ATOM      5  C   UNL     1       0.455  11.186  21.298  0.00  0.00    +0.000 A 
ATOM      6  C   UNL     1      -0.190  11.089  22.528  0.00  0.00    +0.000 A 
ATOM      7  C   UNL     1      -0.686   9.881  23.014  0.00  0.00    +0.000 A 
ATOM      8  C   UNL     1      -0.527   8.731  22.255  0.00  0.00    +0.000 A 
ATOM      9  C   UNL     1       0.140   8.803  21.031  0.00  0.00    +0.000 A 
ATOM     10  C   UNL     1       0.635  10.033  20.512  0.00  0.00    +0.000 A 
ENDROOT
BRANCH   3  11
ATOM     11  C   UNL     1       1.739  14.019  19.430  0.00  0.00    +0.000 A 
ATOM     12  C   UNL     1       2.985  14.576  19.781  0.00  0.00    +0.000 A 
ATOM     13  C   UNL     1       3.271  15.933  19.575  0.00  0.00    +0.000 A 
ATOM     14  C   UNL     1       2.318  16.771  19.004  0.00  0.00    +0.000 A 
ATOM     15  C   UNL     1       1.079  16.252  18.651  0.00  0.00    +0.000 A 
ATOM     16  C   UNL     1       0.798  14.906  18.881  0.00  0.00    +0.000 A 
ATOM     17  F   UNL     1      -0.428  14.475  18.546  0.00  0.00    +0.000 F 
ENDBRANCH   3  11
BRANCH   1  19
ATOM     18  N   UNL     1       2.164   7.949  18.935  0.00  0.00    +0.000 N 
ATOM     19  C   UNL     1       1.546   9.044  18.359  0.00  0.00    +0.000 C 
ATOM     20  O   UNL     1       1.258   9.090  17.169  0.00  0.00    +0.000 OA
ATOM     21  H   UNL     1       2.353   7.976  19.932  0.00  0.00    +0.000 HD
BRANCH  18  22
ATOM     22  C   UNL     1       2.667   6.820  18.161  0.00  0.00    +0.000 C 
BRANCH  22  23
ATOM     23  C   UNL     1       2.131   5.514  18.715  0.00  0.00    +0.000 A 
ATOM     24  C   UNL     1       1.944   5.398  20.104  0.00  0.00    +0.000 A 
ATOM     25  C   UNL     1       1.386   4.248  20.660  0.00  0.00    +0.000 A 
ATOM     26  C   UNL     1       1.023   3.185  19.839  0.00  0.00    +0.000 A 
ATOM     27  C   UNL     1       1.246   3.261  18.466  0.00  0.00    +0.000 A 
ATOM     28  C   UNL     1       1.809   4.413  17.908  0.00  0.00    +0.000 A 
ENDBRANCH  22  23
BRANCH  22  30
ATOM     29  C   UNL     1       4.728   6.690  16.642  0.00  0.00    +0.000 C 
ATOM     30  C   UNL     1       4.209   6.896  18.061  0.00  0.00    +0.000 C 
ENDBRANCH  22  30
ENDBRANCH  18  22
ENDBRANCH   1  19
BRANCH   2  31
ATOM     31  N   UNL     1       2.399  11.688  17.606  0.00  0.00    +0.000 N 
ATOM     32  H   UNL     1       2.749  10.787  17.275  0.00  0.00    +0.000 HD
ATOM     33  H   UNL     1       1.848  12.109  16.862  0.00  0.00    +0.000 HD
ENDBRANCH   2  31
TORSDOF 6
ENDMDL
MODEL 2
REMARK VINA RESULT:      -8.4      0.847      1.214
REMARK  Name = 
REMARK  7 active torsions:
REMARK  status: ('A' for Active; 'I' for Inactive)
REMARK    1  A    between atoms: C_1  and  C_2
REMARK    2  A    between atoms: C_2  and  C_3
REMARK    3  A    between atoms: C_3  and  N_4
REMARK    4  A    between atoms: C_3  and  C_25
REMARK    5  A    between atoms: C_5  and  C_7
REMARK    6  A    between atoms: C_8  and  N_9
REMARK    7  A    between atoms: C_10  and  C_11
REMARK                            x       y       z     vdW  Elec       q    Type
REMARK                         _______ _______ _______ _____ _____    ______ ____
ROOT
ATOM      1  C   UNL     1       1.268  10.238  19.252  0.00  0.00    +0.000 A 
ATOM      2  C   UNL     1       1.571  11.549  18.792  0.00  0.00    +0.000 A 
ATOM      3  C   UNL     1       1.304  12.616  19.673  0.00  0.00    +0.000 A 
ATOM      4  N   UNL     1       0.730  12.414  20.890  0.00  0.00    +0.000 NA
ATOM      5  C   UNL     1       0.376  11.184  21.277  0.00  0.00    +0.000 A 
ATOM      6  C   UNL     1      -0.265  11.070  22.506  0.00  0.00    +0.000 A 
ATOM      7  C   UNL     1      -0.710   9.847  23.003  0.00  0.00    +0.000 A 
ATOM      8  C   UNL     1      -0.501   8.698  22.254  0.00  0.00    +0.000 A 
ATOM      9  C   UNL     1       0.163   8.788  21.029  0.00  0.00    +0.000 A 
ATOM     10  C   UNL     1       0.606  10.034  20.500  0.00  0.00    +0.000 A 
ENDROOT
BRANCH   3  11
ATOM     11  C   UNL     1       1.540  14.054  19.385  0.00  0.00    +0.000 A 
ATOM     12  C   UNL     1       0.497  14.873  18.907  0.00  0.00    +0.000 A 
ATOM     13  C   UNL     1       0.709  16.221  18.582  0.00  0.00    +0.000 A 
ATOM     14  C   UNL     1       1.969  16.789  18.734  0.00  0.00    +0.000 A 
ATOM     15  C   UNL     1       3.018  16.005  19.200  0.00  0.00    +0.000 A 
ATOM     16  C   UNL     1       2.801  14.661  19.498  0.00  0.00    +0.000 A 
ATOM     17  F   UNL     1       3.862  13.952  19.915  0.00  0.00    +0.000 F 
ENDBRANCH   3  11
BRANCH   1  19
ATOM     18  N   UNL     1       2.149   7.969  18.961  0.00  0.00    +0.000 N 
ATOM     19  C   UNL     1       1.560   9.066  18.357  0.00  0.00    +0.000 C 
ATOM     20  O   UNL     1       1.337   9.115  17.153  0.00  0.00    +0.000 OA
ATOM     21  H   UNL     1       2.284   7.993  19.967  0.00  0.00    +0.000 HD
BRANCH  18  22
ATOM     22  C   UNL     1       2.695   6.845  18.212  0.00  0.00    +0.000 C 
BRANCH  22  23
ATOM     23  C   UNL     1       2.149   5.534  18.745  0.00  0.00    +0.000 A 
ATOM     24  C   UNL     1       1.931   5.409  20.128  0.00  0.00    +0.000 A 
ATOM     25  C   UNL     1       1.362   4.255  20.664  0.00  0.00    +0.000 A 
ATOM     26  C   UNL     1       1.019   3.196  19.829  0.00  0.00    +0.000 A 
ATOM     27  C   UNL     1       1.273   3.282  18.461  0.00  0.00    +0.000 A 
ATOM     28  C   UNL     1       1.847   4.438  17.923  0.00  0.00    +0.000 A 
ENDBRANCH  22  23
BRANCH  22  30
ATOM     29  C   UNL     1       4.820   6.734  16.781  0.00  0.00    +0.000 C 
ATOM     30  C   UNL     1       4.239   6.935  18.177  0.00  0.00    +0.000 C 
ENDBRANCH  22  30
ENDBRANCH  18  22
ENDBRANCH   1  19
BRANCH   2  31
ATOM     31  N   UNL     1       2.301  11.738  17.582  0.00  0.00    +0.000 N 
ATOM     32  H   UNL     1       1.790  12.359  16.952  0.00  0.00    +0.000 HD
ATOM     33  H   UNL     1       3.227  12.130  17.734  0.00  0.00    +0.000 HD
ENDBRANCH   2  31
TORSDOF 6
ENDMDL
MODEL 3
REMARK VINA RESULT:      -8.0      4.787      6.355
REMARK  Name = 
REMARK  7 active torsions:
REMARK  status: ('A' for Active; 'I' for Inactive)
REMARK    1  A    between atoms: C_1  and  C_2
REMARK    2  A    between atoms: C_2  and  C_3
REMARK    3  A    between atoms: C_3  and  N_4
REMARK    4  A    between atoms: C_3  and  C_25
REMARK    5  A    between atoms: C_5  and  C_7
REMARK    6  A    between atoms: C_8  and  N_9
REMARK    7  A    between atoms: C_10  and  C_11
REMARK                            x       y       z     vdW  Elec       q    Type
REMARK                         _______ _______ _______ _____ _____    ______ ____
ROOT
ATOM      1  C   UNL     1      -2.292  11.564  19.257  0.00  0.00    +0.000 A 
ATOM      2  C   UNL     1      -3.135  12.323  20.114  0.00  0.00    +0.000 A 
ATOM      3  C   UNL     1      -4.457  12.545  19.682  0.00  0.00    +0.000 A 
ATOM      4  N   UNL     1      -4.900  12.104  18.474  0.00  0.00    +0.000 NA
ATOM      5  C   UNL     1      -4.074  11.462  17.642  0.00  0.00    +0.000 A 
ATOM      6  C   UNL     1      -4.585  11.101  16.399  0.00  0.00    +0.000 A 
ATOM      7  C   UNL     1      -3.811  10.457  15.436  0.00  0.00    +0.000 A 
ATOM      8  C   UNL     1      -2.488  10.153  15.723  0.00  0.00    +0.000 A 
ATOM      9  C   UNL     1      -1.965  10.483  16.975  0.00  0.00    +0.000 A 
ATOM     10  C   UNL     1      -2.737  11.159  17.962  0.00  0.00    +0.000 A 
ENDROOT
BRANCH   3  11
ATOM     11  C   UNL     1      -5.490  13.314  20.422  0.00  0.00    +0.000 A 
ATOM     12  C   UNL     1      -5.400  14.716  20.537  0.00  0.00    +0.000 A 
ATOM     13  C   UNL     1      -6.336  15.458  21.271  0.00  0.00    +0.000 A 
ATOM     14  C   UNL     1      -7.395  14.817  21.906  0.00  0.00    +0.000 A 
ATOM     15  C   UNL     1      -7.509  13.435  21.815  0.00  0.00    +0.000 A 
ATOM     16  C   UNL     1      -6.559  12.705  21.101  0.00  0.00    +0.000 A 
ATOM     17  F   UNL     1      -6.709  11.372  21.077  0.00  0.00    +0.000 F 
ENDBRANCH   3  11
BRANCH   1  19
ATOM     18  N   UNL     1      -0.617   9.982  20.093  0.00  0.00    +0.000 N 
ATOM     19  C   UNL     1      -0.880  11.279  19.688  0.00  0.00    +0.000 C 
ATOM     20  O   UNL     1      -0.037  12.167  19.727  0.00  0.00    +0.000 OA
ATOM     21  H   UNL     1      -1.361   9.296  20.013  0.00  0.00    +0.000 HD
BRANCH  18  22
ATOM     22  C   UNL     1       0.627   9.588  20.744  0.00  0.00    +0.000 C 
BRANCH  22  23
ATOM     23  C   UNL     1       1.443   8.692  19.833  0.00  0.00    +0.000 A 
ATOM     24  C   UNL     1       1.860   7.440  20.319  0.00  0.00    +0.000 A 
ATOM     25  C   UNL     1       2.549   6.546  19.501  0.00  0.00    +0.000 A 
ATOM     26  C   UNL     1       2.851   6.895  18.188  0.00  0.00    +0.000 A 
ATOM     27  C   UNL     1       2.490   8.150  17.704  0.00  0.00    +0.000 A 
ATOM     28  C   UNL     1       1.802   9.049  18.525  0.00  0.00    +0.000 A 
ENDBRANCH  22  23
BRANCH  22  30
ATOM     29  C   UNL     1      -0.473   9.932  23.034  0.00  0.00    +0.000 C 
ATOM     30  C   UNL     1       0.326   8.991  22.138  0.00  0.00    +0.000 C 
ENDBRANCH  22  30
ENDBRANCH  18  22
ENDBRANCH   1  19
BRANCH   2  31
ATOM     31  N   UNL     1      -2.709  12.655  21.434  0.00  0.00    +0.000 N 
ATOM     32  H   UNL     1      -3.501  12.981  21.992  0.00  0.00    +0.000 HD
ATOM     33  H   UNL     1      -2.278  11.872  21.920  0.00  0.00    +0.000 HD
ENDBRANCH   2  31
TORSDOF 6
ENDMDL
MODEL 4
REMARK VINA RESULT:      -8.0      3.278      8.074
REMARK  Name = 
REMARK  7 active torsions:
REMARK  status: ('A' for Active; 'I' for Inactive)
REMARK    1  A    between atoms: C_1  and  C_2
REMARK    2  A    between atoms: C_2  and  C_3
REMARK    3  A    between atoms: C_3  and  N_4
REMARK    4  A    between atoms: C_3  and  C_25
REMARK    5  A    between atoms: C_5  and  C_7
REMARK    6  A    between atoms: C_8  and  N_9
REMARK    7  A    between atoms: C_10  and  C_11
REMARK                            x       y       z     vdW  Elec       q    Type
REMARK                         _______ _______ _______ _____ _____    ______ ____
ROOT
ATOM      1  C   UNL     1       2.649   6.323  18.771  0.00  0.00    +0.000 A 
ATOM      2  C   UNL     1       3.654   6.370  17.767  0.00  0.00    +0.000 A 
ATOM      3  C   UNL     1       4.123   5.139  17.269  0.00  0.00    +0.000 A 
ATOM      4  N   UNL     1       3.679   3.951  17.761  0.00  0.00    +0.000 NA
ATOM      5  C   UNL     1       2.793   3.921  18.762  0.00  0.00    +0.000 A 
ATOM      6  C   UNL     1       2.439   2.668  19.253  0.00  0.00    +0.000 A 
ATOM      7  C   UNL     1       1.550   2.509  20.314  0.00  0.00    +0.000 A 
ATOM      8  C   UNL     1       0.988   3.635  20.899  0.00  0.00    +0.000 A 
ATOM      9  C   UNL     1       1.311   4.899  20.404  0.00  0.00    +0.000 A 
ATOM     10  C   UNL     1       2.233   5.078  19.333  0.00  0.00    +0.000 A 
ENDROOT
BRANCH   3  11
ATOM     11  C   UNL     1       5.169   4.969  16.229  0.00  0.00    +0.000 A 
ATOM     12  C   UNL     1       4.855   4.399  14.978  0.00  0.00    +0.000 A 
ATOM     13  C   UNL     1       5.834   4.185  13.998  0.00  0.00    +0.000 A 
ATOM     14  C   UNL     1       7.157   4.541  14.240  0.00  0.00    +0.000 A 
ATOM     15  C   UNL     1       7.499   5.101  15.465  0.00  0.00    +0.000 A 
ATOM     16  C   UNL     1       6.520   5.289  16.440  0.00  0.00    +0.000 A 
ATOM     17  F   UNL     1       6.921   5.806  17.612  0.00  0.00    +0.000 F 
ENDBRANCH   3  11
BRANCH   1  19
ATOM     18  N   UNL     1       1.644   8.523  18.378  0.00  0.00    +0.000 N 
ATOM     19  C   UNL     1       2.099   7.613  19.315  0.00  0.00    +0.000 C 
ATOM     20  O   UNL     1       2.114   7.853  20.516  0.00  0.00    +0.000 OA
ATOM     21  H   UNL     1       1.644   8.245  17.401  0.00  0.00    +0.000 HD
BRANCH  18  22
ATOM     22  C   UNL     1       1.287   9.897  18.711  0.00  0.00    +0.000 C 
BRANCH  22  23
ATOM     23  C   UNL     1      -0.184  10.146  18.437  0.00  0.00    +0.000 A 
ATOM     24  C   UNL     1      -0.898  10.983  19.312  0.00  0.00    +0.000 A 
ATOM     25  C   UNL     1      -2.233  11.305  19.068  0.00  0.00    +0.000 A 
ATOM     26  C   UNL     1      -2.882  10.780  17.954  0.00  0.00    +0.000 A 
ATOM     27  C   UNL     1      -2.205   9.910  17.103  0.00  0.00    +0.000 A 
ATOM     28  C   UNL     1      -0.868   9.583  17.349  0.00  0.00    +0.000 A 
ENDBRANCH  22  23
BRANCH  22  30
ATOM     29  C   UNL     1       2.112  12.315  18.495  0.00  0.00    +0.000 C 
ATOM     30  C   UNL     1       2.251  10.878  18.004  0.00  0.00    +0.000 C 
ENDBRANCH  22  30
ENDBRANCH  18  22
ENDBRANCH   1  19
BRANCH   2  31
ATOM     31  N   UNL     1       4.007   7.611  17.159  0.00  0.00    +0.000 N 
ATOM     32  H   UNL     1       3.235   7.960  16.588  0.00  0.00    +0.000 HD
ATOM     33  H   UNL     1       4.252   8.329  17.836  0.00  0.00    +0.000 HD
ENDBRANCH   2  31
TORSDOF 6
ENDMDL
MODEL 5
REMARK VINA RESULT:      -7.9      4.559      6.226
REMARK  Name = 
REMARK  7 active torsions:
REMARK  status: ('A' for Active; 'I' for Inactive)
REMARK    1  A    between atoms: C_1  and  C_2
REMARK    2  A    between atoms: C_2  and  C_3
REMARK    3  A    between atoms: C_3  and  N_4
REMARK    4  A    between atoms: C_3  and  C_25
REMARK    5  A    between atoms: C_5  and  C_7
REMARK    6  A    between atoms: C_8  and  N_9
REMARK    7  A    between atoms: C_10  and  C_11
REMARK                            x       y       z     vdW  Elec       q    Type
REMARK                         _______ _______ _______ _____ _____    ______ ____
ROOT
ATOM      1  C   UNL     1      -2.171  11.636  19.448  0.00  0.00    +0.000 A 
ATOM      2  C   UNL     1      -2.957  12.391  20.361  0.00  0.00    +0.000 A 
ATOM      3  C   UNL     1      -4.296  12.643  20.000  0.00  0.00    +0.000 A 
ATOM      4  N   UNL     1      -4.805  12.233  18.807  0.00  0.00    +0.000 NA
ATOM      5  C   UNL     1      -4.032  11.595  17.923  0.00  0.00    +0.000 A 
ATOM      6  C   UNL     1      -4.610  11.268  16.700  0.00  0.00    +0.000 A 
ATOM      7  C   UNL     1      -3.897  10.631  15.686  0.00  0.00    +0.000 A 
ATOM      8  C   UNL     1      -2.566  10.301  15.902  0.00  0.00    +0.000 A 
ATOM      9  C   UNL     1      -1.976  10.597  17.131  0.00  0.00    +0.000 A 
ATOM     10  C   UNL     1      -2.687  11.265  18.169  0.00  0.00    +0.000 A 
ENDROOT
BRANCH   3  11
ATOM     11  C   UNL     1      -5.278  13.412  20.805  0.00  0.00    +0.000 A 
ATOM     12  C   UNL     1      -6.378  12.768  21.407  0.00  0.00    +0.000 A 
ATOM     13  C   UNL     1      -7.344  13.480  22.132  0.00  0.00    +0.000 A 
ATOM     14  C   UNL     1      -7.232  14.859  22.280  0.00  0.00    +0.000 A 
ATOM     15  C   UNL     1      -6.161  15.523  21.695  0.00  0.00    +0.000 A 
ATOM     16  C   UNL     1      -5.219  14.807  20.958  0.00  0.00    +0.000 A 
ATOM     17  F   UNL     1      -4.226  15.512  20.394  0.00  0.00    +0.000 F 
ENDBRANCH   3  11
BRANCH   1  19
ATOM     18  N   UNL     1      -0.494  10.029  20.229  0.00  0.00    +0.000 N 
ATOM     19  C   UNL     1      -0.744  11.321  19.802  0.00  0.00    +0.000 C 
ATOM     20  O   UNL     1       0.125  12.184  19.764  0.00  0.00    +0.000 OA
ATOM     21  H   UNL     1      -1.261   9.363  20.213  0.00  0.00    +0.000 HD
BRANCH  18  22
ATOM     22  C   UNL     1       0.775   9.616  20.816  0.00  0.00    +0.000 C 
BRANCH  22  23
ATOM     23  C   UNL     1       1.498   8.652  19.894  0.00  0.00    +0.000 A 
ATOM     24  C   UNL     1       1.782   9.062  18.580  0.00  0.00    +0.000 A 
ATOM     25  C   UNL     1       2.508   8.246  17.714  0.00  0.00    +0.000 A 
ATOM     26  C   UNL     1       2.946   6.996  18.141  0.00  0.00    +0.000 A 
ATOM     27  C   UNL     1       2.633   6.551  19.423  0.00  0.00    +0.000 A 
ATOM     28  C   UNL     1       1.901   7.368  20.291  0.00  0.00    +0.000 A 
ENDBRANCH  22  23
BRANCH  22  30
ATOM     29  C   UNL     1      -0.464   9.917  23.039  0.00  0.00    +0.000 C 
ATOM     30  C   UNL     1       0.545   9.089  22.251  0.00  0.00    +0.000 C 
ENDBRANCH  22  30
ENDBRANCH  18  22
ENDBRANCH   1  19
BRANCH   2  31
ATOM     31  N   UNL     1      -2.461  12.689  21.664  0.00  0.00    +0.000 N 
ATOM     32  H   UNL     1      -1.950  11.890  22.042  0.00  0.00    +0.000 HD
ATOM     33  H   UNL     1      -1.843  13.497  21.677  0.00  0.00    +0.000 HD
ENDBRANCH   2  31
TORSDOF 6
ENDMDL
MODEL 6
REMARK VINA RESULT:      -7.7      4.643      6.297
REMARK  Name = 
REMARK  7 active torsions:
REMARK  status: ('A' for Active; 'I' for Inactive)
REMARK    1  A    between atoms: C_1  and  C_2
REMARK    2  A    between atoms: C_2  and  C_3
REMARK    3  A    between atoms: C_3  and  N_4
REMARK    4  A    between atoms: C_3  and  C_25
REMARK    5  A    between atoms: C_5  and  C_7
REMARK    6  A    between atoms: C_8  and  N_9
REMARK    7  A    between atoms: C_10  and  C_11
REMARK                            x       y       z     vdW  Elec       q    Type
REMARK                         _______ _______ _______ _____ _____    ______ ____
ROOT
ATOM      1  C   UNL     1      -2.173  11.909  19.839  0.00  0.00    +0.000 A 
ATOM      2  C   UNL     1      -2.895  12.666  20.801  0.00  0.00    +0.000 A 
ATOM      3  C   UNL     1      -4.247  12.944  20.516  0.00  0.00    +0.000 A 
ATOM      4  N   UNL     1      -4.828  12.556  19.349  0.00  0.00    +0.000 NA
ATOM      5  C   UNL     1      -4.115  11.916  18.418  0.00  0.00    +0.000 A 
ATOM      6  C   UNL     1      -4.764  11.612  17.225  0.00  0.00    +0.000 A 
ATOM      7  C   UNL     1      -4.118  10.975  16.167  0.00  0.00    +0.000 A 
ATOM      8  C   UNL     1      -2.784  10.620  16.306  0.00  0.00    +0.000 A 
ATOM      9  C   UNL     1      -2.122  10.893  17.505  0.00  0.00    +0.000 A 
ATOM     10  C   UNL     1      -2.764  11.561  18.587  0.00  0.00    +0.000 A 
ENDROOT
BRANCH   3  11
ATOM     11  C   UNL     1      -5.170  13.721  21.383  0.00  0.00    +0.000 A 
ATOM     12  C   UNL     1      -4.903  15.070  21.691  0.00  0.00    +0.000 A 
ATOM     13  C   UNL     1      -5.735  15.809  22.545  0.00  0.00    +0.000 A 
ATOM     14  C   UNL     1      -6.861  15.220  23.110  0.00  0.00    +0.000 A 
ATOM     15  C   UNL     1      -7.148  13.890  22.828  0.00  0.00    +0.000 A 
ATOM     16  C   UNL     1      -6.302  13.158  21.995  0.00  0.00    +0.000 A 
ATOM     17  F   UNL     1      -6.619  11.871  21.787  0.00  0.00    +0.000 F 
ENDBRANCH   3  11
BRANCH   1  19
ATOM     18  N   UNL     1      -0.477  10.251  20.456  0.00  0.00    +0.000 N 
ATOM     19  C   UNL     1      -0.735  11.566  20.112  0.00  0.00    +0.000 C 
ATOM     20  O   UNL     1       0.139  12.424  20.083  0.00  0.00    +0.000 OA
ATOM     21  H   UNL     1      -1.249   9.592  20.438  0.00  0.00    +0.000 HD
BRANCH  18  22
ATOM     22  C   UNL     1       0.813   9.798  20.962  0.00  0.00    +0.000 C 
BRANCH  22  23
ATOM     23  C   UNL     1       1.436   8.794  20.010  0.00  0.00    +0.000 A 
ATOM     24  C   UNL     1       1.595   9.156  18.661  0.00  0.00    +0.000 A 
ATOM     25  C   UNL     1       2.227   8.302  17.759  0.00  0.00    +0.000 A 
ATOM     26  C   UNL     1       2.694   7.062  18.185  0.00  0.00    +0.000 A 
ATOM     27  C   UNL     1       2.500   6.665  19.506  0.00  0.00    +0.000 A 
ATOM     28  C   UNL     1       1.863   7.520  20.411  0.00  0.00    +0.000 A 
ENDBRANCH  22  23
BRANCH  22  30
ATOM     29  C   UNL     1      -0.555   9.883  23.128  0.00  0.00    +0.000 C 
ATOM     30  C   UNL     1       0.663   9.301  22.418  0.00  0.00    +0.000 C 
ENDBRANCH  22  30
ENDBRANCH  18  22
ENDBRANCH   1  19
BRANCH   2  31
ATOM     31  N   UNL     1      -2.324  12.942  22.078  0.00  0.00    +0.000 N 
ATOM     32  H   UNL     1      -2.046  13.923  22.140  0.00  0.00    +0.000 HD
ATOM     33  H   UNL     1      -2.958  12.742  22.848  0.00  0.00    +0.000 HD
ENDBRANCH   2  31
TORSDOF 6
ENDMDL
MODEL 7
REMARK VINA RESULT:      -7.6      4.098      7.324
REMARK  Name = 
REMARK  7 active torsions:
REMARK  status: ('A' for Active; 'I' for Inactive)
REMARK    1  A    between atoms: C_1  and  C_2
REMARK    2  A    between atoms: C_2  and  C_3
REMARK    3  A    between atoms: C_3  and  N_4
REMARK    4  A    between atoms: C_3  and  C_25
REMARK    5  A    between atoms: C_5  and  C_7
REMARK    6  A    between atoms: C_8  and  N_9
REMARK    7  A    between atoms: C_10  and  C_11
REMARK                            x       y       z     vdW  Elec       q    Type
REMARK                         _______ _______ _______ _____ _____    ______ ____
ROOT
ATOM      1  C   UNL     1      -0.061  10.137  19.409  0.00  0.00    +0.000 A 
ATOM      2  C   UNL     1       0.819   9.323  18.645  0.00  0.00    +0.000 A 
ATOM      3  C   UNL     1       1.550   8.340  19.341  0.00  0.00    +0.000 A 
ATOM      4  N   UNL     1       1.465   8.204  20.692  0.00  0.00    +0.000 NA
ATOM      5  C   UNL     1       0.695   9.029  21.408  0.00  0.00    +0.000 A 
ATOM      6  C   UNL     1       0.713   8.868  22.790  0.00  0.00    +0.000 A 
ATOM      7  C   UNL     1      -0.023   9.687  23.644  0.00  0.00    +0.000 A 
ATOM      8  C   UNL     1      -0.809  10.694  23.103  0.00  0.00    +0.000 A 
ATOM      9  C   UNL     1      -0.861  10.855  21.718  0.00  0.00    +0.000 A 
ATOM     10  C   UNL     1      -0.100  10.039  20.833  0.00  0.00    +0.000 A 
ENDROOT
BRANCH   3  11
ATOM     11  C   UNL     1       2.523   7.396  18.733  0.00  0.00    +0.000 A 
ATOM     12  C   UNL     1       3.477   7.847  17.798  0.00  0.00    +0.000 A 
ATOM     13  C   UNL     1       4.373   6.967  17.176  0.00  0.00    +0.000 A 
ATOM     14  C   UNL     1       4.344   5.609  17.477  0.00  0.00    +0.000 A 
ATOM     15  C   UNL     1       3.413   5.133  18.391  0.00  0.00    +0.000 A 
ATOM     16  C   UNL     1       2.512   6.015  18.988  0.00  0.00    +0.000 A 
ATOM     17  F   UNL     1       1.618   5.487  19.838  0.00  0.00    +0.000 F 
ENDBRANCH   3  11
BRANCH   1  19
ATOM     18  N   UNL     1      -2.195  10.845  18.433  0.00  0.00    +0.000 N 
ATOM     19  C   UNL     1      -0.882  11.183  18.707  0.00  0.00    +0.000 C 
ATOM     20  O   UNL     1      -0.386  12.246  18.352  0.00  0.00    +0.000 OA
ATOM     21  H   UNL     1      -2.541   9.955  18.777  0.00  0.00    +0.000 HD
BRANCH  18  22
ATOM     22  C   UNL     1      -3.060  11.643  17.573  0.00  0.00    +0.000 C 
BRANCH  22  23
ATOM     23  C   UNL     1      -4.444  11.769  18.180  0.00  0.00    +0.000 A 
ATOM     24  C   UNL     1      -4.560  12.247  19.497  0.00  0.00    +0.000 A 
ATOM     25  C   UNL     1      -5.811  12.452  20.079  0.00  0.00    +0.000 A 
ATOM     26  C   UNL     1      -6.967  12.163  19.361  0.00  0.00    +0.000 A 
ATOM     27  C   UNL     1      -6.872  11.642  18.073  0.00  0.00    +0.000 A 
ATOM     28  C   UNL     1      -5.618  11.433  17.489  0.00  0.00    +0.000 A 
ENDBRANCH  22  23
BRANCH  22  30
ATOM     29  C   UNL     1      -2.759   9.582  16.079  0.00  0.00    +0.000 C 
ATOM     30  C   UNL     1      -3.034  11.081  16.133  0.00  0.00    +0.000 C 
ENDBRANCH  22  30
ENDBRANCH  18  22
ENDBRANCH   1  19
BRANCH   2  31
ATOM     31  N   UNL     1       0.794   9.375  17.221  0.00  0.00    +0.000 N 
ATOM     32  H   UNL     1       1.184  10.260  16.890  0.00  0.00    +0.000 HD
ATOM     33  H   UNL     1       1.315   8.616  16.787  0.00  0.00    +0.000 HD
ENDBRANCH   2  31
TORSDOF 6
ENDMDL
MODEL 8
REMARK VINA RESULT:      -7.5      4.835      6.681
REMARK  Name = 
REMARK  7 active torsions:
REMARK  status: ('A' for Active; 'I' for Inactive)
REMARK    1  A    between atoms: C_1  and  C_2
REMARK    2  A    between atoms: C_2  and  C_3
REMARK    3  A    between atoms: C_3  and  N_4
REMARK    4  A    between atoms: C_3  and  C_25
REMARK    5  A    between atoms: C_5  and  C_7
REMARK    6  A    between atoms: C_8  and  N_9
REMARK    7  A    between atoms: C_10  and  C_11
REMARK                            x       y       z     vdW  Elec       q    Type
REMARK                         _______ _______ _______ _____ _____    ______ ____
ROOT
ATOM      1  C   UNL     1      -2.541  12.048  20.074  0.00  0.00    +0.000 A 
ATOM      2  C   UNL     1      -3.289  12.608  21.145  0.00  0.00    +0.000 A 
ATOM      3  C   UNL     1      -4.675  12.765  20.947  0.00  0.00    +0.000 A 
ATOM      4  N   UNL     1      -5.270  12.448  19.766  0.00  0.00    +0.000 NA
ATOM      5  C   UNL     1      -4.542  11.998  18.739  0.00  0.00    +0.000 A 
ATOM      6  C   UNL     1      -5.216  11.760  17.545  0.00  0.00    +0.000 A 
ATOM      7  C   UNL     1      -4.561  11.320  16.397  0.00  0.00    +0.000 A 
ATOM      8  C   UNL     1      -3.191  11.102  16.441  0.00  0.00    +0.000 A 
ATOM      9  C   UNL     1      -2.502  11.310  17.637  0.00  0.00    +0.000 A 
ATOM     10  C   UNL     1      -3.154  11.778  18.814  0.00  0.00    +0.000 A 
ENDROOT
BRANCH   3  11
ATOM     11  C   UNL     1      -5.629  13.333  21.933  0.00  0.00    +0.000 A 
ATOM     12  C   UNL     1      -5.368  14.569  22.558  0.00  0.00    +0.000 A 
ATOM     13  C   UNL     1      -6.230  15.102  23.527  0.00  0.00    +0.000 A 
ATOM     14  C   UNL     1      -7.383  14.414  23.894  0.00  0.00    +0.000 A 
ATOM     15  C   UNL     1      -7.666  13.192  23.298  0.00  0.00    +0.000 A 
ATOM     16  C   UNL     1      -6.790  12.661  22.352  0.00  0.00    +0.000 A 
ATOM     17  F   UNL     1      -7.104  11.462  21.837  0.00  0.00    +0.000 F 
ENDBRANCH   3  11
BRANCH   1  19
ATOM     18  N   UNL     1      -0.659  10.544  20.526  0.00  0.00    +0.000 N 
ATOM     19  C   UNL     1      -1.062  11.838  20.249  0.00  0.00    +0.000 C 
ATOM     20  O   UNL     1      -0.278  12.777  20.202  0.00  0.00    +0.000 OA
ATOM     21  H   UNL     1      -1.365   9.813  20.528  0.00  0.00    +0.000 HD
BRANCH  18  22
ATOM     22  C   UNL     1       0.697  10.203  20.939  0.00  0.00    +0.000 C 
BRANCH  22  23
ATOM     23  C   UNL     1       1.326   9.237  19.952  0.00  0.00    +0.000 A 
ATOM     24  C   UNL     1       1.762   7.986  20.421  0.00  0.00    +0.000 A 
ATOM     25  C   UNL     1       2.280   7.032  19.546  0.00  0.00    +0.000 A 
ATOM     26  C   UNL     1       2.390   7.320  18.189  0.00  0.00    +0.000 A 
ATOM     27  C   UNL     1       2.009   8.573  17.713  0.00  0.00    +0.000 A 
ATOM     28  C   UNL     1       1.493   9.532  18.590  0.00  0.00    +0.000 A 
ENDBRANCH  22  23
BRANCH  22  30
ATOM     29  C   UNL     1      -0.707   9.478  22.957  0.00  0.00    +0.000 C 
ATOM     30  C   UNL     1       0.695   9.717  22.407  0.00  0.00    +0.000 C 
ENDBRANCH  22  30
ENDBRANCH  18  22
ENDBRANCH   1  19
BRANCH   2  31
ATOM     31  N   UNL     1      -2.685  12.801  22.422  0.00  0.00    +0.000 N 
ATOM     32  H   UNL     1      -3.397  13.007  23.125  0.00  0.00    +0.000 HD
ATOM     33  H   UNL     1      -2.153  11.992  22.736  0.00  0.00    +0.000 HD
ENDBRANCH   2  31
TORSDOF 6
ENDMDL
MODEL 9
REMARK VINA RESULT:      -7.4      4.678      6.517
REMARK  Name = 
REMARK  7 active torsions:
REMARK  status: ('A' for Active; 'I' for Inactive)
REMARK    1  A    between atoms: C_1  and  C_2
REMARK    2  A    between atoms: C_2  and  C_3
REMARK    3  A    between atoms: C_3  and  N_4
REMARK    4  A    between atoms: C_3  and  C_25
REMARK    5  A    between atoms: C_5  and  C_7
REMARK    6  A    between atoms: C_8  and  N_9
REMARK    7  A    between atoms: C_10  and  C_11
REMARK                            x       y       z     vdW  Elec       q    Type
REMARK                         _______ _______ _______ _____ _____    ______ ____
ROOT
ATOM      1  C   UNL     1      -2.408  12.183  20.240  0.00  0.00    +0.000 A 
ATOM      2  C   UNL     1      -3.118  12.816  21.296  0.00  0.00    +0.000 A 
ATOM      3  C   UNL     1      -4.500  13.021  21.109  0.00  0.00    +0.000 A 
ATOM      4  N   UNL     1      -5.123  12.681  19.948  0.00  0.00    +0.000 NA
ATOM      5  C   UNL     1      -4.428  12.162  18.932  0.00  0.00    +0.000 A 
ATOM      6  C   UNL     1      -5.126  11.904  17.756  0.00  0.00    +0.000 A 
ATOM      7  C   UNL     1      -4.505  11.392  16.619  0.00  0.00    +0.000 A 
ATOM      8  C   UNL     1      -3.144  11.121  16.656  0.00  0.00    +0.000 A 
ATOM      9  C   UNL     1      -2.431  11.349  17.834  0.00  0.00    +0.000 A 
ATOM     10  C   UNL     1      -3.049  11.889  18.999  0.00  0.00    +0.000 A 
ENDROOT
BRANCH   3  11
ATOM     11  C   UNL     1      -5.418  13.666  22.082  0.00  0.00    +0.000 A 
ATOM     12  C   UNL     1      -6.132  12.892  23.019  0.00  0.00    +0.000 A 
ATOM     13  C   UNL     1      -7.040  13.474  23.916  0.00  0.00    +0.000 A 
ATOM     14  C   UNL     1      -7.255  14.848  23.903  0.00  0.00    +0.000 A 
ATOM     15  C   UNL     1      -6.568  15.636  22.988  0.00  0.00    +0.000 A 
ATOM     16  C   UNL     1      -5.684  15.045  22.086  0.00  0.00    +0.000 A 
ATOM     17  F   UNL     1      -5.077  15.858  21.208  0.00  0.00    +0.000 F 
ENDBRANCH   3  11
BRANCH   1  19
ATOM     18  N   UNL     1      -0.571  10.599  20.589  0.00  0.00    +0.000 N 
ATOM     19  C   UNL     1      -0.936  11.920  20.406  0.00  0.00    +0.000 C 
ATOM     20  O   UNL     1      -0.127  12.839  20.432  0.00  0.00    +0.000 OA
ATOM     21  H   UNL     1      -1.296   9.890  20.534  0.00  0.00    +0.000 HD
BRANCH  18  22
ATOM     22  C   UNL     1       0.773  10.191  20.982  0.00  0.00    +0.000 C 
BRANCH  22  23
ATOM     23  C   UNL     1       1.361   9.240  19.957  0.00  0.00    +0.000 A 
ATOM     24  C   UNL     1       1.825   7.987  20.392  0.00  0.00    +0.000 A 
ATOM     25  C   UNL     1       2.308   7.045  19.484  0.00  0.00    +0.000 A 
ATOM     26  C   UNL     1       2.352   7.347  18.127  0.00  0.00    +0.000 A 
ATOM     27  C   UNL     1       1.942   8.602  17.682  0.00  0.00    +0.000 A 
ATOM     28  C   UNL     1       1.462   9.549  18.592  0.00  0.00    +0.000 A 
ENDBRANCH  22  23
BRANCH  22  30
ATOM     29  C   UNL     1      -0.649   9.412  22.967  0.00  0.00    +0.000 C 
ATOM     30  C   UNL     1       0.758   9.652  22.431  0.00  0.00    +0.000 C 
ENDBRANCH  22  30
ENDBRANCH  18  22
ENDBRANCH   1  19
BRANCH   2  31
ATOM     31  N   UNL     1      -2.490  13.034  22.558  0.00  0.00    +0.000 N 
ATOM     32  H   UNL     1      -2.951  13.798  23.057  0.00  0.00    +0.000 HD
ATOM     33  H   UNL     1      -2.502  12.211  23.155  0.00  0.00    +0.000 HD
ENDBRANCH   2  31
TORSDOF 6
ENDMDL
