MODEL 1
REMARK VINA RESULT:      -5.6      0.000      0.000
REMARK  Name = 
REMARK  3 active torsions:
REMARK  status: ('A' for Active; 'I' for Inactive)
REMARK    1  A    between atoms: N_1  and  C_2
REMARK    2  A    between atoms: C_2  and  C_3
REMARK    3  A    between atoms: C_3  and  C_4
REMARK                            x       y       z     vdW  Elec       q    Type
REMARK                         _______ _______ _______ _____ _____    ______ ____
ROOT
ATOM      1  C   UNL     1       5.102   4.610  17.261  0.00  0.00    +0.000 A 
ATOM      2  C   UNL     1       6.055   4.462  18.250  0.00  0.00    +0.000 A 
ATOM      3  N   UNL     1       5.554   3.630  19.215  0.00  0.00    +0.000 N 
ATOM      4  C   UNL     1       4.282   3.231  18.881  0.00  0.00    +0.000 A 
ATOM      5  C   UNL     1       3.383   2.412  19.563  0.00  0.00    +0.000 A 
ATOM      6  C   UNL     1       2.168   2.217  18.925  0.00  0.00    +0.000 A 
ATOM      7  N   UNL     1       1.826   2.746  17.730  0.00  0.00    +0.000 NA
ATOM      8  C   UNL     1       2.719   3.541  17.086  0.00  0.00    +0.000 A 
ATOM      9  C   UNL     1       3.973   3.813  17.651  0.00  0.00    +0.000 A 
ATOM     10  H   UNL     1       6.038   3.358  20.059  0.00  0.00    +0.000 HD
ENDROOT
BRANCH   1  11
ATOM     11  C   UNL     1       5.226   5.463  16.035  0.00  0.00    +0.000 C 
BRANCH  11  12
ATOM     12  C   UNL     1       6.016   4.779  14.915  0.00  0.00    +0.000 C 
BRANCH  12  13
ATOM     13  N   UNL     1       7.394   5.271  14.856  0.00  0.00    +0.000 NA
ATOM     14  H   UNL     1       7.383   6.286  14.758  0.00  0.00    +0.000 HD
ATOM     15  H   UNL     1       7.851   4.911  14.020  0.00  0.00    +0.000 HD
ENDBRANCH  12  13
ENDBRANCH  11  12
ENDBRANCH   1  11
TORSDOF 3
ENDMDL
MODEL 2
REMARK VINA RESULT:      -5.4      1.358      4.538
REMARK  Name = 
REMARK  3 active torsions:
REMARK  status: ('A' for Active; 'I' for Inactive)
REMARK    1  A    between atoms: N_1  and  C_2
REMARK    2  A    between atoms: C_2  and  C_3
REMARK    3  A    between atoms: C_3  and  C_4
REMARK                            x       y       z     vdW  Elec       q    Type
REMARK                         _______ _______ _______ _____ _____    ______ ____
ROOT
ATOM      1  C   UNL     1       3.709   4.250  18.112  0.00  0.00    +0.000 A 
ATOM      2  C   UNL     1       4.281   3.360  19.001  0.00  0.00    +0.000 A 
ATOM      3  N   UNL     1       5.632   3.579  19.027  0.00  0.00    +0.000 N 
ATOM      4  C   UNL     1       5.962   4.597  18.164  0.00  0.00    +0.000 A 
ATOM      5  C   UNL     1       7.204   5.144  17.845  0.00  0.00    +0.000 A 
ATOM      6  C   UNL     1       7.168   6.176  16.919  0.00  0.00    +0.000 A 
ATOM      7  N   UNL     1       6.048   6.663  16.343  0.00  0.00    +0.000 NA
ATOM      8  C   UNL     1       4.851   6.110  16.669  0.00  0.00    +0.000 A 
ATOM      9  C   UNL     1       4.776   5.053  17.586  0.00  0.00    +0.000 A 
ATOM     10  H   UNL     1       6.296   3.062  19.585  0.00  0.00    +0.000 HD
ENDROOT
BRANCH   1  11
ATOM     11  C   UNL     1       2.256   4.331  17.756  0.00  0.00    +0.000 C 
BRANCH  11  12
ATOM     12  C   UNL     1       1.346   3.751  18.843  0.00  0.00    +0.000 C 
BRANCH  12  13
ATOM     13  N   UNL     1       0.778   2.464  18.434  0.00  0.00    +0.000 NA
ATOM     14  H   UNL     1       1.449   1.723  18.637  0.00  0.00    +0.000 HD
ATOM     15  H   UNL     1       0.644   2.454  17.424  0.00  0.00    +0.000 HD
ENDBRANCH  12  13
ENDBRANCH  11  12
ENDBRANCH   1  11
TORSDOF 3
ENDMDL
MODEL 3
REMARK VINA RESULT:      -5.4      1.739      1.990
REMARK  Name = 
REMARK  3 active torsions:
REMARK  status: ('A' for Active; 'I' for Inactive)
REMARK    1  A    between atoms: N_1  and  C_2
REMARK    2  A    between atoms: C_2  and  C_3
REMARK    3  A    between atoms: C_3  and  C_4
REMARK                            x       y       z     vdW  Elec       q    Type
REMARK                         _______ _______ _______ _____ _____    ______ ____
ROOT
ATOM      1  C   UNL     1       4.683   4.504  16.736  0.00  0.00    +0.000 A 
ATOM      2  C   UNL     1       4.516   5.855  16.970  0.00  0.00    +0.000 A 
ATOM      3  N   UNL     1       3.408   6.026  17.756  0.00  0.00    +0.000 N 
ATOM      4  C   UNL     1       2.839   4.809  18.042  0.00  0.00    +0.000 A 
ATOM      5  C   UNL     1       1.699   4.495  18.780  0.00  0.00    +0.000 A 
ATOM      6  C   UNL     1       1.412   3.142  18.866  0.00  0.00    +0.000 A 
ATOM      7  N   UNL     1       2.146   2.155  18.308  0.00  0.00    +0.000 NA
ATOM      8  C   UNL     1       3.251   2.488  17.592  0.00  0.00    +0.000 A 
ATOM      9  C   UNL     1       3.624   3.829  17.432  0.00  0.00    +0.000 A 
ATOM     10  H   UNL     1       3.050   6.916  18.072  0.00  0.00    +0.000 HD
ENDROOT
BRANCH   1  11
ATOM     11  C   UNL     1       5.754   3.879  15.895  0.00  0.00    +0.000 C 
BRANCH  11  12
ATOM     12  C   UNL     1       7.082   4.640  15.964  0.00  0.00    +0.000 C 
BRANCH  12  13
ATOM     13  N   UNL     1       7.878   4.221  17.120  0.00  0.00    +0.000 NA
ATOM     14  H   UNL     1       7.568   4.736  17.944  0.00  0.00    +0.000 HD
ATOM     15  H   UNL     1       8.853   4.479  16.976  0.00  0.00    +0.000 HD
ENDBRANCH  12  13
ENDBRANCH  11  12
ENDBRANCH   1  11
TORSDOF 3
ENDMDL
MODEL 4
REMARK VINA RESULT:      -5.4      1.239      1.291
REMARK  Name = 
REMARK  3 active torsions:
REMARK  status: ('A' for Active; 'I' for Inactive)
REMARK    1  A    between atoms: N_1  and  C_2
REMARK    2  A    between atoms: C_2  and  C_3
REMARK    3  A    between atoms: C_3  and  C_4
REMARK                            x       y       z     vdW  Elec       q    Type
REMARK                         _______ _______ _______ _____ _____    ______ ____
ROOT
ATOM      1  C   UNL     1       4.784   4.999  17.973  0.00  0.00    +0.000 A 
ATOM      2  C   UNL     1       5.725   4.351  18.751  0.00  0.00    +0.000 A 
ATOM      3  N   UNL     1       5.137   3.253  19.319  0.00  0.00    +0.000 N 
ATOM      4  C   UNL     1       3.821   3.168  18.932  0.00  0.00    +0.000 A 
ATOM      5  C   UNL     1       2.836   2.242  19.274  0.00  0.00    +0.000 A 
ATOM      6  C   UNL     1       1.599   2.462  18.690  0.00  0.00    +0.000 A 
ATOM      7  N   UNL     1       1.309   3.473  17.842  0.00  0.00    +0.000 NA
ATOM      8  C   UNL     1       2.285   4.363  17.527  0.00  0.00    +0.000 A 
ATOM      9  C   UNL     1       3.571   4.238  18.072  0.00  0.00    +0.000 A 
ATOM     10  H   UNL     1       5.594   2.604  19.944  0.00  0.00    +0.000 HD
ENDROOT
BRANCH   1  11
ATOM     11  C   UNL     1       4.998   6.265  17.202  0.00  0.00    +0.000 C 
BRANCH  11  12
ATOM     12  C   UNL     1       6.429   6.799  17.323  0.00  0.00    +0.000 C 
BRANCH  12  13
ATOM     13  N   UNL     1       7.286   6.276  16.258  0.00  0.00    +0.000 NA
ATOM     14  H   UNL     1       8.175   6.775  16.268  0.00  0.00    +0.000 HD
ATOM     15  H   UNL     1       6.864   6.471  15.351  0.00  0.00    +0.000 HD
ENDBRANCH  12  13
ENDBRANCH  11  12
ENDBRANCH   1  11
TORSDOF 3
ENDMDL
MODEL 5
REMARK VINA RESULT:      -5.3      1.530      1.558
REMARK  Name = 
REMARK  3 active torsions:
REMARK  status: ('A' for Active; 'I' for Inactive)
REMARK    1  A    between atoms: N_1  and  C_2
REMARK    2  A    between atoms: C_2  and  C_3
REMARK    3  A    between atoms: C_3  and  C_4
REMARK                            x       y       z     vdW  Elec       q    Type
REMARK                         _______ _______ _______ _____ _____    ______ ____
ROOT
ATOM      1  C   UNL     1       4.644   4.625  17.712  0.00  0.00    +0.000 A 
ATOM      2  C   UNL     1       5.078   5.454  18.730  0.00  0.00    +0.000 A 
ATOM      3  N   UNL     1       4.121   5.476  19.709  0.00  0.00    +0.000 N 
ATOM      4  C   UNL     1       3.059   4.679  19.352  0.00  0.00    +0.000 A 
ATOM      5  C   UNL     1       1.862   4.417  20.015  0.00  0.00    +0.000 A 
ATOM      6  C   UNL     1       1.004   3.551  19.355  0.00  0.00    +0.000 A 
ATOM      7  N   UNL     1       1.256   2.969  18.162  0.00  0.00    +0.000 NA
ATOM      8  C   UNL     1       2.429   3.243  17.535  0.00  0.00    +0.000 A 
ATOM      9  C   UNL     1       3.362   4.115  18.111  0.00  0.00    +0.000 A 
ATOM     10  H   UNL     1       4.175   6.009  20.565  0.00  0.00    +0.000 HD
ENDROOT
BRANCH   1  11
ATOM     11  C   UNL     1       5.371   4.344  16.433  0.00  0.00    +0.000 C 
BRANCH  11  12
ATOM     12  C   UNL     1       6.884   4.548  16.554  0.00  0.00    +0.000 C 
BRANCH  12  13
ATOM     13  N   UNL     1       7.368   5.542  15.594  0.00  0.00    +0.000 NA
ATOM     14  H   UNL     1       6.716   5.597  14.812  0.00  0.00    +0.000 HD
ATOM     15  H   UNL     1       8.256   5.236  15.201  0.00  0.00    +0.000 HD
ENDBRANCH  12  13
ENDBRANCH  11  12
ENDBRANCH   1  11
TORSDOF 3
ENDMDL
MODEL 6
REMARK VINA RESULT:      -5.3      1.330      4.207
REMARK  Name = 
REMARK  3 active torsions:
REMARK  status: ('A' for Active; 'I' for Inactive)
REMARK    1  A    between atoms: N_1  and  C_2
REMARK    2  A    between atoms: C_2  and  C_3
REMARK    3  A    between atoms: C_3  and  C_4
REMARK                            x       y       z     vdW  Elec       q    Type
REMARK                         _______ _______ _______ _____ _____    ______ ____
ROOT
ATOM      1  C   UNL     1       3.979   4.927  18.243  0.00  0.00    +0.000 A 
ATOM      2  C   UNL     1       4.570   4.222  19.274  0.00  0.00    +0.000 A 
ATOM      3  N   UNL     1       5.879   3.988  18.945  0.00  0.00    +0.000 N 
ATOM      4  C   UNL     1       6.160   4.523  17.711  0.00  0.00    +0.000 A 
ATOM      5  C   UNL     1       7.338   4.512  16.968  0.00  0.00    +0.000 A 
ATOM      6  C   UNL     1       7.265   5.159  15.744  0.00  0.00    +0.000 A 
ATOM      7  N   UNL     1       6.167   5.778  15.258  0.00  0.00    +0.000 NA
ATOM      8  C   UNL     1       5.031   5.773  16.001  0.00  0.00    +0.000 A 
ATOM      9  C   UNL     1       4.993   5.136  17.249  0.00  0.00    +0.000 A 
ATOM     10  H   UNL     1       6.542   3.484  19.517  0.00  0.00    +0.000 HD
ENDROOT
BRANCH   1  11
ATOM     11  C   UNL     1       2.546   5.359  18.177  0.00  0.00    +0.000 C 
BRANCH  11  12
ATOM     12  C   UNL     1       1.575   4.179  18.068  0.00  0.00    +0.000 C 
BRANCH  12  13
ATOM     13  N   UNL     1       2.032   3.201  17.078  0.00  0.00    +0.000 NA
ATOM     14  H   UNL     1       2.289   2.338  17.556  0.00  0.00    +0.000 HD
ATOM     15  H   UNL     1       2.882   3.540  16.629  0.00  0.00    +0.000 HD
ENDBRANCH  12  13
ENDBRANCH  11  12
ENDBRANCH   1  11
TORSDOF 3
ENDMDL
MODEL 7
REMARK VINA RESULT:      -5.3      2.140      4.829
REMARK  Name = 
REMARK  3 active torsions:
REMARK  status: ('A' for Active; 'I' for Inactive)
REMARK    1  A    between atoms: N_1  and  C_2
REMARK    2  A    between atoms: C_2  and  C_3
REMARK    3  A    between atoms: C_3  and  C_4
REMARK                            x       y       z     vdW  Elec       q    Type
REMARK                         _______ _______ _______ _____ _____    ______ ____
ROOT
ATOM      1  C   UNL     1       2.473   3.205  18.888  0.00  0.00    +0.000 A 
ATOM      2  C   UNL     1       2.961   1.950  18.574  0.00  0.00    +0.000 A 
ATOM      3  N   UNL     1       3.988   2.096  17.680  0.00  0.00    +0.000 N 
ATOM      4  C   UNL     1       4.183   3.426  17.395  0.00  0.00    +0.000 A 
ATOM      5  C   UNL     1       5.089   4.043  16.534  0.00  0.00    +0.000 A 
ATOM      6  C   UNL     1       5.007   5.426  16.492  0.00  0.00    +0.000 A 
ATOM      7  N   UNL     1       4.144   6.175  17.212  0.00  0.00    +0.000 NA
ATOM      8  C   UNL     1       3.270   5.549  18.042  0.00  0.00    +0.000 A 
ATOM      9  C   UNL     1       3.260   4.152  18.150  0.00  0.00    +0.000 A 
ATOM     10  H   UNL     1       4.520   1.338  17.275  0.00  0.00    +0.000 HD
ENDROOT
BRANCH   1  11
ATOM     11  C   UNL     1       1.325   3.501  19.804  0.00  0.00    +0.000 C 
BRANCH  11  12
ATOM     12  C   UNL     1       1.778   3.899  21.212  0.00  0.00    +0.000 C 
BRANCH  12  13
ATOM     13  N   UNL     1       1.913   2.728  22.081  0.00  0.00    +0.000 NA
ATOM     14  H   UNL     1       2.366   1.977  21.560  0.00  0.00    +0.000 HD
ATOM     15  H   UNL     1       0.990   2.380  22.333  0.00  0.00    +0.000 HD
ENDBRANCH  12  13
ENDBRANCH  11  12
ENDBRANCH   1  11
TORSDOF 3
ENDMDL
MODEL 8
REMARK VINA RESULT:      -5.3      2.023      3.646
REMARK  Name = 
REMARK  3 active torsions:
REMARK  status: ('A' for Active; 'I' for Inactive)
REMARK    1  A    between atoms: N_1  and  C_2
REMARK    2  A    between atoms: C_2  and  C_3
REMARK    3  A    between atoms: C_3  and  C_4
REMARK                            x       y       z     vdW  Elec       q    Type
REMARK                         _______ _______ _______ _____ _____    ______ ____
ROOT
ATOM      1  C   UNL     1       6.039   4.295  14.501  0.00  0.00    +0.000 A 
ATOM      2  C   UNL     1       7.201   5.035  14.392  0.00  0.00    +0.000 A 
ATOM      3  N   UNL     1       7.567   5.456  15.643  0.00  0.00    +0.000 N 
ATOM      4  C   UNL     1       6.662   5.009  16.576  0.00  0.00    +0.000 A 
ATOM      5  C   UNL     1       6.612   5.207  17.954  0.00  0.00    +0.000 A 
ATOM      6  C   UNL     1       5.542   4.602  18.594  0.00  0.00    +0.000 A 
ATOM      7  N   UNL     1       4.593   3.858  17.985  0.00  0.00    +0.000 NA
ATOM      8  C   UNL     1       4.663   3.682  16.640  0.00  0.00    +0.000 A 
ATOM      9  C   UNL     1       5.699   4.261  15.895  0.00  0.00    +0.000 A 
ATOM     10  H   UNL     1       8.375   6.023  15.854  0.00  0.00    +0.000 HD
ENDROOT
BRANCH   1  11
ATOM     11  C   UNL     1       5.278   3.676  13.369  0.00  0.00    +0.000 C 
BRANCH  11  12
ATOM     12  C   UNL     1       6.174   3.317  12.178  0.00  0.00    +0.000 C 
BRANCH  12  13
ATOM     13  N   UNL     1       5.939   1.944  11.728  0.00  0.00    +0.000 NA
ATOM     14  H   UNL     1       4.934   1.771  11.691  0.00  0.00    +0.000 HD
ATOM     15  H   UNL     1       6.313   1.290  12.414  0.00  0.00    +0.000 HD
ENDBRANCH  12  13
ENDBRANCH  11  12
ENDBRANCH   1  11
TORSDOF 3
ENDMDL
MODEL 9
REMARK VINA RESULT:      -5.2      2.125      4.620
REMARK  Name = 
REMARK  3 active torsions:
REMARK  status: ('A' for Active; 'I' for Inactive)
REMARK    1  A    between atoms: N_1  and  C_2
REMARK    2  A    between atoms: C_2  and  C_3
REMARK    3  A    between atoms: C_3  and  C_4
REMARK                            x       y       z     vdW  Elec       q    Type
REMARK                         _______ _______ _______ _____ _____    ______ ____
ROOT
ATOM      1  C   UNL     1       3.102   2.890  18.984  0.00  0.00    +0.000 A 
ATOM      2  C   UNL     1       4.112   2.190  19.616  0.00  0.00    +0.000 A 
ATOM      3  N   UNL     1       5.273   2.908  19.505  0.00  0.00    +0.000 N 
ATOM      4  C   UNL     1       5.046   4.069  18.805  0.00  0.00    +0.000 A 
ATOM      5  C   UNL     1       5.923   5.086  18.431  0.00  0.00    +0.000 A 
ATOM      6  C   UNL     1       5.344   6.126  17.721  0.00  0.00    +0.000 A 
ATOM      7  N   UNL     1       4.037   6.209  17.393  0.00  0.00    +0.000 NA
ATOM      8  C   UNL     1       3.204   5.204  17.766  0.00  0.00    +0.000 A 
ATOM      9  C   UNL     1       3.689   4.099  18.478  0.00  0.00    +0.000 A 
ATOM     10  H   UNL     1       6.171   2.624  19.869  0.00  0.00    +0.000 HD
ENDROOT
BRANCH   1  11
ATOM     11  C   UNL     1       1.678   2.447  18.840  0.00  0.00    +0.000 C 
BRANCH  11  12
ATOM     12  C   UNL     1       0.722   3.219  19.756  0.00  0.00    +0.000 C 
BRANCH  12  13
ATOM     13  N   UNL     1       0.952   2.892  21.164  0.00  0.00    +0.000 NA
ATOM     14  H   UNL     1       0.256   3.371  21.737  0.00  0.00    +0.000 HD
ATOM     15  H   UNL     1       1.857   3.257  21.458  0.00  0.00    +0.000 HD
ENDBRANCH  12  13
ENDBRANCH  11  12
ENDBRANCH   1  11
TORSDOF 3
ENDMDL
