MODEL 1
REMARK VINA RESULT:      -7.6      0.000      0.000
REMARK  Name = 
REMARK  6 active torsions:
REMARK  status: ('A' for Active; 'I' for Inactive)
REMARK    1  A    between atoms: C_5  and  C_6
REMARK    2  A    between atoms: C_6  and  O_8
REMARK    3  A    between atoms: O_8  and  C_9
REMARK    4  A    between atoms: C_9  and  C_10
REMARK    5  A    between atoms: C_16  and  O_17
REMARK    6  A    between atoms: O_17  and  C_18
REMARK                            x       y       z     vdW  Elec       q    Type
REMARK                         _______ _______ _______ _____ _____    ______ ____
ROOT
ATOM      1  C   UNL     1       3.805   3.917  17.065  0.00  0.00    +0.000 C 
ENDROOT
BRANCH   1   2
ATOM      2  C   UNL     1       3.301   4.917  18.086  0.00  0.00    +0.000 A 
ATOM      3  C   UNL     1       3.203   6.280  17.720  0.00  0.00    +0.000 A 
ATOM      4  C   UNL     1       2.609   7.223  18.558  0.00  0.00    +0.000 A 
ATOM      5 CL   UNL     1       2.425   8.847  18.016  0.00  0.00    +0.000 Cl
ATOM      6  C   UNL     1       2.134   6.846  19.801  0.00  0.00    +0.000 A 
ATOM      7  C   UNL     1       2.265   5.517  20.200  0.00  0.00    +0.000 A 
ATOM      8  C   UNL     1       2.851   4.549  19.368  0.00  0.00    +0.000 A 
BRANCH   8   9
ATOM      9  O   UNL     1       2.801   3.292  19.901  0.00  0.00    +0.000 OA
BRANCH   9  10
ATOM     10  C   UNL     1       1.590   2.569  19.781  0.00  0.00    +0.000 C 
ATOM     11  F   UNL     1       0.891   2.746  20.931  0.00  0.00    +0.000 F 
ATOM     12  F   UNL     1       0.857   3.140  18.795  0.00  0.00    +0.000 F 
ENDBRANCH   9  10
ENDBRANCH   8   9
ENDBRANCH   1   2
BRANCH   1  13
ATOM     13  O   UNL     1       5.195   3.606  17.217  0.00  0.00    +0.000 OA
BRANCH  13  14
ATOM     14  C   UNL     1       6.009   4.032  16.208  0.00  0.00    +0.000 C 
ATOM     15  O   UNL     1       5.787   3.871  15.012  0.00  0.00    +0.000 OA
BRANCH  14  20
ATOM     16  O   UNL     1       7.534   8.270  17.256  0.00  0.00    +0.000 OA
ATOM     17  C   UNL     1       7.495   7.059  17.362  0.00  0.00    +0.000 C 
ATOM     18  C   UNL     1       7.736   6.256  18.608  0.00  0.00    +0.000 C 
ATOM     19  C   UNL     1       7.114   4.903  18.270  0.00  0.00    +0.000 C 
ATOM     20  C   UNL     1       7.202   4.805  16.755  0.00  0.00    +0.000 C 
ATOM     21  N   UNL     1       7.263   6.183  16.329  0.00  0.00    +0.000 N 
ATOM     22  H   UNL     1       7.041   6.516  15.396  0.00  0.00    +0.000 HD
ENDBRANCH  14  20
ENDBRANCH  13  14
ENDBRANCH   1  13
TORSDOF 6
ENDMDL
MODEL 2
REMARK VINA RESULT:      -7.5      3.862      5.631
REMARK  Name = 
REMARK  6 active torsions:
REMARK  status: ('A' for Active; 'I' for Inactive)
REMARK    1  A    between atoms: C_5  and  C_6
REMARK    2  A    between atoms: C_6  and  O_8
REMARK    3  A    between atoms: O_8  and  C_9
REMARK    4  A    between atoms: C_9  and  C_10
REMARK    5  A    between atoms: C_16  and  O_17
REMARK    6  A    between atoms: O_17  and  C_18
REMARK                            x       y       z     vdW  Elec       q    Type
REMARK                         _______ _______ _______ _____ _____    ______ ____
ROOT
ATOM      1  C   UNL     1       6.249   4.022  16.135  0.00  0.00    +0.000 C 
ENDROOT
BRANCH   1   2
ATOM      2  C   UNL     1       5.162   4.929  16.677  0.00  0.00    +0.000 A 
ATOM      3  C   UNL     1       3.971   4.351  17.173  0.00  0.00    +0.000 A 
ATOM      4  C   UNL     1       3.000   5.115  17.820  0.00  0.00    +0.000 A 
ATOM      5 CL   UNL     1       1.618   4.340  18.493  0.00  0.00    +0.000 Cl
ATOM      6  C   UNL     1       3.167   6.482  17.955  0.00  0.00    +0.000 A 
ATOM      7  C   UNL     1       4.312   7.077  17.430  0.00  0.00    +0.000 A 
ATOM      8  C   UNL     1       5.308   6.326  16.783  0.00  0.00    +0.000 A 
BRANCH   8   9
ATOM      9  O   UNL     1       6.389   7.078  16.424  0.00  0.00    +0.000 OA
BRANCH   9  10
ATOM     10  C   UNL     1       7.418   7.257  17.379  0.00  0.00    +0.000 C 
ATOM     11  F   UNL     1       7.405   8.561  17.756  0.00  0.00    +0.000 F 
ATOM     12  F   UNL     1       7.097   6.536  18.480  0.00  0.00    +0.000 F 
ENDBRANCH   9  10
ENDBRANCH   8   9
ENDBRANCH   1   2
BRANCH   1  13
ATOM     13  O   UNL     1       6.039   3.643  14.769  0.00  0.00    +0.000 OA
BRANCH  13  14
ATOM     14  C   UNL     1       6.750   4.350  13.844  0.00  0.00    +0.000 C 
ATOM     15  O   UNL     1       7.617   5.178  14.109  0.00  0.00    +0.000 OA
BRANCH  14  20
ATOM     16  O   UNL     1       6.015   0.680  11.128  0.00  0.00    +0.000 OA
ATOM     17  C   UNL     1       5.875   1.838  11.472  0.00  0.00    +0.000 C 
ATOM     18  C   UNL     1       4.651   2.690  11.290  0.00  0.00    +0.000 C 
ATOM     19  C   UNL     1       4.872   3.825  12.286  0.00  0.00    +0.000 C 
ATOM     20  C   UNL     1       6.382   3.927  12.428  0.00  0.00    +0.000 C 
ATOM     21  N   UNL     1       6.847   2.611  12.061  0.00  0.00    +0.000 N 
ATOM     22  H   UNL     1       7.751   2.221  12.308  0.00  0.00    +0.000 HD
ENDBRANCH  14  20
ENDBRANCH  13  14
ENDBRANCH   1  13
TORSDOF 6
ENDMDL
MODEL 3
REMARK VINA RESULT:      -7.4      0.778      1.031
REMARK  Name = 
REMARK  6 active torsions:
REMARK  status: ('A' for Active; 'I' for Inactive)
REMARK    1  A    between atoms: C_5  and  C_6
REMARK    2  A    between atoms: C_6  and  O_8
REMARK    3  A    between atoms: O_8  and  C_9
REMARK    4  A    between atoms: C_9  and  C_10
REMARK    5  A    between atoms: C_16  and  O_17
REMARK    6  A    between atoms: O_17  and  C_18
REMARK                            x       y       z     vdW  Elec       q    Type
REMARK                         _______ _______ _______ _____ _____    ______ ____
ROOT
ATOM      1  C   UNL     1       3.964   4.381  17.719  0.00  0.00    +0.000 C 
ENDROOT
BRANCH   1   2
ATOM      2  C   UNL     1       3.270   5.421  18.576  0.00  0.00    +0.000 A 
ATOM      3  C   UNL     1       3.141   6.740  18.083  0.00  0.00    +0.000 A 
ATOM      4  C   UNL     1       2.385   7.702  18.753  0.00  0.00    +0.000 A 
ATOM      5 CL   UNL     1       2.180   9.261  18.053  0.00  0.00    +0.000 Cl
ATOM      6  C   UNL     1       1.772   7.391  19.953  0.00  0.00    +0.000 A 
ATOM      7  C   UNL     1       1.927   6.110  20.480  0.00  0.00    +0.000 A 
ATOM      8  C   UNL     1       2.675   5.123  19.817  0.00  0.00    +0.000 A 
BRANCH   8   9
ATOM      9  O   UNL     1       2.629   3.912  20.446  0.00  0.00    +0.000 OA
BRANCH   9  10
ATOM     10  C   UNL     1       1.401   3.513  21.026  0.00  0.00    +0.000 C 
ATOM     11  F   UNL     1       0.703   2.833  20.081  0.00  0.00    +0.000 F 
ATOM     12  F   UNL     1       1.673   2.626  22.014  0.00  0.00    +0.000 F 
ENDBRANCH   9  10
ENDBRANCH   8   9
ENDBRANCH   1   2
BRANCH   1  13
ATOM     13  O   UNL     1       4.780   4.951  16.688  0.00  0.00    +0.000 OA
BRANCH  13  14
ATOM     14  C   UNL     1       5.895   4.238  16.356  0.00  0.00    +0.000 C 
ATOM     15  O   UNL     1       5.897   3.211  15.685  0.00  0.00    +0.000 OA
BRANCH  14  20
ATOM     16  O   UNL     1       7.755   8.358  17.337  0.00  0.00    +0.000 OA
ATOM     17  C   UNL     1       7.631   7.153  17.450  0.00  0.00    +0.000 C 
ATOM     18  C   UNL     1       7.850   6.338  18.692  0.00  0.00    +0.000 C 
ATOM     19  C   UNL     1       7.121   5.034  18.380  0.00  0.00    +0.000 C 
ATOM     20  C   UNL     1       7.157   4.925  16.864  0.00  0.00    +0.000 C 
ATOM     21  N   UNL     1       7.305   6.293  16.429  0.00  0.00    +0.000 N 
ATOM     22  H   UNL     1       7.081   6.639  15.501  0.00  0.00    +0.000 HD
ENDBRANCH  14  20
ENDBRANCH  13  14
ENDBRANCH   1  13
TORSDOF 6
ENDMDL
MODEL 4
REMARK VINA RESULT:      -7.3      3.991      6.416
REMARK  Name = 
REMARK  6 active torsions:
REMARK  status: ('A' for Active; 'I' for Inactive)
REMARK    1  A    between atoms: C_5  and  C_6
REMARK    2  A    between atoms: C_6  and  O_8
REMARK    3  A    between atoms: O_8  and  C_9
REMARK    4  A    between atoms: C_9  and  C_10
REMARK    5  A    between atoms: C_16  and  O_17
REMARK    6  A    between atoms: O_17  and  C_18
REMARK                            x       y       z     vdW  Elec       q    Type
REMARK                         _______ _______ _______ _____ _____    ______ ____
ROOT
ATOM      1  C   UNL     1       4.054   4.584  17.601  0.00  0.00    +0.000 C 
ENDROOT
BRANCH   1   2
ATOM      2  C   UNL     1       5.174   4.661  16.583  0.00  0.00    +0.000 A 
ATOM      3  C   UNL     1       5.022   3.995  15.344  0.00  0.00    +0.000 A 
ATOM      4  C   UNL     1       5.945   4.149  14.311  0.00  0.00    +0.000 A 
ATOM      5 CL   UNL     1       5.654   3.396  12.791  0.00  0.00    +0.000 Cl
ATOM      6  C   UNL     1       7.068   4.936  14.495  0.00  0.00    +0.000 A 
ATOM      7  C   UNL     1       7.262   5.561  15.724  0.00  0.00    +0.000 A 
ATOM      8  C   UNL     1       6.339   5.428  16.776  0.00  0.00    +0.000 A 
BRANCH   8   9
ATOM      9  O   UNL     1       6.660   6.191  17.862  0.00  0.00    +0.000 OA
BRANCH   9  10
ATOM     10  C   UNL     1       7.707   7.134  17.724  0.00  0.00    +0.000 C 
ATOM     11  F   UNL     1       7.140   8.362  17.606  0.00  0.00    +0.000 F 
ATOM     12  F   UNL     1       8.415   7.147  18.879  0.00  0.00    +0.000 F 
ENDBRANCH   9  10
ENDBRANCH   8   9
ENDBRANCH   1   2
BRANCH   1  13
ATOM     13  O   UNL     1       3.165   3.483  17.381  0.00  0.00    +0.000 OA
BRANCH  13  14
ATOM     14  C   UNL     1       1.870   3.685  17.759  0.00  0.00    +0.000 C 
ATOM     15  O   UNL     1       1.064   4.385  17.155  0.00  0.00    +0.000 OA
BRANCH  14  20
ATOM     16  O   UNL     1       3.547   2.127  21.778  0.00  0.00    +0.000 OA
ATOM     17  C   UNL     1       2.666   2.481  21.019  0.00  0.00    +0.000 C 
ATOM     18  C   UNL     1       1.377   3.158  21.388  0.00  0.00    +0.000 C 
ATOM     19  C   UNL     1       0.914   3.761  20.064  0.00  0.00    +0.000 C 
ATOM     20  C   UNL     1       1.525   2.867  18.998  0.00  0.00    +0.000 C 
ATOM     21  N   UNL     1       2.666   2.281  19.659  0.00  0.00    +0.000 N 
ATOM     22  H   UNL     1       3.464   1.865  19.189  0.00  0.00    +0.000 HD
ENDBRANCH  14  20
ENDBRANCH  13  14
ENDBRANCH   1  13
TORSDOF 6
ENDMDL
MODEL 5
REMARK VINA RESULT:      -7.3      2.777      3.268
REMARK  Name = 
REMARK  6 active torsions:
REMARK  status: ('A' for Active; 'I' for Inactive)
REMARK    1  A    between atoms: C_5  and  C_6
REMARK    2  A    between atoms: C_6  and  O_8
REMARK    3  A    between atoms: O_8  and  C_9
REMARK    4  A    between atoms: C_9  and  C_10
REMARK    5  A    between atoms: C_16  and  O_17
REMARK    6  A    between atoms: O_17  and  C_18
REMARK                            x       y       z     vdW  Elec       q    Type
REMARK                         _______ _______ _______ _____ _____    ______ ____
ROOT
ATOM      1  C   UNL     1       3.762   3.814  16.948  0.00  0.00    +0.000 C 
ENDROOT
BRANCH   1   2
ATOM      2  C   UNL     1       3.036   4.152  18.234  0.00  0.00    +0.000 A 
ATOM      3  C   UNL     1       3.039   3.212  19.291  0.00  0.00    +0.000 A 
ATOM      4  C   UNL     1       2.521   3.520  20.548  0.00  0.00    +0.000 A 
ATOM      5 CL   UNL     1       2.643   2.371  21.824  0.00  0.00    +0.000 Cl
ATOM      6  C   UNL     1       1.947   4.758  20.778  0.00  0.00    +0.000 A 
ATOM      7  C   UNL     1       1.892   5.682  19.736  0.00  0.00    +0.000 A 
ATOM      8  C   UNL     1       2.417   5.395  18.464  0.00  0.00    +0.000 A 
BRANCH   8   9
ATOM      9  O   UNL     1       2.349   6.460  17.612  0.00  0.00    +0.000 OA
BRANCH   9  10
ATOM     10  C   UNL     1       2.966   7.669  18.012  0.00  0.00    +0.000 C 
ATOM     11  F   UNL     1       4.271   7.605  17.647  0.00  0.00    +0.000 F 
ATOM     12  F   UNL     1       2.415   8.678  17.293  0.00  0.00    +0.000 F 
ENDBRANCH   9  10
ENDBRANCH   8   9
ENDBRANCH   1   2
BRANCH   1  13
ATOM     13  O   UNL     1       4.789   4.755  16.613  0.00  0.00    +0.000 OA
BRANCH  13  14
ATOM     14  C   UNL     1       5.949   4.219  16.138  0.00  0.00    +0.000 C 
ATOM     15  O   UNL     1       6.018   3.341  15.283  0.00  0.00    +0.000 OA
BRANCH  14  20
ATOM     16  O   UNL     1       7.693   8.332  17.332  0.00  0.00    +0.000 OA
ATOM     17  C   UNL     1       7.572   7.125  17.414  0.00  0.00    +0.000 C 
ATOM     18  C   UNL     1       7.704   6.288  18.654  0.00  0.00    +0.000 C 
ATOM     19  C   UNL     1       7.013   4.984  18.263  0.00  0.00    +0.000 C 
ATOM     20  C   UNL     1       7.163   4.905  16.752  0.00  0.00    +0.000 C 
ATOM     21  N   UNL     1       7.332   6.282  16.355  0.00  0.00    +0.000 N 
ATOM     22  H   UNL     1       7.175   6.644  15.420  0.00  0.00    +0.000 HD
ENDBRANCH  14  20
ENDBRANCH  13  14
ENDBRANCH   1  13
TORSDOF 6
ENDMDL
MODEL 6
REMARK VINA RESULT:      -7.2      1.249      1.392
REMARK  Name = 
REMARK  6 active torsions:
REMARK  status: ('A' for Active; 'I' for Inactive)
REMARK    1  A    between atoms: C_5  and  C_6
REMARK    2  A    between atoms: C_6  and  O_8
REMARK    3  A    between atoms: O_8  and  C_9
REMARK    4  A    between atoms: C_9  and  C_10
REMARK    5  A    between atoms: C_16  and  O_17
REMARK    6  A    between atoms: O_17  and  C_18
REMARK                            x       y       z     vdW  Elec       q    Type
REMARK                         _______ _______ _______ _____ _____    ______ ____
ROOT
ATOM      1  C   UNL     1       3.776   4.165  16.941  0.00  0.00    +0.000 C 
ENDROOT
BRANCH   1   2
ATOM      2  C   UNL     1       3.182   4.862  18.148  0.00  0.00    +0.000 A 
ATOM      3  C   UNL     1       3.009   6.266  18.113  0.00  0.00    +0.000 A 
ATOM      4  C   UNL     1       2.334   6.947  19.126  0.00  0.00    +0.000 A 
ATOM      5 CL   UNL     1       2.066   8.640  18.979  0.00  0.00    +0.000 Cl
ATOM      6  C   UNL     1       1.849   6.257  20.222  0.00  0.00    +0.000 A 
ATOM      7  C   UNL     1       2.051   4.881  20.299  0.00  0.00    +0.000 A 
ATOM      8  C   UNL     1       2.720   4.173  19.286  0.00  0.00    +0.000 A 
BRANCH   8   9
ATOM      9  O   UNL     1       2.733   2.825  19.502  0.00  0.00    +0.000 OA
BRANCH   9  10
ATOM     10  C   UNL     1       3.811   2.283  20.243  0.00  0.00    +0.000 C 
ATOM     11  F   UNL     1       4.874   3.112  20.088  0.00  0.00    +0.000 F 
ATOM     12  F   UNL     1       3.479   2.327  21.557  0.00  0.00    +0.000 F 
ENDBRANCH   9  10
ENDBRANCH   8   9
ENDBRANCH   1   2
BRANCH   1  13
ATOM     13  O   UNL     1       5.132   3.748  17.138  0.00  0.00    +0.000 OA
BRANCH  13  14
ATOM     14  C   UNL     1       6.013   4.125  16.166  0.00  0.00    +0.000 C 
ATOM     15  O   UNL     1       5.844   3.954  14.963  0.00  0.00    +0.000 OA
BRANCH  14  20
ATOM     16  O   UNL     1       7.620   8.301  17.333  0.00  0.00    +0.000 OA
ATOM     17  C   UNL     1       7.544   7.091  17.417  0.00  0.00    +0.000 C 
ATOM     18  C   UNL     1       7.725   6.260  18.655  0.00  0.00    +0.000 C 
ATOM     19  C   UNL     1       7.078   4.931  18.275  0.00  0.00    +0.000 C 
ATOM     20  C   UNL     1       7.209   4.856  16.763  0.00  0.00    +0.000 C 
ATOM     21  N   UNL     1       7.320   6.238  16.363  0.00  0.00    +0.000 N 
ATOM     22  H   UNL     1       7.136   6.593  15.429  0.00  0.00    +0.000 HD
ENDBRANCH  14  20
ENDBRANCH  13  14
ENDBRANCH   1  13
TORSDOF 6
ENDMDL
MODEL 7
REMARK VINA RESULT:      -7.2      2.013      2.784
REMARK  Name = 
REMARK  6 active torsions:
REMARK  status: ('A' for Active; 'I' for Inactive)
REMARK    1  A    between atoms: C_5  and  C_6
REMARK    2  A    between atoms: C_6  and  O_8
REMARK    3  A    between atoms: O_8  and  C_9
REMARK    4  A    between atoms: C_9  and  C_10
REMARK    5  A    between atoms: C_16  and  O_17
REMARK    6  A    between atoms: O_17  and  C_18
REMARK                            x       y       z     vdW  Elec       q    Type
REMARK                         _______ _______ _______ _____ _____    ______ ____
ROOT
ATOM      1  C   UNL     1       5.793   5.415  19.181  0.00  0.00    +0.000 C 
ENDROOT
BRANCH   1   2
ATOM      2  C   UNL     1       4.330   5.459  18.786  0.00  0.00    +0.000 A 
ATOM      3  C   UNL     1       3.706   6.715  18.607  0.00  0.00    +0.000 A 
ATOM      4  C   UNL     1       2.411   6.824  18.100  0.00  0.00    +0.000 A 
ATOM      5 CL   UNL     1       1.741   8.382  17.807  0.00  0.00    +0.000 Cl
ATOM      6  C   UNL     1       1.686   5.685  17.797  0.00  0.00    +0.000 A 
ATOM      7  C   UNL     1       2.266   4.437  18.013  0.00  0.00    +0.000 A 
ATOM      8  C   UNL     1       3.572   4.304  18.513  0.00  0.00    +0.000 A 
BRANCH   8   9
ATOM      9  O   UNL     1       3.990   3.005  18.564  0.00  0.00    +0.000 OA
BRANCH   9  10
ATOM     10  C   UNL     1       3.668   2.250  19.717  0.00  0.00    +0.000 C 
ATOM     11  F   UNL     1       4.762   1.519  20.049  0.00  0.00    +0.000 F 
ATOM     12  F   UNL     1       3.459   3.115  20.739  0.00  0.00    +0.000 F 
ENDBRANCH   9  10
ENDBRANCH   8   9
ENDBRANCH   1   2
BRANCH   1  13
ATOM     13  O   UNL     1       6.468   4.238  18.722  0.00  0.00    +0.000 OA
BRANCH  13  14
ATOM     14  C   UNL     1       7.321   4.419  17.672  0.00  0.00    +0.000 C 
ATOM     15  O   UNL     1       8.514   4.135  17.680  0.00  0.00    +0.000 OA
BRANCH  14  20
ATOM     16  O   UNL     1       7.780   5.389  13.173  0.00  0.00    +0.000 OA
ATOM     17  C   UNL     1       7.159   5.086  14.174  0.00  0.00    +0.000 C 
ATOM     18  C   UNL     1       5.937   4.216  14.247  0.00  0.00    +0.000 C 
ATOM     19  C   UNL     1       5.886   3.818  15.719  0.00  0.00    +0.000 C 
ATOM     20  C   UNL     1       6.583   4.954  16.451  0.00  0.00    +0.000 C 
ATOM     21  N   UNL     1       7.440   5.530  15.444  0.00  0.00    +0.000 N 
ATOM     22  H   UNL     1       8.253   6.110  15.630  0.00  0.00    +0.000 HD
ENDBRANCH  14  20
ENDBRANCH  13  14
ENDBRANCH   1  13
TORSDOF 6
ENDMDL
MODEL 8
REMARK VINA RESULT:      -7.2      3.715      6.484
REMARK  Name = 
REMARK  6 active torsions:
REMARK  status: ('A' for Active; 'I' for Inactive)
REMARK    1  A    between atoms: C_5  and  C_6
REMARK    2  A    between atoms: C_6  and  O_8
REMARK    3  A    between atoms: O_8  and  C_9
REMARK    4  A    between atoms: C_9  and  C_10
REMARK    5  A    between atoms: C_16  and  O_17
REMARK    6  A    between atoms: O_17  and  C_18
REMARK                            x       y       z     vdW  Elec       q    Type
REMARK                         _______ _______ _______ _____ _____    ______ ____
ROOT
ATOM      1  C   UNL     1       4.860   3.825  17.217  0.00  0.00    +0.000 C 
ENDROOT
BRANCH   1   2
ATOM      2  C   UNL     1       5.731   4.084  16.005  0.00  0.00    +0.000 A 
ATOM      3  C   UNL     1       5.312   3.601  14.743  0.00  0.00    +0.000 A 
ATOM      4  C   UNL     1       5.988   3.932  13.569  0.00  0.00    +0.000 A 
ATOM      5 CL   UNL     1       5.372   3.400  12.053  0.00  0.00    +0.000 Cl
ATOM      6  C   UNL     1       7.126   4.718  13.622  0.00  0.00    +0.000 A 
ATOM      7  C   UNL     1       7.583   5.164  14.860  0.00  0.00    +0.000 A 
ATOM      8  C   UNL     1       6.912   4.850  16.054  0.00  0.00    +0.000 A 
BRANCH   8   9
ATOM      9  O   UNL     1       7.463   5.457  17.147  0.00  0.00    +0.000 OA
BRANCH   9  10
ATOM     10  C   UNL     1       7.417   6.870  17.214  0.00  0.00    +0.000 C 
ATOM     11  F   UNL     1       6.121   7.230  17.397  0.00  0.00    +0.000 F 
ATOM     12  F   UNL     1       8.084   7.258  18.328  0.00  0.00    +0.000 F 
ENDBRANCH   9  10
ENDBRANCH   8   9
ENDBRANCH   1   2
BRANCH   1  13
ATOM     13  O   UNL     1       3.961   4.903  17.507  0.00  0.00    +0.000 OA
BRANCH  13  14
ATOM     14  C   UNL     1       3.756   5.160  18.832  0.00  0.00    +0.000 C 
ATOM     15  O   UNL     1       4.611   5.580  19.605  0.00  0.00    +0.000 OA
BRANCH  14  20
ATOM     16  O   UNL     1       0.263   2.143  18.538  0.00  0.00    +0.000 OA
ATOM     17  C   UNL     1       0.888   3.054  19.046  0.00  0.00    +0.000 C 
ATOM     18  C   UNL     1       0.986   3.372  20.511  0.00  0.00    +0.000 C 
ATOM     19  C   UNL     1       2.218   4.270  20.585  0.00  0.00    +0.000 C 
ATOM     20  C   UNL     1       2.300   4.928  19.217  0.00  0.00    +0.000 C 
ATOM     21  N   UNL     1       1.598   4.007  18.356  0.00  0.00    +0.000 N 
ATOM     22  H   UNL     1       1.692   3.963  17.346  0.00  0.00    +0.000 HD
ENDBRANCH  14  20
ENDBRANCH  13  14
ENDBRANCH   1  13
TORSDOF 6
ENDMDL
MODEL 9
REMARK VINA RESULT:      -7.2      3.668      5.955
REMARK  Name = 
REMARK  6 active torsions:
REMARK  status: ('A' for Active; 'I' for Inactive)
REMARK    1  A    between atoms: C_5  and  C_6
REMARK    2  A    between atoms: C_6  and  O_8
REMARK    3  A    between atoms: O_8  and  C_9
REMARK    4  A    between atoms: C_9  and  C_10
REMARK    5  A    between atoms: C_16  and  O_17
REMARK    6  A    between atoms: O_17  and  C_18
REMARK                            x       y       z     vdW  Elec       q    Type
REMARK                         _______ _______ _______ _____ _____    ______ ____
ROOT
ATOM      1  C   UNL     1       3.791   4.456  17.325  0.00  0.00    +0.000 C 
ENDROOT
BRANCH   1   2
ATOM      2  C   UNL     1       5.048   4.558  16.486  0.00  0.00    +0.000 A 
ATOM      3  C   UNL     1       5.060   3.978  15.196  0.00  0.00    +0.000 A 
ATOM      4  C   UNL     1       6.127   4.164  14.318  0.00  0.00    +0.000 A 
ATOM      5 CL   UNL     1       6.041   3.519  12.725  0.00  0.00    +0.000 Cl
ATOM      6  C   UNL     1       7.231   4.899  14.714  0.00  0.00    +0.000 A 
ATOM      7  C   UNL     1       7.260   5.438  15.998  0.00  0.00    +0.000 A 
ATOM      8  C   UNL     1       6.191   5.271  16.895  0.00  0.00    +0.000 A 
BRANCH   8   9
ATOM      9  O   UNL     1       6.370   5.952  18.065  0.00  0.00    +0.000 OA
BRANCH   9  10
ATOM     10  C   UNL     1       7.641   5.881  18.685  0.00  0.00    +0.000 C 
ATOM     11  F   UNL     1       8.192   7.120  18.634  0.00  0.00    +0.000 F 
ATOM     12  F   UNL     1       7.451   5.599  19.997  0.00  0.00    +0.000 F 
ENDBRANCH   9  10
ENDBRANCH   8   9
ENDBRANCH   1   2
BRANCH   1  13
ATOM     13  O   UNL     1       3.686   3.219  18.040  0.00  0.00    +0.000 OA
BRANCH  13  14
ATOM     14  C   UNL     1       4.193   3.224  19.307  0.00  0.00    +0.000 C 
ATOM     15  O   UNL     1       5.374   3.051  19.590  0.00  0.00    +0.000 OA
BRANCH  14  20
ATOM     16  O   UNL     1       1.374   6.566  20.813  0.00  0.00    +0.000 OA
ATOM     17  C   UNL     1       1.707   5.412  20.626  0.00  0.00    +0.000 C 
ATOM     18  C   UNL     1       0.801   4.241  20.377  0.00  0.00    +0.000 C 
ATOM     19  C   UNL     1       1.740   3.202  19.770  0.00  0.00    +0.000 C 
ATOM     20  C   UNL     1       3.111   3.547  20.329  0.00  0.00    +0.000 C 
ATOM     21  N   UNL     1       3.001   4.949  20.655  0.00  0.00    +0.000 N 
ATOM     22  H   UNL     1       3.784   5.583  20.778  0.00  0.00    +0.000 HD
ENDBRANCH  14  20
ENDBRANCH  13  14
ENDBRANCH   1  13
TORSDOF 6
ENDMDL
