MODEL 1
REMARK VINA RESULT:      -8.2      0.000      0.000
REMARK  Name = 
REMARK  12 active torsions:
REMARK  status: ('A' for Active; 'I' for Inactive)
REMARK    1  A    between atoms: C_1  and  C_2
REMARK    2  A    between atoms: C_2  and  C_3
REMARK    3  A    between atoms: C_3  and  C_4
REMARK    4  A    between atoms: C_4  and  C_5
REMARK    5  A    between atoms: C_5  and  C_6
REMARK    6  A    between atoms: C_6  and  C_7
REMARK    7  A    between atoms: C_7  and  N_8
REMARK    8  A    between atoms: C_9  and  C_11
REMARK    9  A    between atoms: N_15  and  C_16
REMARK   10  A    between atoms: N_18  and  C_19
REMARK   11  A    between atoms: C_22  and  O_23
REMARK   12  A    between atoms: O_23  and  C_24
REMARK                            x       y       z     vdW  Elec       q    Type
REMARK                         _______ _______ _______ _____ _____    ______ ____
ROOT
ATOM      1  C   UNL     1       2.898   3.378  17.095  0.00  0.00    +0.000 C 
ATOM      2  C   UNL     1       3.205   2.072  17.790  0.00  0.00    +0.000 C 
ATOM      3  C   UNL     1       3.584   2.208  19.245  0.00  0.00    +0.000 C 
ATOM      4  O   UNL     1       4.464   1.477  19.721  0.00  0.00    +0.000 OA
ATOM      5  N   UNL     1       2.839   3.098  20.025  0.00  0.00    +0.000 N 
ATOM      6  C   UNL     1       2.798   2.838  21.452  0.00  0.00    +0.000 C 
ATOM      7  C   UNL     1       2.403   4.323  19.552  0.00  0.00    +0.000 C 
ATOM      8  N   UNL     1       2.547   5.412  20.254  0.00  0.00    +0.000 NA
ATOM      9  S   UNL     1       1.589   4.180  17.999  0.00  0.00    +0.000 S 
ENDROOT
BRANCH   8  10
ATOM     10  C   UNL     1       2.198   6.713  19.826  0.00  0.00    +0.000 A 
ATOM     11  C   UNL     1       2.514   7.233  18.571  0.00  0.00    +0.000 A 
ATOM     12  C   UNL     1       2.234   8.550  18.223  0.00  0.00    +0.000 A 
ATOM     13  C   UNL     1       1.475   9.350  19.063  0.00  0.00    +0.000 A 
ATOM     14  C   UNL     1       1.063   8.840  20.293  0.00  0.00    +0.000 A 
ATOM     15  C   UNL     1       1.439   7.536  20.678  0.00  0.00    +0.000 A 
BRANCH  13  16
ATOM     16  O   UNL     1       1.235  10.607  18.591  0.00  0.00    +0.000 OA
ATOM     17  C   UNL     1       2.371  11.279  18.064  0.00  0.00    +0.000 C 
ENDBRANCH  13  16
ENDBRANCH   8  10
BRANCH   1  19
ATOM     18  N   UNL     1       5.279   3.656  16.621  0.00  0.00    +0.000 N 
ATOM     19  C   UNL     1       4.099   4.287  16.944  0.00  0.00    +0.000 C 
ATOM     20  O   UNL     1       4.035   5.500  17.155  0.00  0.00    +0.000 OA
ATOM     21  H   UNL     1       5.280   2.658  16.439  0.00  0.00    +0.000 HD
BRANCH  18  22
ATOM     22  C   UNL     1       6.517   4.390  16.479  0.00  0.00    +0.000 C 
BRANCH  22  23
ATOM     23  C   UNL     1       6.728   4.797  15.025  0.00  0.00    +0.000 C 
BRANCH  23  24
ATOM     24  C   UNL     1       5.927   3.899  14.091  0.00  0.00    +0.000 C 
BRANCH  24  25
ATOM     25  C   UNL     1       6.612   3.765  12.734  0.00  0.00    +0.000 C 
BRANCH  25  26
ATOM     26  C   UNL     1       5.744   2.964  11.766  0.00  0.00    +0.000 C 
BRANCH  26  28
ATOM     27  C   UNL     1       3.604   3.329  10.504  0.00  0.00    +0.000 C 
ATOM     28  C   UNL     1       4.280   3.383  11.863  0.00  0.00    +0.000 C 
ENDBRANCH  26  28
ENDBRANCH  25  26
ENDBRANCH  24  25
ENDBRANCH  23  24
ENDBRANCH  22  23
ENDBRANCH  18  22
ENDBRANCH   1  19
TORSDOF 9
ENDMDL
MODEL 2
REMARK VINA RESULT:      -7.8      2.207      3.753
REMARK  Name = 
REMARK  12 active torsions:
REMARK  status: ('A' for Active; 'I' for Inactive)
REMARK    1  A    between atoms: C_1  and  C_2
REMARK    2  A    between atoms: C_2  and  C_3
REMARK    3  A    between atoms: C_3  and  C_4
REMARK    4  A    between atoms: C_4  and  C_5
REMARK    5  A    between atoms: C_5  and  C_6
REMARK    6  A    between atoms: C_6  and  C_7
REMARK    7  A    between atoms: C_7  and  N_8
REMARK    8  A    between atoms: C_9  and  C_11
REMARK    9  A    between atoms: N_15  and  C_16
REMARK   10  A    between atoms: N_18  and  C_19
REMARK   11  A    between atoms: C_22  and  O_23
REMARK   12  A    between atoms: O_23  and  C_24
REMARK                            x       y       z     vdW  Elec       q    Type
REMARK                         _______ _______ _______ _____ _____    ______ ____
ROOT
ATOM      1  C   UNL     1       3.116   3.487  17.126  0.00  0.00    +0.000 C 
ATOM      2  C   UNL     1       3.512   2.201  17.813  0.00  0.00    +0.000 C 
ATOM      3  C   UNL     1       3.887   2.352  19.267  0.00  0.00    +0.000 C 
ATOM      4  O   UNL     1       4.815   1.678  19.735  0.00  0.00    +0.000 OA
ATOM      5  N   UNL     1       3.088   3.186  20.056  0.00  0.00    +0.000 N 
ATOM      6  C   UNL     1       3.070   2.916  21.481  0.00  0.00    +0.000 C 
ATOM      7  C   UNL     1       2.570   4.383  19.592  0.00  0.00    +0.000 C 
ATOM      8  N   UNL     1       2.645   5.475  20.299  0.00  0.00    +0.000 NA
ATOM      9  S   UNL     1       1.761   4.195  18.040  0.00  0.00    +0.000 S 
ENDROOT
BRANCH   8  10
ATOM     10  C   UNL     1       2.208   6.752  19.880  0.00  0.00    +0.000 A 
ATOM     11  C   UNL     1       2.397   7.259  18.594  0.00  0.00    +0.000 A 
ATOM     12  C   UNL     1       2.036   8.557  18.250  0.00  0.00    +0.000 A 
ATOM     13  C   UNL     1       1.319   9.344  19.137  0.00  0.00    +0.000 A 
ATOM     14  C   UNL     1       1.032   8.843  20.406  0.00  0.00    +0.000 A 
ATOM     15  C   UNL     1       1.492   7.562  20.780  0.00  0.00    +0.000 A 
BRANCH  13  16
ATOM     16  O   UNL     1       0.989  10.581  18.666  0.00  0.00    +0.000 OA
ATOM     17  C   UNL     1      -0.390  10.765  18.375  0.00  0.00    +0.000 C 
ENDBRANCH  13  16
ENDBRANCH   8  10
BRANCH   1  19
ATOM     18  N   UNL     1       5.488   3.917  16.730  0.00  0.00    +0.000 N 
ATOM     19  C   UNL     1       4.254   4.474  16.977  0.00  0.00    +0.000 C 
ATOM     20  O   UNL     1       4.094   5.687  17.125  0.00  0.00    +0.000 OA
ATOM     21  H   UNL     1       5.568   2.915  16.597  0.00  0.00    +0.000 HD
BRANCH  18  22
ATOM     22  C   UNL     1       6.675   4.733  16.599  0.00  0.00    +0.000 C 
BRANCH  22  23
ATOM     23  C   UNL     1       7.546   4.605  17.844  0.00  0.00    +0.000 C 
BRANCH  23  24
ATOM     24  C   UNL     1       7.662   5.944  18.562  0.00  0.00    +0.000 C 
BRANCH  24  25
ATOM     25  C   UNL     1       7.108   7.079  17.705  0.00  0.00    +0.000 C 
BRANCH  25  26
ATOM     26  C   UNL     1       8.185   8.129  17.439  0.00  0.00    +0.000 C 
BRANCH  26  28
ATOM     27  C   UNL     1       9.149  10.291  18.276  0.00  0.00    +0.000 C 
ATOM     28  C   UNL     1       8.380   9.036  18.650  0.00  0.00    +0.000 C 
ENDBRANCH  26  28
ENDBRANCH  25  26
ENDBRANCH  24  25
ENDBRANCH  23  24
ENDBRANCH  22  23
ENDBRANCH  18  22
ENDBRANCH   1  19
TORSDOF 9
ENDMDL
MODEL 3
REMARK VINA RESULT:      -7.7      0.886      1.590
REMARK  Name = 
REMARK  12 active torsions:
REMARK  status: ('A' for Active; 'I' for Inactive)
REMARK    1  A    between atoms: C_1  and  C_2
REMARK    2  A    between atoms: C_2  and  C_3
REMARK    3  A    between atoms: C_3  and  C_4
REMARK    4  A    between atoms: C_4  and  C_5
REMARK    5  A    between atoms: C_5  and  C_6
REMARK    6  A    between atoms: C_6  and  C_7
REMARK    7  A    between atoms: C_7  and  N_8
REMARK    8  A    between atoms: C_9  and  C_11
REMARK    9  A    between atoms: N_15  and  C_16
REMARK   10  A    between atoms: N_18  and  C_19
REMARK   11  A    between atoms: C_22  and  O_23
REMARK   12  A    between atoms: O_23  and  C_24
REMARK                            x       y       z     vdW  Elec       q    Type
REMARK                         _______ _______ _______ _____ _____    ______ ____
ROOT
ATOM      1  C   UNL     1       3.071   3.645  17.318  0.00  0.00    +0.000 C 
ATOM      2  C   UNL     1       3.346   2.329  18.007  0.00  0.00    +0.000 C 
ATOM      3  C   UNL     1       3.568   2.431  19.496  0.00  0.00    +0.000 C 
ATOM      4  O   UNL     1       4.417   1.713  20.042  0.00  0.00    +0.000 OA
ATOM      5  N   UNL     1       2.718   3.276  20.218  0.00  0.00    +0.000 N 
ATOM      6  C   UNL     1       2.538   2.972  21.626  0.00  0.00    +0.000 C 
ATOM      7  C   UNL     1       2.295   4.502  19.735  0.00  0.00    +0.000 C 
ATOM      8  N   UNL     1       2.331   5.573  20.477  0.00  0.00    +0.000 NA
ATOM      9  S   UNL     1       1.651   4.382  18.102  0.00  0.00    +0.000 S 
ENDROOT
BRANCH   8  10
ATOM     10  C   UNL     1       1.987   6.875  20.050  0.00  0.00    +0.000 A 
ATOM     11  C   UNL     1       1.308   7.803  20.840  0.00  0.00    +0.000 A 
ATOM     12  C   UNL     1       0.905   9.040  20.349  0.00  0.00    +0.000 A 
ATOM     13  C   UNL     1       1.313   9.463  19.094  0.00  0.00    +0.000 A 
ATOM     14  C   UNL     1       2.069   8.600  18.302  0.00  0.00    +0.000 A 
ATOM     15  C   UNL     1       2.386   7.307  18.772  0.00  0.00    +0.000 A 
BRANCH  13  16
ATOM     16  O   UNL     1       0.887  10.710  18.745  0.00  0.00    +0.000 OA
ATOM     17  C   UNL     1      -0.185  11.220  19.526  0.00  0.00    +0.000 C 
ENDBRANCH  13  16
ENDBRANCH   8  10
BRANCH   1  19
ATOM     18  N   UNL     1       5.423   4.074  17.824  0.00  0.00    +0.000 N 
ATOM     19  C   UNL     1       4.252   4.593  17.319  0.00  0.00    +0.000 C 
ATOM     20  O   UNL     1       4.155   5.763  16.946  0.00  0.00    +0.000 OA
ATOM     21  H   UNL     1       5.461   3.100  18.101  0.00  0.00    +0.000 HD
BRANCH  18  22
ATOM     22  C   UNL     1       6.625   4.873  17.920  0.00  0.00    +0.000 C 
BRANCH  22  23
ATOM     23  C   UNL     1       7.588   4.519  16.793  0.00  0.00    +0.000 C 
BRANCH  23  24
ATOM     24  C   UNL     1       7.052   5.007  15.452  0.00  0.00    +0.000 C 
BRANCH  24  25
ATOM     25  C   UNL     1       6.577   3.839  14.592  0.00  0.00    +0.000 C 
BRANCH  25  26
ATOM     26  C   UNL     1       5.312   4.215  13.823  0.00  0.00    +0.000 C 
BRANCH  26  28
ATOM     27  C   UNL     1       6.705   3.312  11.939  0.00  0.00    +0.000 C 
ATOM     28  C   UNL     1       5.295   3.569  12.441  0.00  0.00    +0.000 C 
ENDBRANCH  26  28
ENDBRANCH  25  26
ENDBRANCH  24  25
ENDBRANCH  23  24
ENDBRANCH  22  23
ENDBRANCH  18  22
ENDBRANCH   1  19
TORSDOF 9
ENDMDL
MODEL 4
REMARK VINA RESULT:      -7.6      1.001      1.220
REMARK  Name = 
REMARK  12 active torsions:
REMARK  status: ('A' for Active; 'I' for Inactive)
REMARK    1  A    between atoms: C_1  and  C_2
REMARK    2  A    between atoms: C_2  and  C_3
REMARK    3  A    between atoms: C_3  and  C_4
REMARK    4  A    between atoms: C_4  and  C_5
REMARK    5  A    between atoms: C_5  and  C_6
REMARK    6  A    between atoms: C_6  and  C_7
REMARK    7  A    between atoms: C_7  and  N_8
REMARK    8  A    between atoms: C_9  and  C_11
REMARK    9  A    between atoms: N_15  and  C_16
REMARK   10  A    between atoms: N_18  and  C_19
REMARK   11  A    between atoms: C_22  and  O_23
REMARK   12  A    between atoms: O_23  and  C_24
REMARK                            x       y       z     vdW  Elec       q    Type
REMARK                         _______ _______ _______ _____ _____    ______ ____
ROOT
ATOM      1  C   UNL     1       3.056   3.366  17.535  0.00  0.00    +0.000 C 
ATOM      2  C   UNL     1       3.246   2.085  18.312  0.00  0.00    +0.000 C 
ATOM      3  C   UNL     1       3.416   2.270  19.800  0.00  0.00    +0.000 C 
ATOM      4  O   UNL     1       4.211   1.551  20.422  0.00  0.00    +0.000 OA
ATOM      5  N   UNL     1       2.578   3.193  20.436  0.00  0.00    +0.000 N 
ATOM      6  C   UNL     1       2.332   2.984  21.850  0.00  0.00    +0.000 C 
ATOM      7  C   UNL     1       2.228   4.403  19.863  0.00  0.00    +0.000 C 
ATOM      8  N   UNL     1       2.284   5.516  20.540  0.00  0.00    +0.000 NA
ATOM      9  S   UNL     1       1.641   4.209  18.215  0.00  0.00    +0.000 S 
ENDROOT
BRANCH   8  10
ATOM     10  C   UNL     1       2.014   6.802  20.021  0.00  0.00    +0.000 A 
ATOM     11  C   UNL     1       2.334   7.205  18.724  0.00  0.00    +0.000 A 
ATOM     12  C   UNL     1       2.137   8.509  18.284  0.00  0.00    +0.000 A 
ATOM     13  C   UNL     1       1.456   9.420  19.075  0.00  0.00    +0.000 A 
ATOM     14  C   UNL     1       1.040   9.033  20.348  0.00  0.00    +0.000 A 
ATOM     15  C   UNL     1       1.336   7.737  20.823  0.00  0.00    +0.000 A 
BRANCH  13  16
ATOM     16  O   UNL     1       1.291  10.653  18.515  0.00  0.00    +0.000 OA
ATOM     17  C   UNL     1      -0.028  11.175  18.592  0.00  0.00    +0.000 C 
ENDBRANCH  13  16
ENDBRANCH   8  10
BRANCH   1  19
ATOM     18  N   UNL     1       4.201   5.353  16.691  0.00  0.00    +0.000 N 
ATOM     19  C   UNL     1       4.277   4.262  17.526  0.00  0.00    +0.000 C 
ATOM     20  O   UNL     1       5.289   3.998  18.177  0.00  0.00    +0.000 OA
ATOM     21  H   UNL     1       3.340   5.540  16.188  0.00  0.00    +0.000 HD
BRANCH  18  22
ATOM     22  C   UNL     1       5.304   6.277  16.550  0.00  0.00    +0.000 C 
BRANCH  22  23
ATOM     23  C   UNL     1       5.976   6.098  15.193  0.00  0.00    +0.000 C 
BRANCH  23  24
ATOM     24  C   UNL     1       6.961   4.936  15.228  0.00  0.00    +0.000 C 
BRANCH  24  25
ATOM     25  C   UNL     1       6.365   3.690  14.579  0.00  0.00    +0.000 C 
BRANCH  25  26
ATOM     26  C   UNL     1       5.361   4.073  13.494  0.00  0.00    +0.000 C 
BRANCH  26  28
ATOM     27  C   UNL     1       4.426   3.109  11.372  0.00  0.00    +0.000 C 
ATOM     28  C   UNL     1       5.687   3.382  12.173  0.00  0.00    +0.000 C 
ENDBRANCH  26  28
ENDBRANCH  25  26
ENDBRANCH  24  25
ENDBRANCH  23  24
ENDBRANCH  22  23
ENDBRANCH  18  22
ENDBRANCH   1  19
TORSDOF 9
ENDMDL
MODEL 5
REMARK VINA RESULT:      -7.5      1.113      1.576
REMARK  Name = 
REMARK  12 active torsions:
REMARK  status: ('A' for Active; 'I' for Inactive)
REMARK    1  A    between atoms: C_1  and  C_2
REMARK    2  A    between atoms: C_2  and  C_3
REMARK    3  A    between atoms: C_3  and  C_4
REMARK    4  A    between atoms: C_4  and  C_5
REMARK    5  A    between atoms: C_5  and  C_6
REMARK    6  A    between atoms: C_6  and  C_7
REMARK    7  A    between atoms: C_7  and  N_8
REMARK    8  A    between atoms: C_9  and  C_11
REMARK    9  A    between atoms: N_15  and  C_16
REMARK   10  A    between atoms: N_18  and  C_19
REMARK   11  A    between atoms: C_22  and  O_23
REMARK   12  A    between atoms: O_23  and  C_24
REMARK                            x       y       z     vdW  Elec       q    Type
REMARK                         _______ _______ _______ _____ _____    ______ ____
ROOT
ATOM      1  C   UNL     1       3.207   4.220  17.386  0.00  0.00    +0.000 C 
ATOM      2  C   UNL     1       3.548   2.901  18.039  0.00  0.00    +0.000 C 
ATOM      3  C   UNL     1       3.695   2.961  19.540  0.00  0.00    +0.000 C 
ATOM      4  O   UNL     1       4.569   2.284  20.099  0.00  0.00    +0.000 OA
ATOM      5  N   UNL     1       2.753   3.712  20.251  0.00  0.00    +0.000 N 
ATOM      6  C   UNL     1       2.533   3.341  21.636  0.00  0.00    +0.000 C 
ATOM      7  C   UNL     1       2.261   4.922  19.792  0.00  0.00    +0.000 C 
ATOM      8  N   UNL     1       2.185   5.964  20.573  0.00  0.00    +0.000 NA
ATOM      9  S   UNL     1       1.702   4.820  18.127  0.00  0.00    +0.000 S 
ENDROOT
BRANCH   8  10
ATOM     10  C   UNL     1       1.764   7.253  20.177  0.00  0.00    +0.000 A 
ATOM     11  C   UNL     1       2.094   7.841  18.955  0.00  0.00    +0.000 A 
ATOM     12  C   UNL     1       1.738   9.149  18.643  0.00  0.00    +0.000 A 
ATOM     13  C   UNL     1       0.893   9.863  19.478  0.00  0.00    +0.000 A 
ATOM     14  C   UNL     1       0.467   9.280  20.670  0.00  0.00    +0.000 A 
ATOM     15  C   UNL     1       0.917   7.990  21.024  0.00  0.00    +0.000 A 
BRANCH  13  16
ATOM     16  O   UNL     1       0.586  11.118  19.042  0.00  0.00    +0.000 OA
ATOM     17  C   UNL     1       1.702  11.917  18.674  0.00  0.00    +0.000 C 
ENDBRANCH  13  16
ENDBRANCH   8  10
BRANCH   1  19
ATOM     18  N   UNL     1       5.457   4.830  18.115  0.00  0.00    +0.000 N 
ATOM     19  C   UNL     1       4.313   5.250  17.476  0.00  0.00    +0.000 C 
ATOM     20  O   UNL     1       4.174   6.401  17.058  0.00  0.00    +0.000 OA
ATOM     21  H   UNL     1       5.533   3.868  18.427  0.00  0.00    +0.000 HD
BRANCH  18  22
ATOM     22  C   UNL     1       6.585   5.715  18.309  0.00  0.00    +0.000 C 
BRANCH  22  23
ATOM     23  C   UNL     1       7.444   5.763  17.050  0.00  0.00    +0.000 C 
BRANCH  23  24
ATOM     24  C   UNL     1       7.320   4.465  16.263  0.00  0.00    +0.000 C 
BRANCH  24  25
ATOM     25  C   UNL     1       6.981   4.738  14.800  0.00  0.00    +0.000 C 
BRANCH  25  26
ATOM     26  C   UNL     1       5.785   3.899  14.356  0.00  0.00    +0.000 C 
BRANCH  26  28
ATOM     27  C   UNL     1       7.084   4.178  12.225  0.00  0.00    +0.000 C 
ATOM     28  C   UNL     1       5.781   3.703  12.843  0.00  0.00    +0.000 C 
ENDBRANCH  26  28
ENDBRANCH  25  26
ENDBRANCH  24  25
ENDBRANCH  23  24
ENDBRANCH  22  23
ENDBRANCH  18  22
ENDBRANCH   1  19
TORSDOF 9
ENDMDL
MODEL 6
REMARK VINA RESULT:      -7.4      0.947      1.458
REMARK  Name = 
REMARK  12 active torsions:
REMARK  status: ('A' for Active; 'I' for Inactive)
REMARK    1  A    between atoms: C_1  and  C_2
REMARK    2  A    between atoms: C_2  and  C_3
REMARK    3  A    between atoms: C_3  and  C_4
REMARK    4  A    between atoms: C_4  and  C_5
REMARK    5  A    between atoms: C_5  and  C_6
REMARK    6  A    between atoms: C_6  and  C_7
REMARK    7  A    between atoms: C_7  and  N_8
REMARK    8  A    between atoms: C_9  and  C_11
REMARK    9  A    between atoms: N_15  and  C_16
REMARK   10  A    between atoms: N_18  and  C_19
REMARK   11  A    between atoms: C_22  and  O_23
REMARK   12  A    between atoms: O_23  and  C_24
REMARK                            x       y       z     vdW  Elec       q    Type
REMARK                         _______ _______ _______ _____ _____    ______ ____
ROOT
ATOM      1  C   UNL     1       3.261   3.498  17.363  0.00  0.00    +0.000 C 
ATOM      2  C   UNL     1       3.436   2.176  18.072  0.00  0.00    +0.000 C 
ATOM      3  C   UNL     1       3.535   2.276  19.574  0.00  0.00    +0.000 C 
ATOM      4  O   UNL     1       4.312   1.532  20.189  0.00  0.00    +0.000 OA
ATOM      5  N   UNL     1       2.655   3.148  20.223  0.00  0.00    +0.000 N 
ATOM      6  C   UNL     1       2.348   2.854  21.610  0.00  0.00    +0.000 C 
ATOM      7  C   UNL     1       2.312   4.385  19.706  0.00  0.00    +0.000 C 
ATOM      8  N   UNL     1       2.320   5.457  20.448  0.00  0.00    +0.000 NA
ATOM      9  S   UNL     1       1.804   4.281  18.025  0.00  0.00    +0.000 S 
ENDROOT
BRANCH   8  10
ATOM     10  C   UNL     1       2.054   6.768  19.993  0.00  0.00    +0.000 A 
ATOM     11  C   UNL     1       1.344   7.720  20.726  0.00  0.00    +0.000 A 
ATOM     12  C   UNL     1       1.023   8.968  20.203  0.00  0.00    +0.000 A 
ATOM     13  C   UNL     1       1.544   9.373  18.984  0.00  0.00    +0.000 A 
ATOM     14  C   UNL     1       2.332   8.483  18.256  0.00  0.00    +0.000 A 
ATOM     15  C   UNL     1       2.568   7.182  18.751  0.00  0.00    +0.000 A 
BRANCH  13  16
ATOM     16  O   UNL     1       1.189  10.632  18.601  0.00  0.00    +0.000 OA
ATOM     17  C   UNL     1       2.219  11.382  17.971  0.00  0.00    +0.000 C 
ENDBRANCH  13  16
ENDBRANCH   8  10
BRANCH   1  19
ATOM     18  N   UNL     1       4.599   5.324  16.442  0.00  0.00    +0.000 N 
ATOM     19  C   UNL     1       4.467   4.409  17.462  0.00  0.00    +0.000 C 
ATOM     20  O   UNL     1       5.301   4.297  18.362  0.00  0.00    +0.000 OA
ATOM     21  H   UNL     1       3.877   5.392  15.733  0.00  0.00    +0.000 HD
BRANCH  18  22
ATOM     22  C   UNL     1       5.720   6.235  16.384  0.00  0.00    +0.000 C 
BRANCH  22  23
ATOM     23  C   UNL     1       6.996   5.484  16.018  0.00  0.00    +0.000 C 
BRANCH  23  24
ATOM     24  C   UNL     1       6.989   5.094  14.546  0.00  0.00    +0.000 C 
BRANCH  24  25
ATOM     25  C   UNL     1       6.284   3.757  14.333  0.00  0.00    +0.000 C 
BRANCH  25  26
ATOM     26  C   UNL     1       5.414   3.798  13.079  0.00  0.00    +0.000 C 
BRANCH  26  28
ATOM     27  C   UNL     1       5.788   1.867  11.518  0.00  0.00    +0.000 C 
ATOM     28  C   UNL     1       6.180   3.293  11.860  0.00  0.00    +0.000 C 
ENDBRANCH  26  28
ENDBRANCH  25  26
ENDBRANCH  24  25
ENDBRANCH  23  24
ENDBRANCH  22  23
ENDBRANCH  18  22
ENDBRANCH   1  19
TORSDOF 9
ENDMDL
MODEL 7
REMARK VINA RESULT:      -7.4      1.913      3.366
REMARK  Name = 
REMARK  12 active torsions:
REMARK  status: ('A' for Active; 'I' for Inactive)
REMARK    1  A    between atoms: C_1  and  C_2
REMARK    2  A    between atoms: C_2  and  C_3
REMARK    3  A    between atoms: C_3  and  C_4
REMARK    4  A    between atoms: C_4  and  C_5
REMARK    5  A    between atoms: C_5  and  C_6
REMARK    6  A    between atoms: C_6  and  C_7
REMARK    7  A    between atoms: C_7  and  N_8
REMARK    8  A    between atoms: C_9  and  C_11
REMARK    9  A    between atoms: N_15  and  C_16
REMARK   10  A    between atoms: N_18  and  C_19
REMARK   11  A    between atoms: C_22  and  O_23
REMARK   12  A    between atoms: O_23  and  C_24
REMARK                            x       y       z     vdW  Elec       q    Type
REMARK                         _______ _______ _______ _____ _____    ______ ____
ROOT
ATOM      1  C   UNL     1       2.883   3.182  17.255  0.00  0.00    +0.000 C 
ATOM      2  C   UNL     1       3.125   1.912  18.037  0.00  0.00    +0.000 C 
ATOM      3  C   UNL     1       3.466   2.124  19.492  0.00  0.00    +0.000 C 
ATOM      4  O   UNL     1       4.305   1.395  20.039  0.00  0.00    +0.000 OA
ATOM      5  N   UNL     1       2.730   3.085  20.194  0.00  0.00    +0.000 N 
ATOM      6  C   UNL     1       2.639   2.915  21.632  0.00  0.00    +0.000 C 
ATOM      7  C   UNL     1       2.351   4.292  19.634  0.00  0.00    +0.000 C 
ATOM      8  N   UNL     1       2.513   5.417  20.272  0.00  0.00    +0.000 NA
ATOM      9  S   UNL     1       1.577   4.081  18.068  0.00  0.00    +0.000 S 
ENDROOT
BRANCH   8  10
ATOM     10  C   UNL     1       2.221   6.700  19.756  0.00  0.00    +0.000 A 
ATOM     11  C   UNL     1       1.605   7.715  20.487  0.00  0.00    +0.000 A 
ATOM     12  C   UNL     1       1.250   8.931  19.913  0.00  0.00    +0.000 A 
ATOM     13  C   UNL     1       1.652   9.240  18.623  0.00  0.00    +0.000 A 
ATOM     14  C   UNL     1       2.348   8.285  17.884  0.00  0.00    +0.000 A 
ATOM     15  C   UNL     1       2.613   7.016  18.442  0.00  0.00    +0.000 A 
BRANCH  13  16
ATOM     16  O   UNL     1       1.278  10.478  18.189  0.00  0.00    +0.000 OA
ATOM     17  C   UNL     1       0.908  11.388  19.216  0.00  0.00    +0.000 C 
ENDBRANCH  13  16
ENDBRANCH   8  10
BRANCH   1  19
ATOM     18  N   UNL     1       4.378   4.454  15.800  0.00  0.00    +0.000 N 
ATOM     19  C   UNL     1       4.120   4.040  17.087  0.00  0.00    +0.000 C 
ATOM     20  O   UNL     1       4.871   4.298  18.028  0.00  0.00    +0.000 OA
ATOM     21  H   UNL     1       3.720   4.233  15.060  0.00  0.00    +0.000 HD
BRANCH  18  22
ATOM     22  C   UNL     1       5.543   5.250  15.481  0.00  0.00    +0.000 C 
BRANCH  22  23
ATOM     23  C   UNL     1       5.237   6.733  15.659  0.00  0.00    +0.000 C 
BRANCH  23  24
ATOM     24  C   UNL     1       5.866   7.263  16.941  0.00  0.00    +0.000 C 
BRANCH  24  25
ATOM     25  C   UNL     1       7.332   6.852  17.047  0.00  0.00    +0.000 C 
BRANCH  25  26
ATOM     26  C   UNL     1       7.830   6.991  18.484  0.00  0.00    +0.000 C 
BRANCH  26  28
ATOM     27  C   UNL     1       8.028   4.522  18.075  0.00  0.00    +0.000 C 
ATOM     28  C   UNL     1       8.072   5.625  19.118  0.00  0.00    +0.000 C 
ENDBRANCH  26  28
ENDBRANCH  25  26
ENDBRANCH  24  25
ENDBRANCH  23  24
ENDBRANCH  22  23
ENDBRANCH  18  22
ENDBRANCH   1  19
TORSDOF 9
ENDMDL
MODEL 8
REMARK VINA RESULT:      -7.3      2.515      5.161
REMARK  Name = 
REMARK  12 active torsions:
REMARK  status: ('A' for Active; 'I' for Inactive)
REMARK    1  A    between atoms: C_1  and  C_2
REMARK    2  A    between atoms: C_2  and  C_3
REMARK    3  A    between atoms: C_3  and  C_4
REMARK    4  A    between atoms: C_4  and  C_5
REMARK    5  A    between atoms: C_5  and  C_6
REMARK    6  A    between atoms: C_6  and  C_7
REMARK    7  A    between atoms: C_7  and  N_8
REMARK    8  A    between atoms: C_9  and  C_11
REMARK    9  A    between atoms: N_15  and  C_16
REMARK   10  A    between atoms: N_18  and  C_19
REMARK   11  A    between atoms: C_22  and  O_23
REMARK   12  A    between atoms: O_23  and  C_24
REMARK                            x       y       z     vdW  Elec       q    Type
REMARK                         _______ _______ _______ _____ _____    ______ ____
ROOT
ATOM      1  C   UNL     1       6.727   5.422  18.623  0.00  0.00    +0.000 C 
ATOM      2  C   UNL     1       7.352   4.768  17.413  0.00  0.00    +0.000 C 
ATOM      3  C   UNL     1       6.423   4.604  16.236  0.00  0.00    +0.000 C 
ATOM      4  O   UNL     1       6.490   3.583  15.537  0.00  0.00    +0.000 OA
ATOM      5  N   UNL     1       5.582   5.678  15.923  0.00  0.00    +0.000 N 
ATOM      6  C   UNL     1       5.129   5.772  14.547  0.00  0.00    +0.000 C 
ATOM      7  C   UNL     1       4.960   6.447  16.890  0.00  0.00    +0.000 C 
ATOM      8  N   UNL     1       3.694   6.746  16.810  0.00  0.00    +0.000 NA
ATOM      9  S   UNL     1       6.091   7.007  18.116  0.00  0.00    +0.000 S 
ENDROOT
BRANCH   8  10
ATOM     10  C   UNL     1       2.960   7.464  17.781  0.00  0.00    +0.000 A 
ATOM     11  C   UNL     1       2.402   8.724  17.563  0.00  0.00    +0.000 A 
ATOM     12  C   UNL     1       1.769   9.438  18.575  0.00  0.00    +0.000 A 
ATOM     13  C   UNL     1       1.523   8.845  19.803  0.00  0.00    +0.000 A 
ATOM     14  C   UNL     1       1.989   7.551  20.035  0.00  0.00    +0.000 A 
ATOM     15  C   UNL     1       2.719   6.875  19.035  0.00  0.00    +0.000 A 
BRANCH  13  16
ATOM     16  O   UNL     1       0.859   9.633  20.696  0.00  0.00    +0.000 OA
ATOM     17  C   UNL     1      -0.257   9.018  21.326  0.00  0.00    +0.000 C 
ENDBRANCH  13  16
ENDBRANCH   8  10
BRANCH   1  19
ATOM     18  N   UNL     1       5.481   3.325  18.756  0.00  0.00    +0.000 N 
ATOM     19  C   UNL     1       5.652   4.584  19.283  0.00  0.00    +0.000 C 
ATOM     20  O   UNL     1       4.943   5.023  20.190  0.00  0.00    +0.000 OA
ATOM     21  H   UNL     1       6.101   3.000  18.022  0.00  0.00    +0.000 HD
BRANCH  18  22
ATOM     22  C   UNL     1       4.469   2.423  19.260  0.00  0.00    +0.000 C 
BRANCH  22  23
ATOM     23  C   UNL     1       3.402   2.177  18.198  0.00  0.00    +0.000 C 
BRANCH  23  24
ATOM     24  C   UNL     1       2.885   3.495  17.637  0.00  0.00    +0.000 C 
BRANCH  24  25
ATOM     25  C   UNL     1       1.381   3.634  17.855  0.00  0.00    +0.000 C 
BRANCH  25  26
ATOM     26  C   UNL     1       0.959   2.959  19.158  0.00  0.00    +0.000 C 
BRANCH  26  28
ATOM     27  C   UNL     1       1.910   3.642  21.379  0.00  0.00    +0.000 C 
ATOM     28  C   UNL     1       0.889   3.965  20.303  0.00  0.00    +0.000 C 
ENDBRANCH  26  28
ENDBRANCH  25  26
ENDBRANCH  24  25
ENDBRANCH  23  24
ENDBRANCH  22  23
ENDBRANCH  18  22
ENDBRANCH   1  19
TORSDOF 9
ENDMDL
MODEL 9
REMARK VINA RESULT:      -7.3      0.962      1.418
REMARK  Name = 
REMARK  12 active torsions:
REMARK  status: ('A' for Active; 'I' for Inactive)
REMARK    1  A    between atoms: C_1  and  C_2
REMARK    2  A    between atoms: C_2  and  C_3
REMARK    3  A    between atoms: C_3  and  C_4
REMARK    4  A    between atoms: C_4  and  C_5
REMARK    5  A    between atoms: C_5  and  C_6
REMARK    6  A    between atoms: C_6  and  C_7
REMARK    7  A    between atoms: C_7  and  N_8
REMARK    8  A    between atoms: C_9  and  C_11
REMARK    9  A    between atoms: N_15  and  C_16
REMARK   10  A    between atoms: N_18  and  C_19
REMARK   11  A    between atoms: C_22  and  O_23
REMARK   12  A    between atoms: O_23  and  C_24
REMARK                            x       y       z     vdW  Elec       q    Type
REMARK                         _______ _______ _______ _____ _____    ______ ____
ROOT
ATOM      1  C   UNL     1       3.770   3.109  17.906  0.00  0.00    +0.000 C 
ATOM      2  C   UNL     1       3.742   1.935  18.857  0.00  0.00    +0.000 C 
ATOM      3  C   UNL     1       3.575   2.306  20.310  0.00  0.00    +0.000 C 
ATOM      4  O   UNL     1       4.186   1.672  21.181  0.00  0.00    +0.000 OA
ATOM      5  N   UNL     1       2.642   3.302  20.619  0.00  0.00    +0.000 N 
ATOM      6  C   UNL     1       2.075   3.274  21.954  0.00  0.00    +0.000 C 
ATOM      7  C   UNL     1       2.466   4.431  19.837  0.00  0.00    +0.000 C 
ATOM      8  N   UNL     1       2.400   5.620  20.367  0.00  0.00    +0.000 NA
ATOM      9  S   UNL     1       2.263   4.031  18.136  0.00  0.00    +0.000 S 
ENDROOT
BRANCH   8  10
ATOM     10  C   UNL     1       2.292   6.831  19.647  0.00  0.00    +0.000 A 
ATOM     11  C   UNL     1       1.601   7.953  20.104  0.00  0.00    +0.000 A 
ATOM     12  C   UNL     1       1.439   9.092  19.323  0.00  0.00    +0.000 A 
ATOM     13  C   UNL     1       2.108   9.214  18.115  0.00  0.00    +0.000 A 
ATOM     14  C   UNL     1       2.881   8.148  17.659  0.00  0.00    +0.000 A 
ATOM     15  C   UNL     1       2.956   6.957  18.413  0.00  0.00    +0.000 A 
BRANCH  13  16
ATOM     16  O   UNL     1       1.900  10.394  17.464  0.00  0.00    +0.000 OA
ATOM     17  C   UNL     1       2.180  11.559  18.228  0.00  0.00    +0.000 C 
ENDBRANCH  13  16
ENDBRANCH   8  10
BRANCH   1  19
ATOM     18  N   UNL     1       5.911   3.916  17.050  0.00  0.00    +0.000 N 
ATOM     19  C   UNL     1       4.987   3.995  18.066  0.00  0.00    +0.000 C 
ATOM     20  O   UNL     1       5.163   4.694  19.066  0.00  0.00    +0.000 OA
ATOM     21  H   UNL     1       5.715   3.341  16.238  0.00  0.00    +0.000 HD
BRANCH  18  22
ATOM     22  C   UNL     1       7.141   4.677  17.083  0.00  0.00    +0.000 C 
BRANCH  22  23
ATOM     23  C   UNL     1       7.363   5.383  15.750  0.00  0.00    +0.000 C 
BRANCH  23  24
ATOM     24  C   UNL     1       6.159   5.199  14.834  0.00  0.00    +0.000 C 
BRANCH  24  25
ATOM     25  C   UNL     1       6.448   4.170  13.745  0.00  0.00    +0.000 C 
BRANCH  25  26
ATOM     26  C   UNL     1       5.152   3.538  13.240  0.00  0.00    +0.000 C 
BRANCH  26  28
ATOM     27  C   UNL     1       3.922   3.180  11.080  0.00  0.00    +0.000 C 
ATOM     28  C   UNL     1       5.272   3.131  11.775  0.00  0.00    +0.000 C 
ENDBRANCH  26  28
ENDBRANCH  25  26
ENDBRANCH  24  25
ENDBRANCH  23  24
ENDBRANCH  22  23
ENDBRANCH  18  22
ENDBRANCH   1  19
TORSDOF 9
ENDMDL
