MODEL 1
REMARK VINA RESULT:      -9.4      0.000      0.000
REMARK  Name = 
REMARK  5 active torsions:
REMARK  status: ('A' for Active; 'I' for Inactive)
REMARK    1  A    between atoms: C_1  and  C_2
REMARK    2  A    between atoms: C_5  and  N_6
REMARK    3  A    between atoms: C_10  and  C_11
REMARK    4  A    between atoms: C_14  and  S_15
REMARK    5  A    between atoms: S_15  and  C_18
REMARK                            x       y       z     vdW  Elec       q    Type
REMARK                         _______ _______ _______ _____ _____    ______ ____
ROOT
ATOM      1  N   UNL     1      -2.188  12.167  19.109  0.00  0.00    +0.000 N 
ATOM      2  C   UNL     1      -1.442  11.565  20.088  0.00  0.00    +0.000 A 
ATOM      3  N   UNL     1      -0.670  10.527  19.976  0.00  0.00    +0.000 NA
ATOM      4  N   UNL     1      -0.238  10.222  21.215  0.00  0.00    +0.000 N 
ATOM      5  C   UNL     1       0.519   9.195  21.717  0.00  0.00    +0.000 A 
ATOM      6  N   UNL     1       0.517   9.316  23.043  0.00  0.00    +0.000 NA
ATOM      7  N   UNL     1      -0.206  10.463  23.393  0.00  0.00    +0.000 NA
ATOM      8  C   UNL     1      -0.622  10.967  22.269  0.00  0.00    +0.000 A 
ATOM      9  S   UNL     1      -1.595  12.268  21.736  0.00  0.00    +0.000 S 
ATOM     10  H   UNL     1      -2.767  12.936  19.420  0.00  0.00    +0.000 HD
ENDROOT
BRANCH   1  15
ATOM     11  C   UNL     1      -3.912   9.637  14.246  0.00  0.00    +0.000 C 
ATOM     12  C   UNL     1      -3.467  10.272  15.528  0.00  0.00    +0.000 A 
ATOM     13  C   UNL     1      -2.207  10.015  16.075  0.00  0.00    +0.000 A 
ATOM     14  C   UNL     1      -1.812  10.627  17.273  0.00  0.00    +0.000 A 
ATOM     15  C   UNL     1      -2.658  11.521  17.945  0.00  0.00    +0.000 A 
ATOM     16  C   UNL     1      -3.932  11.734  17.401  0.00  0.00    +0.000 A 
ATOM     17  C   UNL     1      -4.330  11.132  16.206  0.00  0.00    +0.000 A 
ENDBRANCH   1  15
BRANCH   5  18
ATOM     18  C   UNL     1       1.170   8.168  20.901  0.00  0.00    +0.000 A 
ATOM     19  C   UNL     1       1.799   8.496  19.687  0.00  0.00    +0.000 A 
ATOM     20  C   UNL     1       2.439   7.524  18.917  0.00  0.00    +0.000 A 
ATOM     21  C   UNL     1       2.452   6.201  19.357  0.00  0.00    +0.000 A 
ATOM     22  C   UNL     1       1.839   5.849  20.563  0.00  0.00    +0.000 A 
ATOM     23  C   UNL     1       1.199   6.832  21.329  0.00  0.00    +0.000 A 
BRANCH  21  24
ATOM     24  S   UNL     1       3.364   4.993  18.423  0.00  0.00    +0.000 S 
ATOM     25  O   UNL     1       3.390   3.774  19.211  0.00  0.00    +0.000 OA
ATOM     26  O   UNL     1       2.815   4.980  17.080  0.00  0.00    +0.000 OA
BRANCH  24  27
ATOM     27  C   UNL     1       5.039   5.583  18.306  0.00  0.00    +0.000 A 
ATOM     28  C   UNL     1       5.391   6.462  17.279  0.00  0.00    +0.000 A 
ATOM     29  C   UNL     1       6.687   6.979  17.233  0.00  0.00    +0.000 A 
ATOM     30  C   UNL     1       7.616   6.625  18.213  0.00  0.00    +0.000 A 
ATOM     31  C   UNL     1       7.255   5.753  19.242  0.00  0.00    +0.000 A 
ATOM     32  C   UNL     1       5.962   5.231  19.294  0.00  0.00    +0.000 A 
ENDBRANCH  24  27
ENDBRANCH  21  24
ENDBRANCH   5  18
TORSDOF 4
ENDMDL
MODEL 2
REMARK VINA RESULT:      -9.1      0.106      1.228
REMARK  Name = 
REMARK  5 active torsions:
REMARK  status: ('A' for Active; 'I' for Inactive)
REMARK    1  A    between atoms: C_1  and  C_2
REMARK    2  A    between atoms: C_5  and  N_6
REMARK    3  A    between atoms: C_10  and  C_11
REMARK    4  A    between atoms: C_14  and  S_15
REMARK    5  A    between atoms: S_15  and  C_18
REMARK                            x       y       z     vdW  Elec       q    Type
REMARK                         _______ _______ _______ _____ _____    ______ ____
ROOT
ATOM      1  N   UNL     1      -2.160  12.204  19.090  0.00  0.00    +0.000 N 
ATOM      2  C   UNL     1      -1.455  11.578  20.083  0.00  0.00    +0.000 A 
ATOM      3  N   UNL     1      -0.678  10.542  19.978  0.00  0.00    +0.000 NA
ATOM      4  N   UNL     1      -0.297  10.207  21.225  0.00  0.00    +0.000 N 
ATOM      5  C   UNL     1       0.440   9.167  21.732  0.00  0.00    +0.000 A 
ATOM      6  N   UNL     1       0.383   9.256  23.060  0.00  0.00    +0.000 NA
ATOM      7  N   UNL     1      -0.353  10.395  23.409  0.00  0.00    +0.000 NA
ATOM      8  C   UNL     1      -0.723  10.927  22.281  0.00  0.00    +0.000 A 
ATOM      9  S   UNL     1      -1.674  12.241  21.741  0.00  0.00    +0.000 S 
ATOM     10  H   UNL     1      -2.751  12.966  19.397  0.00  0.00    +0.000 HD
ENDROOT
BRANCH   1  15
ATOM     11  C   UNL     1      -4.065   9.581  14.346  0.00  0.00    +0.000 C 
ATOM     12  C   UNL     1      -3.566  10.289  15.568  0.00  0.00    +0.000 A 
ATOM     13  C   UNL     1      -4.383  11.156  16.299  0.00  0.00    +0.000 A 
ATOM     14  C   UNL     1      -3.893  11.803  17.442  0.00  0.00    +0.000 A 
ATOM     15  C   UNL     1      -2.583  11.587  17.893  0.00  0.00    +0.000 A 
ATOM     16  C   UNL     1      -1.768  10.745  17.125  0.00  0.00    +0.000 A 
ATOM     17  C   UNL     1      -2.251  10.094  15.988  0.00  0.00    +0.000 A 
ENDBRANCH   1  15
BRANCH   5  18
ATOM     18  C   UNL     1       1.122   8.159  20.919  0.00  0.00    +0.000 A 
ATOM     19  C   UNL     1       1.734   8.503  19.701  0.00  0.00    +0.000 A 
ATOM     20  C   UNL     1       2.405   7.550  18.933  0.00  0.00    +0.000 A 
ATOM     21  C   UNL     1       2.466   6.231  19.380  0.00  0.00    +0.000 A 
ATOM     22  C   UNL     1       1.871   5.864  20.590  0.00  0.00    +0.000 A 
ATOM     23  C   UNL     1       1.200   6.828  21.354  0.00  0.00    +0.000 A 
BRANCH  21  24
ATOM     24  S   UNL     1       3.416   5.050  18.448  0.00  0.00    +0.000 S 
ATOM     25  O   UNL     1       3.463   3.827  19.228  0.00  0.00    +0.000 OA
ATOM     26  O   UNL     1       2.881   5.033  17.099  0.00  0.00    +0.000 OA
BRANCH  24  27
ATOM     27  C   UNL     1       5.078   5.680  18.352  0.00  0.00    +0.000 A 
ATOM     28  C   UNL     1       6.005   5.335  19.338  0.00  0.00    +0.000 A 
ATOM     29  C   UNL     1       7.326   5.772  19.221  0.00  0.00    +0.000 A 
ATOM     30  C   UNL     1       7.713   6.539  18.121  0.00  0.00    +0.000 A 
ATOM     31  C   UNL     1       6.783   6.873  17.134  0.00  0.00    +0.000 A 
ATOM     32  C   UNL     1       5.461   6.441  17.244  0.00  0.00    +0.000 A 
ENDBRANCH  24  27
ENDBRANCH  21  24
ENDBRANCH   5  18
TORSDOF 4
ENDMDL
MODEL 3
REMARK VINA RESULT:      -9.1      4.051      6.068
REMARK  Name = 
REMARK  5 active torsions:
REMARK  status: ('A' for Active; 'I' for Inactive)
REMARK    1  A    between atoms: C_1  and  C_2
REMARK    2  A    between atoms: C_5  and  N_6
REMARK    3  A    between atoms: C_10  and  C_11
REMARK    4  A    between atoms: C_14  and  S_15
REMARK    5  A    between atoms: S_15  and  C_18
REMARK                            x       y       z     vdW  Elec       q    Type
REMARK                         _______ _______ _______ _____ _____    ______ ____
ROOT
ATOM      1  N   UNL     1       2.408  14.851  20.097  0.00  0.00    +0.000 N 
ATOM      2  C   UNL     1       1.467  13.871  19.926  0.00  0.00    +0.000 A 
ATOM      3  N   UNL     1       1.665  12.604  19.715  0.00  0.00    +0.000 NA
ATOM      4  N   UNL     1       0.458  12.050  19.490  0.00  0.00    +0.000 N 
ATOM      5  C   UNL     1       0.059  10.787  19.133  0.00  0.00    +0.000 A 
ATOM      6  N   UNL     1      -1.252  10.838  18.908  0.00  0.00    +0.000 NA
ATOM      7  N   UNL     1      -1.709  12.134  19.173  0.00  0.00    +0.000 NA
ATOM      8  C   UNL     1      -0.654  12.809  19.525  0.00  0.00    +0.000 A 
ATOM      9  S   UNL     1      -0.247  14.416  19.943  0.00  0.00    +0.000 S 
ATOM     10  H   UNL     1       2.040  15.789  20.195  0.00  0.00    +0.000 HD
ENDROOT
BRANCH   1  15
ATOM     11  C   UNL     1       7.816  14.852  18.153  0.00  0.00    +0.000 C 
ATOM     12  C   UNL     1       6.410  14.824  18.670  0.00  0.00    +0.000 A 
ATOM     13  C   UNL     1       6.125  14.976  20.029  0.00  0.00    +0.000 A 
ATOM     14  C   UNL     1       4.800  14.953  20.487  0.00  0.00    +0.000 A 
ATOM     15  C   UNL     1       3.728  14.795  19.597  0.00  0.00    +0.000 A 
ATOM     16  C   UNL     1       4.037  14.605  18.243  0.00  0.00    +0.000 A 
ATOM     17  C   UNL     1       5.353  14.632  17.781  0.00  0.00    +0.000 A 
ENDBRANCH   1  15
BRANCH   5  18
ATOM     18  C   UNL     1       0.956   9.636  19.015  0.00  0.00    +0.000 A 
ATOM     19  C   UNL     1       1.164   8.764  20.099  0.00  0.00    +0.000 A 
ATOM     20  C   UNL     1       2.001   7.653  19.983  0.00  0.00    +0.000 A 
ATOM     21  C   UNL     1       2.647   7.405  18.773  0.00  0.00    +0.000 A 
ATOM     22  C   UNL     1       2.452   8.253  17.679  0.00  0.00    +0.000 A 
ATOM     23  C   UNL     1       1.610   9.365  17.804  0.00  0.00    +0.000 A 
BRANCH  21  24
ATOM     24  S   UNL     1       3.623   5.927  18.606  0.00  0.00    +0.000 S 
ATOM     25  O   UNL     1       3.890   5.748  17.191  0.00  0.00    +0.000 OA
ATOM     26  O   UNL     1       4.723   6.027  19.547  0.00  0.00    +0.000 OA
BRANCH  24  27
ATOM     27  C   UNL     1       2.600   4.567  19.128  0.00  0.00    +0.000 A 
ATOM     28  C   UNL     1       2.574   4.200  20.476  0.00  0.00    +0.000 A 
ATOM     29  C   UNL     1       1.716   3.180  20.892  0.00  0.00    +0.000 A 
ATOM     30  C   UNL     1       0.887   2.544  19.968  0.00  0.00    +0.000 A 
ATOM     31  C   UNL     1       0.911   2.922  18.624  0.00  0.00    +0.000 A 
ATOM     32  C   UNL     1       1.767   3.939  18.199  0.00  0.00    +0.000 A 
ENDBRANCH  24  27
ENDBRANCH  21  24
ENDBRANCH   5  18
TORSDOF 4
ENDMDL
MODEL 4
REMARK VINA RESULT:      -9.1      0.463      1.313
REMARK  Name = 
REMARK  5 active torsions:
REMARK  status: ('A' for Active; 'I' for Inactive)
REMARK    1  A    between atoms: C_1  and  C_2
REMARK    2  A    between atoms: C_5  and  N_6
REMARK    3  A    between atoms: C_10  and  C_11
REMARK    4  A    between atoms: C_14  and  S_15
REMARK    5  A    between atoms: S_15  and  C_18
REMARK                            x       y       z     vdW  Elec       q    Type
REMARK                         _______ _______ _______ _____ _____    ______ ____
ROOT
ATOM      1  N   UNL     1      -2.266  12.330  19.052  0.00  0.00    +0.000 N 
ATOM      2  C   UNL     1      -1.539  11.764  20.066  0.00  0.00    +0.000 A 
ATOM      3  N   UNL     1      -0.771  10.718  20.008  0.00  0.00    +0.000 NA
ATOM      4  N   UNL     1      -0.360  10.461  21.265  0.00  0.00    +0.000 N 
ATOM      5  C   UNL     1       0.383   9.451  21.820  0.00  0.00    +0.000 A 
ATOM      6  N   UNL     1       0.361   9.626  23.140  0.00  0.00    +0.000 NA
ATOM      7  N   UNL     1      -0.360  10.790  23.432  0.00  0.00    +0.000 NA
ATOM      8  C   UNL     1      -0.756  11.251  22.282  0.00  0.00    +0.000 A 
ATOM      9  S   UNL     1      -1.713  12.534  21.682  0.00  0.00    +0.000 S 
ATOM     10  H   UNL     1      -2.845  13.114  19.323  0.00  0.00    +0.000 HD
ENDROOT
BRANCH   1  15
ATOM     11  C   UNL     1      -3.951   9.638  14.263  0.00  0.00    +0.000 C 
ATOM     12  C   UNL     1      -3.513  10.315  15.526  0.00  0.00    +0.000 A 
ATOM     13  C   UNL     1      -2.211  10.183  16.016  0.00  0.00    +0.000 A 
ATOM     14  C   UNL     1      -1.824  10.832  17.197  0.00  0.00    +0.000 A 
ATOM     15  C   UNL     1      -2.723  11.639  17.908  0.00  0.00    +0.000 A 
ATOM     16  C   UNL     1      -4.034  11.727  17.422  0.00  0.00    +0.000 A 
ATOM     17  C   UNL     1      -4.424  11.088  16.244  0.00  0.00    +0.000 A 
ENDBRANCH   1  15
BRANCH   5  18
ATOM     18  C   UNL     1       1.040   8.388  21.056  0.00  0.00    +0.000 A 
ATOM     19  C   UNL     1       1.001   7.052  21.492  0.00  0.00    +0.000 A 
ATOM     20  C   UNL     1       1.607   6.033  20.756  0.00  0.00    +0.000 A 
ATOM     21  C   UNL     1       2.266   6.345  19.568  0.00  0.00    +0.000 A 
ATOM     22  C   UNL     1       2.314   7.665  19.110  0.00  0.00    +0.000 A 
ATOM     23  C   UNL     1       1.703   8.681  19.856  0.00  0.00    +0.000 A 
BRANCH  21  24
ATOM     24  S   UNL     1       2.938   5.023  18.585  0.00  0.00    +0.000 S 
ATOM     25  O   UNL     1       3.099   3.877  19.461  0.00  0.00    +0.000 OA
ATOM     26  O   UNL     1       2.123   4.917  17.389  0.00  0.00    +0.000 OA
BRANCH  24  27
ATOM     27  C   UNL     1       4.566   5.531  18.074  0.00  0.00    +0.000 A 
ATOM     28  C   UNL     1       5.649   5.346  18.938  0.00  0.00    +0.000 A 
ATOM     29  C   UNL     1       6.934   5.679  18.506  0.00  0.00    +0.000 A 
ATOM     30  C   UNL     1       7.131   6.182  17.219  0.00  0.00    +0.000 A 
ATOM     31  C   UNL     1       6.045   6.355  16.358  0.00  0.00    +0.000 A 
ATOM     32  C   UNL     1       4.757   6.026  16.782  0.00  0.00    +0.000 A 
ENDBRANCH  24  27
ENDBRANCH  21  24
ENDBRANCH   5  18
TORSDOF 4
ENDMDL
MODEL 5
REMARK VINA RESULT:      -9.0      1.903      2.675
REMARK  Name = 
REMARK  5 active torsions:
REMARK  status: ('A' for Active; 'I' for Inactive)
REMARK    1  A    between atoms: C_1  and  C_2
REMARK    2  A    between atoms: C_5  and  N_6
REMARK    3  A    between atoms: C_10  and  C_11
REMARK    4  A    between atoms: C_14  and  S_15
REMARK    5  A    between atoms: S_15  and  C_18
REMARK                            x       y       z     vdW  Elec       q    Type
REMARK                         _______ _______ _______ _____ _____    ______ ____
ROOT
ATOM      1  N   UNL     1      -2.574  12.374  19.109  0.00  0.00    +0.000 N 
ATOM      2  C   UNL     1      -1.798  11.816  20.089  0.00  0.00    +0.000 A 
ATOM      3  N   UNL     1      -0.932  10.855  19.970  0.00  0.00    +0.000 NA
ATOM      4  N   UNL     1      -0.500  10.557  21.210  0.00  0.00    +0.000 N 
ATOM      5  C   UNL     1       0.336   9.589  21.704  0.00  0.00    +0.000 A 
ATOM      6  N   UNL     1       0.294   9.674  23.032  0.00  0.00    +0.000 NA
ATOM      7  N   UNL     1      -0.536  10.740  23.394  0.00  0.00    +0.000 NA
ATOM      8  C   UNL     1      -0.973  11.236  22.273  0.00  0.00    +0.000 A 
ATOM      9  S   UNL     1      -2.049  12.457  21.751  0.00  0.00    +0.000 S 
ATOM     10  H   UNL     1      -3.228  13.079  19.426  0.00  0.00    +0.000 HD
ENDROOT
BRANCH   1  15
ATOM     11  C   UNL     1      -3.969   9.844  14.142  0.00  0.00    +0.000 C 
ATOM     12  C   UNL     1      -3.606  10.478  15.450  0.00  0.00    +0.000 A 
ATOM     13  C   UNL     1      -2.316  10.382  15.978  0.00  0.00    +0.000 A 
ATOM     14  C   UNL     1      -2.000  10.990  17.201  0.00  0.00    +0.000 A 
ATOM     15  C   UNL     1      -2.960  11.720  17.918  0.00  0.00    +0.000 A 
ATOM     16  C   UNL     1      -4.257  11.770  17.391  0.00  0.00    +0.000 A 
ATOM     17  C   UNL     1      -4.577  11.172  16.171  0.00  0.00    +0.000 A 
ENDBRANCH   1  15
BRANCH   5  18
ATOM     18  C   UNL     1       1.095   8.647  20.878  0.00  0.00    +0.000 A 
ATOM     19  C   UNL     1       1.586   9.023  19.615  0.00  0.00    +0.000 A 
ATOM     20  C   UNL     1       2.328   8.135  18.834  0.00  0.00    +0.000 A 
ATOM     21  C   UNL     1       2.583   6.851  19.312  0.00  0.00    +0.000 A 
ATOM     22  C   UNL     1       2.111   6.455  20.567  0.00  0.00    +0.000 A 
ATOM     23  C   UNL     1       1.368   7.353  21.344  0.00  0.00    +0.000 A 
BRANCH  21  24
ATOM     24  S   UNL     1       3.622   5.768  18.357  0.00  0.00    +0.000 S 
ATOM     25  O   UNL     1       3.587   6.242  16.985  0.00  0.00    +0.000 OA
ATOM     26  O   UNL     1       4.889   5.657  19.055  0.00  0.00    +0.000 OA
BRANCH  24  27
ATOM     27  C   UNL     1       2.859   4.161  18.381  0.00  0.00    +0.000 A 
ATOM     28  C   UNL     1       3.660   3.016  18.363  0.00  0.00    +0.000 A 
ATOM     29  C   UNL     1       3.061   1.758  18.455  0.00  0.00    +0.000 A 
ATOM     30  C   UNL     1       1.674   1.652  18.573  0.00  0.00    +0.000 A 
ATOM     31  C   UNL     1       0.880   2.800  18.600  0.00  0.00    +0.000 A 
ATOM     32  C   UNL     1       1.471   4.061  18.507  0.00  0.00    +0.000 A 
ENDBRANCH  24  27
ENDBRANCH  21  24
ENDBRANCH   5  18
TORSDOF 4
ENDMDL
MODEL 6
REMARK VINA RESULT:      -9.0      1.062      1.386
REMARK  Name = 
REMARK  5 active torsions:
REMARK  status: ('A' for Active; 'I' for Inactive)
REMARK    1  A    between atoms: C_1  and  C_2
REMARK    2  A    between atoms: C_5  and  N_6
REMARK    3  A    between atoms: C_10  and  C_11
REMARK    4  A    between atoms: C_14  and  S_15
REMARK    5  A    between atoms: S_15  and  C_18
REMARK                            x       y       z     vdW  Elec       q    Type
REMARK                         _______ _______ _______ _____ _____    ______ ____
ROOT
ATOM      1  N   UNL     1      -1.512  11.885  19.012  0.00  0.00    +0.000 N 
ATOM      2  C   UNL     1      -0.752  11.209  19.930  0.00  0.00    +0.000 A 
ATOM      3  N   UNL     1      -0.131  10.078  19.773  0.00  0.00    +0.000 NA
ATOM      4  N   UNL     1       0.383   9.742  20.971  0.00  0.00    +0.000 N 
ATOM      5  C   UNL     1       1.053   8.635  21.425  0.00  0.00    +0.000 A 
ATOM      6  N   UNL     1       1.201   8.778  22.741  0.00  0.00    +0.000 NA
ATOM      7  N   UNL     1       0.668  10.013  23.127  0.00  0.00    +0.000 NA
ATOM      8  C   UNL     1       0.206  10.548  22.035  0.00  0.00    +0.000 A 
ATOM      9  S   UNL     1      -0.646  11.953  21.564  0.00  0.00    +0.000 S 
ATOM     10  H   UNL     1      -1.955  12.727  19.357  0.00  0.00    +0.000 HD
ENDROOT
BRANCH   1  15
ATOM     11  C   UNL     1      -4.034   9.524  14.421  0.00  0.00    +0.000 C 
ATOM     12  C   UNL     1      -3.382  10.115  15.633  0.00  0.00    +0.000 A 
ATOM     13  C   UNL     1      -2.096   9.740  16.030  0.00  0.00    +0.000 A 
ATOM     14  C   UNL     1      -1.504  10.313  17.165  0.00  0.00    +0.000 A 
ATOM     15  C   UNL     1      -2.177  11.284  17.920  0.00  0.00    +0.000 A 
ATOM     16  C   UNL     1      -3.480  11.617  17.529  0.00  0.00    +0.000 A 
ATOM     17  C   UNL     1      -4.073  11.054  16.397  0.00  0.00    +0.000 A 
ENDBRANCH   1  15
BRANCH   5  18
ATOM     18  C   UNL     1       1.482   7.519  20.579  0.00  0.00    +0.000 A 
ATOM     19  C   UNL     1       2.139   7.746  19.357  0.00  0.00    +0.000 A 
ATOM     20  C   UNL     1       2.570   6.685  18.559  0.00  0.00    +0.000 A 
ATOM     21  C   UNL     1       2.340   5.376  18.978  0.00  0.00    +0.000 A 
ATOM     22  C   UNL     1       1.694   5.123  20.192  0.00  0.00    +0.000 A 
ATOM     23  C   UNL     1       1.266   6.194  20.987  0.00  0.00    +0.000 A 
BRANCH  21  24
ATOM     24  S   UNL     1       2.990   4.035  18.006  0.00  0.00    +0.000 S 
ATOM     25  O   UNL     1       3.203   2.917  18.907  0.00  0.00    +0.000 OA
ATOM     26  O   UNL     1       2.127   3.882  16.849  0.00  0.00    +0.000 OA
BRANCH  24  27
ATOM     27  C   UNL     1       4.587   4.549  17.413  0.00  0.00    +0.000 A 
ATOM     28  C   UNL     1       5.645   4.693  18.315  0.00  0.00    +0.000 A 
ATOM     29  C   UNL     1       6.913   5.027  17.837  0.00  0.00    +0.000 A 
ATOM     30  C   UNL     1       7.120   5.204  16.468  0.00  0.00    +0.000 A 
ATOM     31  C   UNL     1       6.060   5.049  15.571  0.00  0.00    +0.000 A 
ATOM     32  C   UNL     1       4.789   4.717  16.041  0.00  0.00    +0.000 A 
ENDBRANCH  24  27
ENDBRANCH  21  24
ENDBRANCH   5  18
TORSDOF 4
ENDMDL
MODEL 7
REMARK VINA RESULT:      -8.9      3.968      5.922
REMARK  Name = 
REMARK  5 active torsions:
REMARK  status: ('A' for Active; 'I' for Inactive)
REMARK    1  A    between atoms: C_1  and  C_2
REMARK    2  A    between atoms: C_5  and  N_6
REMARK    3  A    between atoms: C_10  and  C_11
REMARK    4  A    between atoms: C_14  and  S_15
REMARK    5  A    between atoms: S_15  and  C_18
REMARK                            x       y       z     vdW  Elec       q    Type
REMARK                         _______ _______ _______ _____ _____    ______ ____
ROOT
ATOM      1  N   UNL     1       2.239  15.002  20.253  0.00  0.00    +0.000 N 
ATOM      2  C   UNL     1       1.292  14.021  20.126  0.00  0.00    +0.000 A 
ATOM      3  N   UNL     1       1.479  12.756  19.900  0.00  0.00    +0.000 NA
ATOM      4  N   UNL     1       0.264  12.200  19.734  0.00  0.00    +0.000 N 
ATOM      5  C   UNL     1      -0.151  10.939  19.393  0.00  0.00    +0.000 A 
ATOM      6  N   UNL     1      -1.473  10.989  19.235  0.00  0.00    +0.000 NA
ATOM      7  N   UNL     1      -1.917  12.284  19.528  0.00  0.00    +0.000 NA
ATOM      8  C   UNL     1      -0.846  12.958  19.829  0.00  0.00    +0.000 A 
ATOM      9  S   UNL     1      -0.420  14.564  20.232  0.00  0.00    +0.000 S 
ATOM     10  H   UNL     1       1.876  15.939  20.373  0.00  0.00    +0.000 HD
ENDROOT
BRANCH   1  15
ATOM     11  C   UNL     1       7.447  14.559  17.864  0.00  0.00    +0.000 C 
ATOM     12  C   UNL     1       6.087  14.701  18.476  0.00  0.00    +0.000 A 
ATOM     13  C   UNL     1       4.923  14.614  17.707  0.00  0.00    +0.000 A 
ATOM     14  C   UNL     1       3.662  14.744  18.305  0.00  0.00    +0.000 A 
ATOM     15  C   UNL     1       3.532  14.949  19.686  0.00  0.00    +0.000 A 
ATOM     16  C   UNL     1       4.711  15.073  20.434  0.00  0.00    +0.000 A 
ATOM     17  C   UNL     1       5.970  14.939  19.845  0.00  0.00    +0.000 A 
ENDBRANCH   1  15
BRANCH   5  18
ATOM     18  C   UNL     1       0.739   9.789  19.225  0.00  0.00    +0.000 A 
ATOM     19  C   UNL     1       1.026   8.930  20.301  0.00  0.00    +0.000 A 
ATOM     20  C   UNL     1       1.857   7.820  20.139  0.00  0.00    +0.000 A 
ATOM     21  C   UNL     1       2.418   7.561  18.889  0.00  0.00    +0.000 A 
ATOM     22  C   UNL     1       2.144   8.396  17.802  0.00  0.00    +0.000 A 
ATOM     23  C   UNL     1       1.308   9.507  17.974  0.00  0.00    +0.000 A 
BRANCH  21  24
ATOM     24  S   UNL     1       3.385   6.084  18.671  0.00  0.00    +0.000 S 
ATOM     25  O   UNL     1       3.646   5.950  17.249  0.00  0.00    +0.000 OA
ATOM     26  O   UNL     1       4.490   6.148  19.610  0.00  0.00    +0.000 OA
BRANCH  24  27
ATOM     27  C   UNL     1       2.357   4.713  19.152  0.00  0.00    +0.000 A 
ATOM     28  C   UNL     1       1.750   3.927  18.169  0.00  0.00    +0.000 A 
ATOM     29  C   UNL     1       1.004   2.810  18.549  0.00  0.00    +0.000 A 
ATOM     30  C   UNL     1       0.877   2.480  19.899  0.00  0.00    +0.000 A 
ATOM     31  C   UNL     1       1.494   3.265  20.875  0.00  0.00    +0.000 A 
ATOM     32  C   UNL     1       2.241   4.384  20.504  0.00  0.00    +0.000 A 
ENDBRANCH  24  27
ENDBRANCH  21  24
ENDBRANCH   5  18
TORSDOF 4
ENDMDL
MODEL 8
REMARK VINA RESULT:      -8.8      4.064      5.764
REMARK  Name = 
REMARK  5 active torsions:
REMARK  status: ('A' for Active; 'I' for Inactive)
REMARK    1  A    between atoms: C_1  and  C_2
REMARK    2  A    between atoms: C_5  and  N_6
REMARK    3  A    between atoms: C_10  and  C_11
REMARK    4  A    between atoms: C_14  and  S_15
REMARK    5  A    between atoms: S_15  and  C_18
REMARK                            x       y       z     vdW  Elec       q    Type
REMARK                         _______ _______ _______ _____ _____    ______ ____
ROOT
ATOM      1  N   UNL     1       2.467  14.571  20.513  0.00  0.00    +0.000 N 
ATOM      2  C   UNL     1       1.546  13.566  20.382  0.00  0.00    +0.000 A 
ATOM      3  N   UNL     1       1.756  12.333  20.030  0.00  0.00    +0.000 NA
ATOM      4  N   UNL     1       0.550  11.743  19.922  0.00  0.00    +0.000 N 
ATOM      5  C   UNL     1       0.150  10.498  19.508  0.00  0.00    +0.000 A 
ATOM      6  N   UNL     1      -1.181  10.506  19.470  0.00  0.00    +0.000 NA
ATOM      7  N   UNL     1      -1.642  11.751  19.914  0.00  0.00    +0.000 NA
ATOM      8  C   UNL     1      -0.572  12.442  20.179  0.00  0.00    +0.000 A 
ATOM      9  S   UNL     1      -0.167  14.024  20.684  0.00  0.00    +0.000 S 
ATOM     10  H   UNL     1       2.084  15.478  20.746  0.00  0.00    +0.000 HD
ENDROOT
BRANCH   1  15
ATOM     11  C   UNL     1       7.539  15.002  17.847  0.00  0.00    +0.000 C 
ATOM     12  C   UNL     1       6.223  14.863  18.550  0.00  0.00    +0.000 A 
ATOM     13  C   UNL     1       6.124  14.935  19.942  0.00  0.00    +0.000 A 
ATOM     14  C   UNL     1       4.880  14.808  20.575  0.00  0.00    +0.000 A 
ATOM     15  C   UNL     1       3.705  14.621  19.834  0.00  0.00    +0.000 A 
ATOM     16  C   UNL     1       3.830  14.511  18.443  0.00  0.00    +0.000 A 
ATOM     17  C   UNL     1       5.065  14.642  17.805  0.00  0.00    +0.000 A 
ENDBRANCH   1  15
BRANCH   5  18
ATOM     18  C   UNL     1       1.061   9.406  19.162  0.00  0.00    +0.000 A 
ATOM     19  C   UNL     1       1.618   9.306  17.875  0.00  0.00    +0.000 A 
ATOM     20  C   UNL     1       2.504   8.278  17.548  0.00  0.00    +0.000 A 
ATOM     21  C   UNL     1       2.840   7.330  18.514  0.00  0.00    +0.000 A 
ATOM     22  C   UNL     1       2.305   7.411  19.803  0.00  0.00    +0.000 A 
ATOM     23  C   UNL     1       1.417   8.446  20.121  0.00  0.00    +0.000 A 
BRANCH  21  24
ATOM     24  S   UNL     1       4.054   6.091  18.117  0.00  0.00    +0.000 S 
ATOM     25  O   UNL     1       4.503   6.351  16.761  0.00  0.00    +0.000 OA
ATOM     26  O   UNL     1       5.012   6.060  19.207  0.00  0.00    +0.000 OA
BRANCH  24  27
ATOM     27  C   UNL     1       3.212   4.524  18.104  0.00  0.00    +0.000 A 
ATOM     28  C   UNL     1       3.955   3.341  18.148  0.00  0.00    +0.000 A 
ATOM     29  C   UNL     1       3.289   2.115  18.211  0.00  0.00    +0.000 A 
ATOM     30  C   UNL     1       1.894   2.078  18.240  0.00  0.00    +0.000 A 
ATOM     31  C   UNL     1       1.158   3.265  18.205  0.00  0.00    +0.000 A 
ATOM     32  C   UNL     1       1.816   4.494  18.141  0.00  0.00    +0.000 A 
ENDBRANCH  24  27
ENDBRANCH  21  24
ENDBRANCH   5  18
TORSDOF 4
ENDMDL
MODEL 9
REMARK VINA RESULT:      -8.8      3.632      8.904
REMARK  Name = 
REMARK  5 active torsions:
REMARK  status: ('A' for Active; 'I' for Inactive)
REMARK    1  A    between atoms: C_1  and  C_2
REMARK    2  A    between atoms: C_5  and  N_6
REMARK    3  A    between atoms: C_10  and  C_11
REMARK    4  A    between atoms: C_14  and  S_15
REMARK    5  A    between atoms: S_15  and  C_18
REMARK                            x       y       z     vdW  Elec       q    Type
REMARK                         _______ _______ _______ _____ _____    ______ ____
ROOT
ATOM      1  N   UNL     1       6.029   4.824  18.094  0.00  0.00    +0.000 N 
ATOM      2  C   UNL     1       4.843   4.670  18.760  0.00  0.00    +0.000 A 
ATOM      3  N   UNL     1       3.978   5.588  19.071  0.00  0.00    +0.000 NA
ATOM      4  N   UNL     1       3.029   4.997  19.823  0.00  0.00    +0.000 N 
ATOM      5  C   UNL     1       1.933   5.475  20.494  0.00  0.00    +0.000 A 
ATOM      6  N   UNL     1       1.427   4.461  21.193  0.00  0.00    +0.000 NA
ATOM      7  N   UNL     1       2.173   3.308  20.926  0.00  0.00    +0.000 NA
ATOM      8  C   UNL     1       3.105   3.681  20.099  0.00  0.00    +0.000 A 
ATOM      9  S   UNL     1       4.464   3.001  19.316  0.00  0.00    +0.000 S 
ATOM     10  H   UNL     1       6.584   3.982  18.001  0.00  0.00    +0.000 HD
ENDROOT
BRANCH   1  15
ATOM     11  C   UNL     1       9.018   9.731  18.168  0.00  0.00    +0.000 C 
ATOM     12  C   UNL     1       8.261   8.439  18.135  0.00  0.00    +0.000 A 
ATOM     13  C   UNL     1       8.559   7.392  19.011  0.00  0.00    +0.000 A 
ATOM     14  C   UNL     1       7.831   6.194  18.965  0.00  0.00    +0.000 A 
ATOM     15  C   UNL     1       6.780   6.020  18.054  0.00  0.00    +0.000 A 
ATOM     16  C   UNL     1       6.522   7.066  17.158  0.00  0.00    +0.000 A 
ATOM     17  C   UNL     1       7.240   8.263  17.202  0.00  0.00    +0.000 A 
ENDBRANCH   1  15
BRANCH   5  18
ATOM     18  C   UNL     1       1.464   6.861  20.435  0.00  0.00    +0.000 A 
ATOM     19  C   UNL     1       1.902   7.733  19.423  0.00  0.00    +0.000 A 
ATOM     20  C   UNL     1       1.439   9.048  19.352  0.00  0.00    +0.000 A 
ATOM     21  C   UNL     1       0.530   9.508  20.303  0.00  0.00    +0.000 A 
ATOM     22  C   UNL     1       0.075   8.659  21.316  0.00  0.00    +0.000 A 
ATOM     23  C   UNL     1       0.544   7.340  21.380  0.00  0.00    +0.000 A 
BRANCH  21  24
ATOM     24  S   UNL     1      -0.134  11.150  20.136  0.00  0.00    +0.000 S 
ATOM     25  O   UNL     1      -0.624  11.548  21.442  0.00  0.00    +0.000 OA
ATOM     26  O   UNL     1       0.867  11.954  19.458  0.00  0.00    +0.000 OA
BRANCH  24  27
ATOM     27  C   UNL     1      -1.542  11.033  19.055  0.00  0.00    +0.000 A 
ATOM     28  C   UNL     1      -2.658  11.843  19.284  0.00  0.00    +0.000 A 
ATOM     29  C   UNL     1      -3.731  11.801  18.393  0.00  0.00    +0.000 A 
ATOM     30  C   UNL     1      -3.681  10.962  17.278  0.00  0.00    +0.000 A 
ATOM     31  C   UNL     1      -2.560  10.162  17.050  0.00  0.00    +0.000 A 
ATOM     32  C   UNL     1      -1.483  10.198  17.937  0.00  0.00    +0.000 A 
ENDBRANCH  24  27
ENDBRANCH  21  24
ENDBRANCH   5  18
TORSDOF 4
ENDMDL
