MODEL 1
REMARK VINA RESULT:      -8.3      0.000      0.000
REMARK  Name = 
REMARK  5 active torsions:
REMARK  status: ('A' for Active; 'I' for Inactive)
REMARK    1  A    between atoms: C_2  and  C_17
REMARK    2  A    between atoms: N_3  and  C_4
REMARK    3  A    between atoms: C_7  and  O_8
REMARK    4  A    between atoms: O_8  and  C_9
REMARK    5  A    between atoms: C_18  and  O_19
REMARK                            x       y       z     vdW  Elec       q    Type
REMARK                         _______ _______ _______ _____ _____    ______ ____
ROOT
ATOM      1  O   UNL     1       7.749  10.369  17.745  0.00  0.00    +0.000 OA
ATOM      2  C   UNL     1       8.631   9.939  18.480  0.00  0.00    +0.000 C 
ATOM      3  N   UNL     1       8.775   8.633  18.898  0.00  0.00    +0.000 N 
ATOM      4  H   UNL     1       9.341   8.488  19.725  0.00  0.00    +0.000 HD
ENDROOT
BRANCH   2   5
ATOM      5  C   UNL     1       9.567  10.856  19.091  0.00  0.00    +0.000 A 
ATOM      6  C   UNL     1       9.819  10.986  20.463  0.00  0.00    +0.000 A 
ATOM      7  N   UNL     1      10.744  11.880  20.773  0.00  0.00    +0.000 NA
ATOM      8  N   UNL     1      11.108  12.404  19.577  0.00  0.00    +0.000 N 
ATOM      9  C   UNL     1      12.067  13.393  19.354  0.00  0.00    +0.000 A 
ATOM     10  C   UNL     1      12.331  13.814  18.107  0.00  0.00    +0.000 A 
ATOM     11  C   UNL     1      11.578  13.245  17.004  0.00  0.00    +0.000 A 
ATOM     12  C   UNL     1      10.641  12.299  17.201  0.00  0.00    +0.000 A 
ATOM     13  C   UNL     1      10.392  11.812  18.522  0.00  0.00    +0.000 A 
BRANCH   6  14
ATOM     14  O   UNL     1       9.281  10.302  21.479  0.00  0.00    +0.000 OA
ATOM     15  H   UNL     1       8.498   9.815  21.157  0.00  0.00    +0.000 HD
ENDBRANCH   6  14
ENDBRANCH   2   5
BRANCH   3  16
ATOM     16  C   UNL     1       8.060   7.522  18.424  0.00  0.00    +0.000 A 
ATOM     17  C   UNL     1       7.422   7.496  17.184  0.00  0.00    +0.000 A 
ATOM     18  C   UNL     1       6.740   6.351  16.768  0.00  0.00    +0.000 A 
ATOM     19  C   UNL     1       6.691   5.226  17.590  0.00  0.00    +0.000 A 
ATOM     20  C   UNL     1       7.291   5.264  18.850  0.00  0.00    +0.000 A 
ATOM     21  C   UNL     1       8.011   6.392  19.247  0.00  0.00    +0.000 A 
BRANCH  19  22
ATOM     22  O   UNL     1       5.984   4.154  17.098  0.00  0.00    +0.000 OA
BRANCH  22  23
ATOM     23  C   UNL     1       4.671   3.974  17.469  0.00  0.00    +0.000 A 
ATOM     24  C   UNL     1       4.369   2.740  18.048  0.00  0.00    +0.000 A 
ATOM     25  C   UNL     1       3.065   2.457  18.451  0.00  0.00    +0.000 A 
ATOM     26  C   UNL     1       2.059   3.406  18.273  0.00  0.00    +0.000 A 
ATOM     27  C   UNL     1       2.362   4.653  17.728  0.00  0.00    +0.000 A 
ATOM     28  C   UNL     1       3.675   4.948  17.355  0.00  0.00    +0.000 A 
ENDBRANCH  22  23
ENDBRANCH  19  22
ENDBRANCH   3  16
TORSDOF 5
ENDMDL
MODEL 2
REMARK VINA RESULT:      -8.2      6.718      8.808
REMARK  Name = 
REMARK  5 active torsions:
REMARK  status: ('A' for Active; 'I' for Inactive)
REMARK    1  A    between atoms: C_2  and  C_17
REMARK    2  A    between atoms: N_3  and  C_4
REMARK    3  A    between atoms: C_7  and  O_8
REMARK    4  A    between atoms: O_8  and  C_9
REMARK    5  A    between atoms: C_18  and  O_19
REMARK                            x       y       z     vdW  Elec       q    Type
REMARK                         _______ _______ _______ _____ _____    ______ ____
ROOT
ATOM      1  O   UNL     1      -0.537   9.797  17.696  0.00  0.00    +0.000 OA
ATOM      2  C   UNL     1      -0.071  10.231  18.744  0.00  0.00    +0.000 C 
ATOM      3  N   UNL     1       0.969   9.678  19.460  0.00  0.00    +0.000 N 
ATOM      4  H   UNL     1       1.037   9.950  20.432  0.00  0.00    +0.000 HD
ENDROOT
BRANCH   2   5
ATOM      5  C   UNL     1      -0.702  11.353  19.400  0.00  0.00    +0.000 A 
ATOM      6  C   UNL     1      -1.129  12.537  18.785  0.00  0.00    +0.000 A 
ATOM      7  N   UNL     1      -1.706  13.406  19.598  0.00  0.00    +0.000 NA
ATOM      8  N   UNL     1      -1.637  12.814  20.815  0.00  0.00    +0.000 N 
ATOM      9  C   UNL     1      -2.116  13.324  22.022  0.00  0.00    +0.000 A 
ATOM     10  C   UNL     1      -1.983  12.619  23.157  0.00  0.00    +0.000 A 
ATOM     11  C   UNL     1      -1.306  11.336  23.108  0.00  0.00    +0.000 A 
ATOM     12  C   UNL     1      -0.826  10.833  21.954  0.00  0.00    +0.000 A 
ATOM     13  C   UNL     1      -1.010  11.558  20.736  0.00  0.00    +0.000 A 
BRANCH   6  14
ATOM     14  O   UNL     1      -1.065  12.874  17.492  0.00  0.00    +0.000 OA
ATOM     15  H   UNL     1      -1.824  12.483  17.021  0.00  0.00    +0.000 HD
ENDBRANCH   6  14
ENDBRANCH   2   5
BRANCH   3  16
ATOM     16  C   UNL     1       1.808   8.632  19.042  0.00  0.00    +0.000 A 
ATOM     17  C   UNL     1       2.474   8.630  17.816  0.00  0.00    +0.000 A 
ATOM     18  C   UNL     1       3.305   7.563  17.469  0.00  0.00    +0.000 A 
ATOM     19  C   UNL     1       3.474   6.492  18.345  0.00  0.00    +0.000 A 
ATOM     20  C   UNL     1       2.774   6.470  19.553  0.00  0.00    +0.000 A 
ATOM     21  C   UNL     1       1.979   7.556  19.919  0.00  0.00    +0.000 A 
BRANCH  19  22
ATOM     22  O   UNL     1       4.300   5.484  17.907  0.00  0.00    +0.000 OA
BRANCH  22  23
ATOM     23  C   UNL     1       4.003   4.176  18.211  0.00  0.00    +0.000 A 
ATOM     24  C   UNL     1       3.068   3.557  17.380  0.00  0.00    +0.000 A 
ATOM     25  C   UNL     1       2.693   2.234  17.610  0.00  0.00    +0.000 A 
ATOM     26  C   UNL     1       3.252   1.527  18.674  0.00  0.00    +0.000 A 
ATOM     27  C   UNL     1       4.213   2.129  19.485  0.00  0.00    +0.000 A 
ATOM     28  C   UNL     1       4.612   3.443  19.234  0.00  0.00    +0.000 A 
ENDBRANCH  22  23
ENDBRANCH  19  22
ENDBRANCH   3  16
TORSDOF 5
ENDMDL
MODEL 3
REMARK VINA RESULT:      -8.1      5.928      8.202
REMARK  Name = 
REMARK  5 active torsions:
REMARK  status: ('A' for Active; 'I' for Inactive)
REMARK    1  A    between atoms: C_2  and  C_17
REMARK    2  A    between atoms: N_3  and  C_4
REMARK    3  A    between atoms: C_7  and  O_8
REMARK    4  A    between atoms: O_8  and  C_9
REMARK    5  A    between atoms: C_18  and  O_19
REMARK                            x       y       z     vdW  Elec       q    Type
REMARK                         _______ _______ _______ _____ _____    ______ ____
ROOT
ATOM      1  O   UNL     1       1.892   6.817  20.236  0.00  0.00    +0.000 OA
ATOM      2  C   UNL     1       1.921   7.786  19.485  0.00  0.00    +0.000 C 
ATOM      3  N   UNL     1       2.712   7.919  18.363  0.00  0.00    +0.000 N 
ATOM      4  H   UNL     1       2.860   8.864  18.031  0.00  0.00    +0.000 HD
ENDROOT
BRANCH   2   5
ATOM      5  C   UNL     1       1.169   8.975  19.815  0.00  0.00    +0.000 A 
ATOM      6  C   UNL     1       0.862  10.027  18.944  0.00  0.00    +0.000 A 
ATOM      7  N   UNL     1       0.134  10.994  19.478  0.00  0.00    +0.000 NA
ATOM      8  N   UNL     1      -0.030  10.607  20.767  0.00  0.00    +0.000 N 
ATOM      9  C   UNL     1      -0.736  11.287  21.761  0.00  0.00    +0.000 A 
ATOM     10  C   UNL     1      -0.821  10.779  23.001  0.00  0.00    +0.000 A 
ATOM     11  C   UNL     1      -0.139   9.530  23.292  0.00  0.00    +0.000 A 
ATOM     12  C   UNL     1       0.557   8.867  22.350  0.00  0.00    +0.000 A 
ATOM     13  C   UNL     1       0.608   9.379  21.016  0.00  0.00    +0.000 A 
BRANCH   6  14
ATOM     14  O   UNL     1       1.173  10.155  17.649  0.00  0.00    +0.000 OA
ATOM     15  H   UNL     1       0.821  11.002  17.317  0.00  0.00    +0.000 HD
ENDBRANCH   6  14
ENDBRANCH   2   5
BRANCH   3  16
ATOM     16  C   UNL     1       3.491   6.915  17.767  0.00  0.00    +0.000 A 
ATOM     17  C   UNL     1       3.172   5.558  17.835  0.00  0.00    +0.000 A 
ATOM     18  C   UNL     1       3.984   4.613  17.205  0.00  0.00    +0.000 A 
ATOM     19  C   UNL     1       5.119   5.018  16.505  0.00  0.00    +0.000 A 
ATOM     20  C   UNL     1       5.466   6.370  16.473  0.00  0.00    +0.000 A 
ATOM     21  C   UNL     1       4.631   7.319  17.064  0.00  0.00    +0.000 A 
BRANCH  19  22
ATOM     22  O   UNL     1       5.861   4.011  15.933  0.00  0.00    +0.000 OA
BRANCH  22  23
ATOM     23  C   UNL     1       6.293   4.135  14.633  0.00  0.00    +0.000 A 
ATOM     24  C   UNL     1       5.539   3.453  13.676  0.00  0.00    +0.000 A 
ATOM     25  C   UNL     1       5.900   3.509  12.331  0.00  0.00    +0.000 A 
ATOM     26  C   UNL     1       7.017   4.246  11.939  0.00  0.00    +0.000 A 
ATOM     27  C   UNL     1       7.751   4.958  12.886  0.00  0.00    +0.000 A 
ATOM     28  C   UNL     1       7.370   4.928  14.229  0.00  0.00    +0.000 A 
ENDBRANCH  22  23
ENDBRANCH  19  22
ENDBRANCH   3  16
TORSDOF 5
ENDMDL
MODEL 4
REMARK VINA RESULT:      -8.0      6.720      8.794
REMARK  Name = 
REMARK  5 active torsions:
REMARK  status: ('A' for Active; 'I' for Inactive)
REMARK    1  A    between atoms: C_2  and  C_17
REMARK    2  A    between atoms: N_3  and  C_4
REMARK    3  A    between atoms: C_7  and  O_8
REMARK    4  A    between atoms: O_8  and  C_9
REMARK    5  A    between atoms: C_18  and  O_19
REMARK                            x       y       z     vdW  Elec       q    Type
REMARK                         _______ _______ _______ _____ _____    ______ ____
ROOT
ATOM      1  O   UNL     1       1.707  11.468  18.510  0.00  0.00    +0.000 OA
ATOM      2  C   UNL     1       0.813  10.931  19.154  0.00  0.00    +0.000 C 
ATOM      3  N   UNL     1       0.665   9.576  19.363  0.00  0.00    +0.000 N 
ATOM      4  H   UNL     1      -0.259   9.264  19.636  0.00  0.00    +0.000 HD
ENDROOT
BRANCH   2   5
ATOM      5  C   UNL     1      -0.279  11.725  19.668  0.00  0.00    +0.000 A 
ATOM      6  C   UNL     1      -0.977  12.720  18.971  0.00  0.00    +0.000 A 
ATOM      7  N   UNL     1      -1.959  13.288  19.652  0.00  0.00    +0.000 NA
ATOM      8  N   UNL     1      -1.905  12.689  20.867  0.00  0.00    +0.000 N 
ATOM      9  C   UNL     1      -2.741  12.933  21.958  0.00  0.00    +0.000 A 
ATOM     10  C   UNL     1      -2.575  12.256  23.105  0.00  0.00    +0.000 A 
ATOM     11  C   UNL     1      -1.492  11.293  23.197  0.00  0.00    +0.000 A 
ATOM     12  C   UNL     1      -0.668  11.053  22.160  0.00  0.00    +0.000 A 
ATOM     13  C   UNL     1      -0.873  11.735  20.920  0.00  0.00    +0.000 A 
BRANCH   6  14
ATOM     14  O   UNL     1      -0.805  13.130  17.709  0.00  0.00    +0.000 OA
ATOM     15  H   UNL     1       0.137  13.043  17.470  0.00  0.00    +0.000 HD
ENDBRANCH   6  14
ENDBRANCH   2   5
BRANCH   3  16
ATOM     16  C   UNL     1       1.594   8.575  19.040  0.00  0.00    +0.000 A 
ATOM     17  C   UNL     1       2.281   8.533  17.825  0.00  0.00    +0.000 A 
ATOM     18  C   UNL     1       3.203   7.515  17.574  0.00  0.00    +0.000 A 
ATOM     19  C   UNL     1       3.444   6.534  18.535  0.00  0.00    +0.000 A 
ATOM     20  C   UNL     1       2.727   6.548  19.732  0.00  0.00    +0.000 A 
ATOM     21  C   UNL     1       1.838   7.589  20.001  0.00  0.00    +0.000 A 
BRANCH  19  22
ATOM     22  O   UNL     1       4.359   5.568  18.187  0.00  0.00    +0.000 OA
BRANCH  22  23
ATOM     23  C   UNL     1       4.013   4.239  18.267  0.00  0.00    +0.000 A 
ATOM     24  C   UNL     1       4.582   3.527  19.324  0.00  0.00    +0.000 A 
ATOM     25  C   UNL     1       4.299   2.172  19.487  0.00  0.00    +0.000 A 
ATOM     26  C   UNL     1       3.450   1.524  18.591  0.00  0.00    +0.000 A 
ATOM     27  C   UNL     1       2.851   2.239  17.555  0.00  0.00    +0.000 A 
ATOM     28  C   UNL     1       3.109   3.604  17.412  0.00  0.00    +0.000 A 
ENDBRANCH  22  23
ENDBRANCH  19  22
ENDBRANCH   3  16
TORSDOF 5
ENDMDL
MODEL 5
REMARK VINA RESULT:      -8.0      6.690      8.819
REMARK  Name = 
REMARK  5 active torsions:
REMARK  status: ('A' for Active; 'I' for Inactive)
REMARK    1  A    between atoms: C_2  and  C_17
REMARK    2  A    between atoms: N_3  and  C_4
REMARK    3  A    between atoms: C_7  and  O_8
REMARK    4  A    between atoms: O_8  and  C_9
REMARK    5  A    between atoms: C_18  and  O_19
REMARK                            x       y       z     vdW  Elec       q    Type
REMARK                         _______ _______ _______ _____ _____    ______ ____
ROOT
ATOM      1  O   UNL     1      -0.436   9.752  17.664  0.00  0.00    +0.000 OA
ATOM      2  C   UNL     1      -0.033  10.164  18.746  0.00  0.00    +0.000 C 
ATOM      3  N   UNL     1       0.953   9.588  19.518  0.00  0.00    +0.000 N 
ATOM      4  H   UNL     1       0.962   9.845  20.497  0.00  0.00    +0.000 HD
ENDROOT
BRANCH   2   5
ATOM      5  C   UNL     1      -0.692  11.284  19.378  0.00  0.00    +0.000 A 
ATOM      6  C   UNL     1      -1.163  12.436  18.735  0.00  0.00    +0.000 A 
ATOM      7  N   UNL     1      -1.758  13.310  19.531  0.00  0.00    +0.000 NA
ATOM      8  N   UNL     1      -1.657  12.754  20.763  0.00  0.00    +0.000 N 
ATOM      9  C   UNL     1      -2.139  13.283  21.961  0.00  0.00    +0.000 A 
ATOM     10  C   UNL     1      -1.972  12.615  23.114  0.00  0.00    +0.000 A 
ATOM     11  C   UNL     1      -1.254  11.352  23.092  0.00  0.00    +0.000 A 
ATOM     12  C   UNL     1      -0.772  10.833  21.947  0.00  0.00    +0.000 A 
ATOM     13  C   UNL     1      -0.992  11.516  20.711  0.00  0.00    +0.000 A 
BRANCH   6  14
ATOM     14  O   UNL     1      -1.124  12.739  17.433  0.00  0.00    +0.000 OA
ATOM     15  H   UNL     1      -1.330  11.940  16.912  0.00  0.00    +0.000 HD
ENDBRANCH   6  14
ENDBRANCH   2   5
BRANCH   3  16
ATOM     16  C   UNL     1       1.805   8.539  19.138  0.00  0.00    +0.000 A 
ATOM     17  C   UNL     1       1.999   7.393  19.912  0.00  0.00    +0.000 A 
ATOM     18  C   UNL     1       2.850   6.380  19.467  0.00  0.00    +0.000 A 
ATOM     19  C   UNL     1       3.513   6.506  18.247  0.00  0.00    +0.000 A 
ATOM     20  C   UNL     1       3.355   7.669  17.492  0.00  0.00    +0.000 A 
ATOM     21  C   UNL     1       2.471   8.662  17.915  0.00  0.00    +0.000 A 
BRANCH  19  22
ATOM     22  O   UNL     1       4.339   5.462  17.904  0.00  0.00    +0.000 OA
BRANCH  22  23
ATOM     23  C   UNL     1       3.919   4.166  18.098  0.00  0.00    +0.000 A 
ATOM     24  C   UNL     1       4.512   3.490  19.166  0.00  0.00    +0.000 A 
ATOM     25  C   UNL     1       4.160   2.170  19.441  0.00  0.00    +0.000 A 
ATOM     26  C   UNL     1       3.215   1.521  18.646  0.00  0.00    +0.000 A 
ATOM     27  C   UNL     1       2.594   2.203  17.602  0.00  0.00    +0.000 A 
ATOM     28  C   UNL     1       2.923   3.536  17.347  0.00  0.00    +0.000 A 
ENDBRANCH  22  23
ENDBRANCH  19  22
ENDBRANCH   3  16
TORSDOF 5
ENDMDL
MODEL 6
REMARK VINA RESULT:      -8.0      0.604      1.114
REMARK  Name = 
REMARK  5 active torsions:
REMARK  status: ('A' for Active; 'I' for Inactive)
REMARK    1  A    between atoms: C_2  and  C_17
REMARK    2  A    between atoms: N_3  and  C_4
REMARK    3  A    between atoms: C_7  and  O_8
REMARK    4  A    between atoms: O_8  and  C_9
REMARK    5  A    between atoms: C_18  and  O_19
REMARK                            x       y       z     vdW  Elec       q    Type
REMARK                         _______ _______ _______ _____ _____    ______ ____
ROOT
ATOM      1  O   UNL     1       8.155  10.392  17.452  0.00  0.00    +0.000 OA
ATOM      2  C   UNL     1       8.870  10.075  18.397  0.00  0.00    +0.000 C 
ATOM      3  N   UNL     1       8.886   8.848  19.026  0.00  0.00    +0.000 N 
ATOM      4  H   UNL     1       9.283   8.829  19.957  0.00  0.00    +0.000 HD
ENDROOT
BRANCH   2   5
ATOM      5  C   UNL     1       9.710  11.067  19.027  0.00  0.00    +0.000 A 
ATOM      6  C   UNL     1       9.876  11.254  20.406  0.00  0.00    +0.000 A 
ATOM      7  N   UNL     1      10.724  12.214  20.736  0.00  0.00    +0.000 NA
ATOM      8  N   UNL     1      11.121  12.726  19.545  0.00  0.00    +0.000 N 
ATOM      9  C   UNL     1      12.027  13.768  19.342  0.00  0.00    +0.000 A 
ATOM     10  C   UNL     1      12.333  14.168  18.098  0.00  0.00    +0.000 A 
ATOM     11  C   UNL     1      11.681  13.519  16.975  0.00  0.00    +0.000 A 
ATOM     12  C   UNL     1      10.795  12.521  17.152  0.00  0.00    +0.000 A 
ATOM     13  C   UNL     1      10.504  12.058  18.472  0.00  0.00    +0.000 A 
BRANCH   6  14
ATOM     14  O   UNL     1       9.326  10.566  21.412  0.00  0.00    +0.000 OA
ATOM     15  H   UNL     1       9.865  10.687  22.216  0.00  0.00    +0.000 HD
ENDBRANCH   6  14
ENDBRANCH   2   5
BRANCH   3  16
ATOM     16  C   UNL     1       8.230   7.682  18.600  0.00  0.00    +0.000 A 
ATOM     17  C   UNL     1       8.352   6.455  19.253  0.00  0.00    +0.000 A 
ATOM     18  C   UNL     1       7.660   5.337  18.783  0.00  0.00    +0.000 A 
ATOM     19  C   UNL     1       6.842   5.440  17.659  0.00  0.00    +0.000 A 
ATOM     20  C   UNL     1       6.752   6.655  16.978  0.00  0.00    +0.000 A 
ATOM     21  C   UNL     1       7.409   7.782  17.472  0.00  0.00    +0.000 A 
BRANCH  19  22
ATOM     22  O   UNL     1       6.214   4.281  17.267  0.00  0.00    +0.000 OA
BRANCH  22  23
ATOM     23  C   UNL     1       4.918   4.039  17.661  0.00  0.00    +0.000 A 
ATOM     24  C   UNL     1       4.730   3.829  19.029  0.00  0.00    +0.000 A 
ATOM     25  C   UNL     1       3.455   3.568  19.527  0.00  0.00    +0.000 A 
ATOM     26  C   UNL     1       2.364   3.514  18.660  0.00  0.00    +0.000 A 
ATOM     27  C   UNL     1       2.542   3.760  17.299  0.00  0.00    +0.000 A 
ATOM     28  C   UNL     1       3.814   4.053  16.805  0.00  0.00    +0.000 A 
ENDBRANCH  22  23
ENDBRANCH  19  22
ENDBRANCH   3  16
TORSDOF 5
ENDMDL
MODEL 7
REMARK VINA RESULT:      -8.0      6.408      8.439
REMARK  Name = 
REMARK  5 active torsions:
REMARK  status: ('A' for Active; 'I' for Inactive)
REMARK    1  A    between atoms: C_2  and  C_17
REMARK    2  A    between atoms: N_3  and  C_4
REMARK    3  A    between atoms: C_7  and  O_8
REMARK    4  A    between atoms: O_8  and  C_9
REMARK    5  A    between atoms: C_18  and  O_19
REMARK                            x       y       z     vdW  Elec       q    Type
REMARK                         _______ _______ _______ _____ _____    ______ ____
ROOT
ATOM      1  O   UNL     1      -0.460   7.713  21.505  0.00  0.00    +0.000 OA
ATOM      2  C   UNL     1       0.183   8.688  21.132  0.00  0.00    +0.000 C 
ATOM      3  N   UNL     1       1.354   8.657  20.405  0.00  0.00    +0.000 N 
ATOM      4  H   UNL     1       1.922   9.494  20.438  0.00  0.00    +0.000 HD
ENDROOT
BRANCH   2   5
ATOM      5  C   UNL     1      -0.207  10.012  21.559  0.00  0.00    +0.000 A 
ATOM      6  C   UNL     1      -0.383  10.434  22.883  0.00  0.00    +0.000 A 
ATOM      7  N   UNL     1      -0.716  11.708  23.018  0.00  0.00    +0.000 NA
ATOM      8  N   UNL     1      -0.807  12.160  21.744  0.00  0.00    +0.000 N 
ATOM      9  C   UNL     1      -1.128  13.456  21.337  0.00  0.00    +0.000 A 
ATOM     10  C   UNL     1      -1.176  13.765  20.031  0.00  0.00    +0.000 A 
ATOM     11  C   UNL     1      -0.919  12.721  19.056  0.00  0.00    +0.000 A 
ATOM     12  C   UNL     1      -0.619  11.462  19.430  0.00  0.00    +0.000 A 
ATOM     13  C   UNL     1      -0.519  11.141  20.819  0.00  0.00    +0.000 A 
BRANCH   6  14
ATOM     14  O   UNL     1      -0.219   9.733  24.010  0.00  0.00    +0.000 OA
ATOM     15  H   UNL     1       0.494   9.080  23.880  0.00  0.00    +0.000 HD
ENDBRANCH   6  14
ENDBRANCH   2   5
BRANCH   3  16
ATOM     16  C   UNL     1       1.933   7.530  19.802  0.00  0.00    +0.000 A 
ATOM     17  C   UNL     1       2.427   7.530  18.496  0.00  0.00    +0.000 A 
ATOM     18  C   UNL     1       3.005   6.376  17.963  0.00  0.00    +0.000 A 
ATOM     19  C   UNL     1       3.092   5.216  18.730  0.00  0.00    +0.000 A 
ATOM     20  C   UNL     1       2.559   5.199  20.021  0.00  0.00    +0.000 A 
ATOM     21  C   UNL     1       2.022   6.364  20.570  0.00  0.00    +0.000 A 
BRANCH  19  22
ATOM     22  O   UNL     1       3.664   4.130  18.111  0.00  0.00    +0.000 OA
BRANCH  22  23
ATOM     23  C   UNL     1       4.869   4.270  17.462  0.00  0.00    +0.000 A 
ATOM     24  C   UNL     1       5.969   4.541  18.277  0.00  0.00    +0.000 A 
ATOM     25  C   UNL     1       7.233   4.709  17.714  0.00  0.00    +0.000 A 
ATOM     26  C   UNL     1       7.400   4.608  16.333  0.00  0.00    +0.000 A 
ATOM     27  C   UNL     1       6.311   4.301  15.519  0.00  0.00    +0.000 A 
ATOM     28  C   UNL     1       5.051   4.102  16.086  0.00  0.00    +0.000 A 
ENDBRANCH  22  23
ENDBRANCH  19  22
ENDBRANCH   3  16
TORSDOF 5
ENDMDL
MODEL 8
REMARK VINA RESULT:      -8.0      6.703      8.873
REMARK  Name = 
REMARK  5 active torsions:
REMARK  status: ('A' for Active; 'I' for Inactive)
REMARK    1  A    between atoms: C_2  and  C_17
REMARK    2  A    between atoms: N_3  and  C_4
REMARK    3  A    between atoms: C_7  and  O_8
REMARK    4  A    between atoms: O_8  and  C_9
REMARK    5  A    between atoms: C_18  and  O_19
REMARK                            x       y       z     vdW  Elec       q    Type
REMARK                         _______ _______ _______ _____ _____    ______ ____
ROOT
ATOM      1  O   UNL     1       1.692  11.406  18.536  0.00  0.00    +0.000 OA
ATOM      2  C   UNL     1       0.800  10.865  19.180  0.00  0.00    +0.000 C 
ATOM      3  N   UNL     1       0.666   9.511  19.403  0.00  0.00    +0.000 N 
ATOM      4  H   UNL     1      -0.255   9.191  19.673  0.00  0.00    +0.000 HD
ENDROOT
BRANCH   2   5
ATOM      5  C   UNL     1      -0.305  11.652  19.678  0.00  0.00    +0.000 A 
ATOM      6  C   UNL     1      -1.018  12.621  18.961  0.00  0.00    +0.000 A 
ATOM      7  N   UNL     1      -2.009  13.187  19.630  0.00  0.00    +0.000 NA
ATOM      8  N   UNL     1      -1.948  12.613  20.856  0.00  0.00    +0.000 N 
ATOM      9  C   UNL     1      -2.789  12.864  21.941  0.00  0.00    +0.000 A 
ATOM     10  C   UNL     1      -2.614  12.212  23.101  0.00  0.00    +0.000 A 
ATOM     11  C   UNL     1      -1.516  11.268  23.213  0.00  0.00    +0.000 A 
ATOM     12  C   UNL     1      -0.687  11.022  22.181  0.00  0.00    +0.000 A 
ATOM     13  C   UNL     1      -0.901  11.677  20.929  0.00  0.00    +0.000 A 
BRANCH   6  14
ATOM     14  O   UNL     1      -0.851  13.010  17.692  0.00  0.00    +0.000 OA
ATOM     15  H   UNL     1      -0.035  13.540  17.625  0.00  0.00    +0.000 HD
ENDBRANCH   6  14
ENDBRANCH   2   5
BRANCH   3  16
ATOM     16  C   UNL     1       1.610   8.517  19.097  0.00  0.00    +0.000 A 
ATOM     17  C   UNL     1       1.958   7.495  19.982  0.00  0.00    +0.000 A 
ATOM     18  C   UNL     1       2.895   6.530  19.607  0.00  0.00    +0.000 A 
ATOM     19  C   UNL     1       3.489   6.581  18.348  0.00  0.00    +0.000 A 
ATOM     20  C   UNL     1       3.176   7.626  17.477  0.00  0.00    +0.000 A 
ATOM     21  C   UNL     1       2.208   8.566  17.834  0.00  0.00    +0.000 A 
BRANCH  19  22
ATOM     22  O   UNL     1       4.408   5.594  18.079  0.00  0.00    +0.000 OA
BRANCH  22  23
ATOM     23  C   UNL     1       4.078   4.276  18.293  0.00  0.00    +0.000 A 
ATOM     24  C   UNL     1       3.179   3.721  17.381  0.00  0.00    +0.000 A 
ATOM     25  C   UNL     1       2.775   2.393  17.516  0.00  0.00    +0.000 A 
ATOM     26  C   UNL     1       3.267   1.619  18.566  0.00  0.00    +0.000 A 
ATOM     27  C   UNL     1       4.192   2.158  19.458  0.00  0.00    +0.000 A 
ATOM     28  C   UNL     1       4.621   3.477  19.303  0.00  0.00    +0.000 A 
ENDBRANCH  22  23
ENDBRANCH  19  22
ENDBRANCH   3  16
TORSDOF 5
ENDMDL
MODEL 9
REMARK VINA RESULT:      -7.9      7.454     10.825
REMARK  Name = 
REMARK  5 active torsions:
REMARK  status: ('A' for Active; 'I' for Inactive)
REMARK    1  A    between atoms: C_2  and  C_17
REMARK    2  A    between atoms: N_3  and  C_4
REMARK    3  A    between atoms: C_7  and  O_8
REMARK    4  A    between atoms: O_8  and  C_9
REMARK    5  A    between atoms: C_18  and  O_19
REMARK                            x       y       z     vdW  Elec       q    Type
REMARK                         _______ _______ _______ _____ _____    ______ ____
ROOT
ATOM      1  O   UNL     1       1.782   8.588  18.543  0.00  0.00    +0.000 OA
ATOM      2  C   UNL     1       1.916   7.786  19.460  0.00  0.00    +0.000 C 
ATOM      3  N   UNL     1       1.608   8.009  20.785  0.00  0.00    +0.000 N 
ATOM      4  H   UNL     1       2.050   7.393  21.456  0.00  0.00    +0.000 HD
ENDROOT
BRANCH   2   5
ATOM      5  C   UNL     1       2.557   6.514  19.214  0.00  0.00    +0.000 A 
ATOM      6  C   UNL     1       3.614   6.280  18.324  0.00  0.00    +0.000 A 
ATOM      7  N   UNL     1       4.048   5.031  18.297  0.00  0.00    +0.000 NA
ATOM      8  N   UNL     1       3.238   4.383  19.169  0.00  0.00    +0.000 N 
ATOM      9  C   UNL     1       3.287   3.030  19.509  0.00  0.00    +0.000 A 
ATOM     10  C   UNL     1       2.419   2.522  20.399  0.00  0.00    +0.000 A 
ATOM     11  C   UNL     1       1.414   3.398  20.972  0.00  0.00    +0.000 A 
ATOM     12  C   UNL     1       1.343   4.703  20.647  0.00  0.00    +0.000 A 
ATOM     13  C   UNL     1       2.297   5.258  19.738  0.00  0.00    +0.000 A 
BRANCH   6  14
ATOM     14  O   UNL     1       4.254   7.157  17.542  0.00  0.00    +0.000 OA
ATOM     15  H   UNL     1       3.957   8.059  17.762  0.00  0.00    +0.000 HD
ENDBRANCH   6  14
ENDBRANCH   2   5
BRANCH   3  16
ATOM     16  C   UNL     1       0.921   9.116  21.308  0.00  0.00    +0.000 A 
ATOM     17  C   UNL     1       1.028  10.403  20.777  0.00  0.00    +0.000 A 
ATOM     18  C   UNL     1       0.305  11.457  21.338  0.00  0.00    +0.000 A 
ATOM     19  C   UNL     1      -0.529  11.232  22.432  0.00  0.00    +0.000 A 
ATOM     20  C   UNL     1      -0.604   9.956  22.993  0.00  0.00    +0.000 A 
ATOM     21  C   UNL     1       0.084   8.893  22.405  0.00  0.00    +0.000 A 
BRANCH  19  22
ATOM     22  O   UNL     1      -1.187  12.336  22.920  0.00  0.00    +0.000 OA
BRANCH  22  23
ATOM     23  C   UNL     1      -2.517  12.525  22.623  0.00  0.00    +0.000 A 
ATOM     24  C   UNL     1      -3.376  12.612  23.720  0.00  0.00    +0.000 A 
ATOM     25  C   UNL     1      -4.744  12.796  23.523  0.00  0.00    +0.000 A 
ATOM     26  C   UNL     1      -5.256  12.891  22.230  0.00  0.00    +0.000 A 
ATOM     27  C   UNL     1      -4.398  12.841  21.133  0.00  0.00    +0.000 A 
ATOM     28  C   UNL     1      -3.024  12.690  21.331  0.00  0.00    +0.000 A 
ENDBRANCH  22  23
ENDBRANCH  19  22
ENDBRANCH   3  16
TORSDOF 5
ENDMDL
