MODEL 1
REMARK VINA RESULT:      -7.7      0.000      0.000
REMARK  Name = 
REMARK  13 active torsions:
REMARK  status: ('A' for Active; 'I' for Inactive)
REMARK    1  A    between atoms: C_1  and  O_2
REMARK    2  A    between atoms: O_2  and  C_3
REMARK    3  A    between atoms: C_5  and  C_6
REMARK    4  A    between atoms: C_6  and  C_7
REMARK    5  A    between atoms: C_7  and  C_8
REMARK    6  A    between atoms: C_14  and  C_15
REMARK    7  A    between atoms: C_15  and  O_17
REMARK    8  A    between atoms: C_18  and  O_19
REMARK    9  A    between atoms: C_20  and  C_21
REMARK   10  A    between atoms: C_21  and  C_22
REMARK   11  A    between atoms: C_22  and  C_23
REMARK   12  A    between atoms: C_23  and  C_24
REMARK   13  A    between atoms: C_23  and  C_25
REMARK                            x       y       z     vdW  Elec       q    Type
REMARK                         _______ _______ _______ _____ _____    ______ ____
ROOT
ATOM      1  C   UNL     1       3.886   6.998  17.548  0.00  0.00    +0.000 A 
ATOM      2  C   UNL     1       5.138   7.628  17.362  0.00  0.00    +0.000 A 
ATOM      3  C   UNL     1       6.388   6.975  17.401  0.00  0.00    +0.000 A 
ATOM      4  C   UNL     1       6.370   5.590  17.584  0.00  0.00    +0.000 A 
ATOM      5  C   UNL     1       5.119   4.935  17.704  0.00  0.00    +0.000 A 
ATOM      6  C   UNL     1       3.860   5.613  17.735  0.00  0.00    +0.000 A 
ENDROOT
BRANCH   1   8
ATOM      7  C   UNL     1       2.099   8.385  18.510  0.00  0.00    +0.000 C 
ATOM      8  O   UNL     1       2.908   7.939  17.446  0.00  0.00    +0.000 OA
ENDBRANCH   1   8
BRANCH   4   9
ATOM      9  C   UNL     1       7.575   4.729  17.720  0.00  0.00    +0.000 C 
ATOM     10  O   UNL     1       8.195   4.598  18.765  0.00  0.00    +0.000 OA
BRANCH   9  11
ATOM     11  O   UNL     1       7.909   4.006  16.648  0.00  0.00    +0.000 OA
ATOM     12  H   UNL     1       8.337   3.210  17.029  0.00  0.00    +0.000 HD
ENDBRANCH   9  11
ENDBRANCH   4   9
BRANCH   5  13
ATOM     13  O   UNL     1       5.064   3.554  17.766  0.00  0.00    +0.000 OA
ATOM     14  H   UNL     1       4.227   3.283  18.198  0.00  0.00    +0.000 HD
ENDBRANCH   5  13
BRANCH   3  15
ATOM     15  C   UNL     1       7.625   7.840  17.221  0.00  0.00    +0.000 C 
BRANCH  15  16
ATOM     16  C   UNL     1       8.280   8.242  18.557  0.00  0.00    +0.000 C 
BRANCH  16  17
ATOM     17  C   UNL     1       8.760   9.675  18.675  0.00  0.00    +0.000 A 
ATOM     18  C   UNL     1       8.407  10.578  17.660  0.00  0.00    +0.000 A 
ATOM     19  C   UNL     1       8.763  11.923  17.736  0.00  0.00    +0.000 A 
ATOM     20  C   UNL     1       9.469  12.394  18.844  0.00  0.00    +0.000 A 
ATOM     21  C   UNL     1       9.821  11.513  19.864  0.00  0.00    +0.000 A 
ATOM     22  C   UNL     1       9.464  10.161  19.783  0.00  0.00    +0.000 A 
ENDBRANCH  16  17
ENDBRANCH  15  16
ENDBRANCH   3  15
BRANCH   6  23
ATOM     23  C   UNL     1       2.633   4.738  17.959  0.00  0.00    +0.000 C 
BRANCH  23  24
ATOM     24  C   UNL     1       2.207   4.727  19.440  0.00  0.00    +0.000 C 
BRANCH  24  25
ATOM     25  C   UNL     1       1.106   3.722  19.825  0.00  0.00    +0.000 C 
ATOM     26  C   UNL     1       0.940   2.577  18.826  0.00  0.00    +0.000 C 
ATOM     27  C   UNL     1       1.460   3.144  21.202  0.00  0.00    +0.000 C 
ENDBRANCH  24  25
ENDBRANCH  23  24
ENDBRANCH   6  23
TORSDOF 10
ENDMDL
MODEL 2
REMARK VINA RESULT:      -7.5      0.598      1.283
REMARK  Name = 
REMARK  13 active torsions:
REMARK  status: ('A' for Active; 'I' for Inactive)
REMARK    1  A    between atoms: C_1  and  O_2
REMARK    2  A    between atoms: O_2  and  C_3
REMARK    3  A    between atoms: C_5  and  C_6
REMARK    4  A    between atoms: C_6  and  C_7
REMARK    5  A    between atoms: C_7  and  C_8
REMARK    6  A    between atoms: C_14  and  C_15
REMARK    7  A    between atoms: C_15  and  O_17
REMARK    8  A    between atoms: C_18  and  O_19
REMARK    9  A    between atoms: C_20  and  C_21
REMARK   10  A    between atoms: C_21  and  C_22
REMARK   11  A    between atoms: C_22  and  C_23
REMARK   12  A    between atoms: C_23  and  C_24
REMARK   13  A    between atoms: C_23  and  C_25
REMARK                            x       y       z     vdW  Elec       q    Type
REMARK                         _______ _______ _______ _____ _____    ______ ____
ROOT
ATOM      1  C   UNL     1       3.836   6.656  18.025  0.00  0.00    +0.000 A 
ATOM      2  C   UNL     1       5.008   7.382  17.709  0.00  0.00    +0.000 A 
ATOM      3  C   UNL     1       6.215   6.812  17.250  0.00  0.00    +0.000 A 
ATOM      4  C   UNL     1       6.222   5.430  17.047  0.00  0.00    +0.000 A 
ATOM      5  C   UNL     1       5.034   4.699  17.295  0.00  0.00    +0.000 A 
ATOM      6  C   UNL     1       3.837   5.272  17.827  0.00  0.00    +0.000 A 
ENDROOT
BRANCH   1   8
ATOM      7  C   UNL     1       2.255   8.493  17.611  0.00  0.00    +0.000 C 
ATOM      8  O   UNL     1       2.881   7.535  18.434  0.00  0.00    +0.000 OA
ENDBRANCH   1   8
BRANCH   4   9
ATOM      9  C   UNL     1       7.407   4.632  16.633  0.00  0.00    +0.000 C 
ATOM     10  O   UNL     1       7.822   4.590  15.484  0.00  0.00    +0.000 OA
BRANCH   9  11
ATOM     11  O   UNL     1       8.079   4.019  17.610  0.00  0.00    +0.000 OA
ATOM     12  H   UNL     1       7.374   3.592  18.143  0.00  0.00    +0.000 HD
ENDBRANCH   9  11
ENDBRANCH   4   9
BRANCH   5  13
ATOM     13  O   UNL     1       4.974   3.351  16.988  0.00  0.00    +0.000 OA
ATOM     14  H   UNL     1       5.812   2.921  17.260  0.00  0.00    +0.000 HD
ENDBRANCH   5  13
BRANCH   3  15
ATOM     15  C   UNL     1       7.378   7.761  17.008  0.00  0.00    +0.000 C 
BRANCH  15  16
ATOM     16  C   UNL     1       8.161   8.096  18.292  0.00  0.00    +0.000 C 
BRANCH  16  17
ATOM     17  C   UNL     1       8.566   9.543  18.484  0.00  0.00    +0.000 A 
ATOM     18  C   UNL     1       9.368   9.867  19.589  0.00  0.00    +0.000 A 
ATOM     19  C   UNL     1       9.827  11.167  19.791  0.00  0.00    +0.000 A 
ATOM     20  C   UNL     1       9.500  12.170  18.877  0.00  0.00    +0.000 A 
ATOM     21  C   UNL     1       8.711  11.865  17.771  0.00  0.00    +0.000 A 
ATOM     22  C   UNL     1       8.249  10.558  17.572  0.00  0.00    +0.000 A 
ENDBRANCH  16  17
ENDBRANCH  15  16
ENDBRANCH   3  15
BRANCH   6  23
ATOM     23  C   UNL     1       2.695   4.303  18.105  0.00  0.00    +0.000 C 
BRANCH  23  24
ATOM     24  C   UNL     1       1.944   4.669  19.400  0.00  0.00    +0.000 C 
BRANCH  24  25
ATOM     25  C   UNL     1       0.955   3.618  19.935  0.00  0.00    +0.000 C 
ATOM     26  C   UNL     1       0.716   2.451  18.974  0.00  0.00    +0.000 C 
ATOM     27  C   UNL     1       1.515   3.077  21.256  0.00  0.00    +0.000 C 
ENDBRANCH  24  25
ENDBRANCH  23  24
ENDBRANCH   6  23
TORSDOF 10
ENDMDL
MODEL 3
REMARK VINA RESULT:      -7.5      0.329      1.236
REMARK  Name = 
REMARK  13 active torsions:
REMARK  status: ('A' for Active; 'I' for Inactive)
REMARK    1  A    between atoms: C_1  and  O_2
REMARK    2  A    between atoms: O_2  and  C_3
REMARK    3  A    between atoms: C_5  and  C_6
REMARK    4  A    between atoms: C_6  and  C_7
REMARK    5  A    between atoms: C_7  and  C_8
REMARK    6  A    between atoms: C_14  and  C_15
REMARK    7  A    between atoms: C_15  and  O_17
REMARK    8  A    between atoms: C_18  and  O_19
REMARK    9  A    between atoms: C_20  and  C_21
REMARK   10  A    between atoms: C_21  and  C_22
REMARK   11  A    between atoms: C_22  and  C_23
REMARK   12  A    between atoms: C_23  and  C_24
REMARK   13  A    between atoms: C_23  and  C_25
REMARK                            x       y       z     vdW  Elec       q    Type
REMARK                         _______ _______ _______ _____ _____    ______ ____
ROOT
ATOM      1  C   UNL     1       3.919   6.933  17.440  0.00  0.00    +0.000 A 
ATOM      2  C   UNL     1       5.158   7.587  17.246  0.00  0.00    +0.000 A 
ATOM      3  C   UNL     1       6.425   6.986  17.405  0.00  0.00    +0.000 A 
ATOM      4  C   UNL     1       6.442   5.627  17.727  0.00  0.00    +0.000 A 
ATOM      5  C   UNL     1       5.208   4.942  17.857  0.00  0.00    +0.000 A 
ATOM      6  C   UNL     1       3.929   5.573  17.764  0.00  0.00    +0.000 A 
ENDROOT
BRANCH   1   8
ATOM      7  C   UNL     1       2.263   8.590  18.185  0.00  0.00    +0.000 C 
ATOM      8  O   UNL     1       2.918   7.823  17.200  0.00  0.00    +0.000 OA
ENDBRANCH   1   8
BRANCH   4   9
ATOM      9  C   UNL     1       7.666   4.828  18.001  0.00  0.00    +0.000 C 
ATOM     10  O   UNL     1       8.223   4.801  19.089  0.00  0.00    +0.000 OA
BRANCH   9  11
ATOM     11  O   UNL     1       8.093   4.041  17.011  0.00  0.00    +0.000 OA
ATOM     12  H   UNL     1       9.059   3.970  17.171  0.00  0.00    +0.000 HD
ENDBRANCH   9  11
ENDBRANCH   4   9
BRANCH   5  13
ATOM     13  O   UNL     1       5.195   3.573  18.055  0.00  0.00    +0.000 OA
ATOM     14  H   UNL     1       4.976   3.127  17.210  0.00  0.00    +0.000 HD
ENDBRANCH   5  13
BRANCH   3  15
ATOM     15  C   UNL     1       7.641   7.874  17.194  0.00  0.00    +0.000 C 
BRANCH  15  16
ATOM     16  C   UNL     1       8.310   8.305  18.514  0.00  0.00    +0.000 C 
BRANCH  16  17
ATOM     17  C   UNL     1       8.699   9.764  18.635  0.00  0.00    +0.000 A 
ATOM     18  C   UNL     1       9.480  10.155  19.733  0.00  0.00    +0.000 A 
ATOM     19  C   UNL     1       9.924  11.468  19.873  0.00  0.00    +0.000 A 
ATOM     20  C   UNL     1       9.603  12.417  18.902  0.00  0.00    +0.000 A 
ATOM     21  C   UNL     1       8.835  12.046  17.801  0.00  0.00    +0.000 A 
ATOM     22  C   UNL     1       8.389  10.725  17.665  0.00  0.00    +0.000 A 
ENDBRANCH  16  17
ENDBRANCH  15  16
ENDBRANCH   3  15
BRANCH   6  23
ATOM     23  C   UNL     1       2.721   4.681  18.021  0.00  0.00    +0.000 C 
BRANCH  23  24
ATOM     24  C   UNL     1       2.408   4.568  19.525  0.00  0.00    +0.000 C 
BRANCH  24  25
ATOM     25  C   UNL     1       2.049   3.164  20.044  0.00  0.00    +0.000 C 
ATOM     26  C   UNL     1       1.742   3.120  21.542  0.00  0.00    +0.000 C 
ATOM     27  C   UNL     1       0.822   2.675  19.262  0.00  0.00    +0.000 C 
ENDBRANCH  24  25
ENDBRANCH  23  24
ENDBRANCH   6  23
TORSDOF 10
ENDMDL
MODEL 4
REMARK VINA RESULT:      -7.4      3.095      6.608
REMARK  Name = 
REMARK  13 active torsions:
REMARK  status: ('A' for Active; 'I' for Inactive)
REMARK    1  A    between atoms: C_1  and  O_2
REMARK    2  A    between atoms: O_2  and  C_3
REMARK    3  A    between atoms: C_5  and  C_6
REMARK    4  A    between atoms: C_6  and  C_7
REMARK    5  A    between atoms: C_7  and  C_8
REMARK    6  A    between atoms: C_14  and  C_15
REMARK    7  A    between atoms: C_15  and  O_17
REMARK    8  A    between atoms: C_18  and  O_19
REMARK    9  A    between atoms: C_20  and  C_21
REMARK   10  A    between atoms: C_21  and  C_22
REMARK   11  A    between atoms: C_22  and  C_23
REMARK   12  A    between atoms: C_23  and  C_24
REMARK   13  A    between atoms: C_23  and  C_25
REMARK                            x       y       z     vdW  Elec       q    Type
REMARK                         _______ _______ _______ _____ _____    ______ ____
ROOT
ATOM      1  C   UNL     1       5.386   6.059  16.846  0.00  0.00    +0.000 A 
ATOM      2  C   UNL     1       4.516   6.559  17.842  0.00  0.00    +0.000 A 
ATOM      3  C   UNL     1       3.480   5.824  18.457  0.00  0.00    +0.000 A 
ATOM      4  C   UNL     1       3.349   4.485  18.083  0.00  0.00    +0.000 A 
ATOM      5  C   UNL     1       4.258   3.951  17.135  0.00  0.00    +0.000 A 
ATOM      6  C   UNL     1       5.259   4.720  16.464  0.00  0.00    +0.000 A 
ENDROOT
BRANCH   1   8
ATOM      7  C   UNL     1       7.288   7.548  17.303  0.00  0.00    +0.000 C 
ATOM      8  O   UNL     1       6.250   7.048  16.490  0.00  0.00    +0.000 OA
ENDBRANCH   1   8
BRANCH   4   9
ATOM      9  C   UNL     1       2.286   3.562  18.562  0.00  0.00    +0.000 C 
ATOM     10  O   UNL     1       2.420   2.823  19.526  0.00  0.00    +0.000 OA
BRANCH   9  11
ATOM     11  O   UNL     1       1.108   3.642  17.938  0.00  0.00    +0.000 OA
ATOM     12  H   UNL     1       1.085   2.833  17.382  0.00  0.00    +0.000 HD
ENDBRANCH   9  11
ENDBRANCH   4   9
BRANCH   5  13
ATOM     13  O   UNL     1       4.230   2.600  16.835  0.00  0.00    +0.000 OA
ATOM     14  H   UNL     1       4.944   2.145  17.330  0.00  0.00    +0.000 HD
ENDBRANCH   5  13
BRANCH   3  15
ATOM     15  C   UNL     1       2.623   6.559  19.476  0.00  0.00    +0.000 C 
BRANCH  15  16
ATOM     16  C   UNL     1       2.139   7.934  18.978  0.00  0.00    +0.000 C 
BRANCH  16  17
ATOM     17  C   UNL     1       1.281   8.740  19.933  0.00  0.00    +0.000 A 
ATOM     18  C   UNL     1       1.254   8.359  21.283  0.00  0.00    +0.000 A 
ATOM     19  C   UNL     1       0.536   9.092  22.226  0.00  0.00    +0.000 A 
ATOM     20  C   UNL     1      -0.163  10.234  21.832  0.00  0.00    +0.000 A 
ATOM     21  C   UNL     1      -0.142  10.630  20.498  0.00  0.00    +0.000 A 
ATOM     22  C   UNL     1       0.580   9.890  19.552  0.00  0.00    +0.000 A 
ENDBRANCH  16  17
ENDBRANCH  15  16
ENDBRANCH   3  15
BRANCH   6  23
ATOM     23  C   UNL     1       6.081   3.982  15.415  0.00  0.00    +0.000 C 
BRANCH  23  24
ATOM     24  C   UNL     1       5.640   4.352  13.986  0.00  0.00    +0.000 C 
BRANCH  24  25
ATOM     25  C   UNL     1       6.209   3.484  12.850  0.00  0.00    +0.000 C 
ATOM     26  C   UNL     1       5.153   3.007  11.851  0.00  0.00    +0.000 C 
ATOM     27  C   UNL     1       7.266   4.314  12.109  0.00  0.00    +0.000 C 
ENDBRANCH  24  25
ENDBRANCH  23  24
ENDBRANCH   6  23
TORSDOF 10
ENDMDL
MODEL 5
REMARK VINA RESULT:      -7.2      0.771      1.262
REMARK  Name = 
REMARK  13 active torsions:
REMARK  status: ('A' for Active; 'I' for Inactive)
REMARK    1  A    between atoms: C_1  and  O_2
REMARK    2  A    between atoms: O_2  and  C_3
REMARK    3  A    between atoms: C_5  and  C_6
REMARK    4  A    between atoms: C_6  and  C_7
REMARK    5  A    between atoms: C_7  and  C_8
REMARK    6  A    between atoms: C_14  and  C_15
REMARK    7  A    between atoms: C_15  and  O_17
REMARK    8  A    between atoms: C_18  and  O_19
REMARK    9  A    between atoms: C_20  and  C_21
REMARK   10  A    between atoms: C_21  and  C_22
REMARK   11  A    between atoms: C_22  and  C_23
REMARK   12  A    between atoms: C_23  and  C_24
REMARK   13  A    between atoms: C_23  and  C_25
REMARK                            x       y       z     vdW  Elec       q    Type
REMARK                         _______ _______ _______ _____ _____    ______ ____
ROOT
ATOM      1  C   UNL     1       4.262   6.714  17.507  0.00  0.00    +0.000 A 
ATOM      2  C   UNL     1       5.485   7.416  17.402  0.00  0.00    +0.000 A 
ATOM      3  C   UNL     1       6.751   6.894  17.744  0.00  0.00    +0.000 A 
ATOM      4  C   UNL     1       6.791   5.563  18.165  0.00  0.00    +0.000 A 
ATOM      5  C   UNL     1       5.580   4.826  18.209  0.00  0.00    +0.000 A 
ATOM      6  C   UNL     1       4.294   5.382  17.930  0.00  0.00    +0.000 A 
ENDROOT
BRANCH   1   8
ATOM      7  C   UNL     1       2.455   8.324  17.942  0.00  0.00    +0.000 C 
ATOM      8  O   UNL     1       3.256   7.533  17.094  0.00  0.00    +0.000 OA
ENDBRANCH   1   8
BRANCH   4   9
ATOM      9  C   UNL     1       8.009   4.848  18.630  0.00  0.00    +0.000 C 
ATOM     10  O   UNL     1       8.617   4.038  17.946  0.00  0.00    +0.000 OA
BRANCH   9  11
ATOM     11  O   UNL     1       8.484   5.205  19.826  0.00  0.00    +0.000 OA
ATOM     12  H   UNL     1       8.990   4.417  20.119  0.00  0.00    +0.000 HD
ENDBRANCH   9  11
ENDBRANCH   4   9
BRANCH   5  13
ATOM     13  O   UNL     1       5.604   3.474  18.506  0.00  0.00    +0.000 OA
ATOM     14  H   UNL     1       5.954   2.981  17.734  0.00  0.00    +0.000 HD
ENDBRANCH   5  13
BRANCH   3  15
ATOM     15  C   UNL     1       7.943   7.826  17.602  0.00  0.00    +0.000 C 
BRANCH  15  16
ATOM     16  C   UNL     1       7.553   9.316  17.647  0.00  0.00    +0.000 C 
BRANCH  16  17
ATOM     17  C   UNL     1       8.556  10.263  18.275  0.00  0.00    +0.000 A 
ATOM     18  C   UNL     1       8.691  11.547  17.724  0.00  0.00    +0.000 A 
ATOM     19  C   UNL     1       9.549  12.488  18.289  0.00  0.00    +0.000 A 
ATOM     20  C   UNL     1      10.281  12.163  19.432  0.00  0.00    +0.000 A 
ATOM     21  C   UNL     1      10.154  10.896  19.996  0.00  0.00    +0.000 A 
ATOM     22  C   UNL     1       9.292   9.952  19.424  0.00  0.00    +0.000 A 
ENDBRANCH  16  17
ENDBRANCH  15  16
ENDBRANCH   3  15
BRANCH   6  23
ATOM     23  C   UNL     1       3.104   4.449  18.118  0.00  0.00    +0.000 C 
BRANCH  23  24
ATOM     24  C   UNL     1       2.713   4.320  19.603  0.00  0.00    +0.000 C 
BRANCH  24  25
ATOM     25  C   UNL     1       2.068   2.988  20.026  0.00  0.00    +0.000 C 
ATOM     26  C   UNL     1       1.420   3.030  21.411  0.00  0.00    +0.000 C 
ATOM     27  C   UNL     1       1.003   2.631  18.981  0.00  0.00    +0.000 C 
ENDBRANCH  24  25
ENDBRANCH  23  24
ENDBRANCH   6  23
TORSDOF 10
ENDMDL
MODEL 6
REMARK VINA RESULT:      -7.2      2.989      6.733
REMARK  Name = 
REMARK  13 active torsions:
REMARK  status: ('A' for Active; 'I' for Inactive)
REMARK    1  A    between atoms: C_1  and  O_2
REMARK    2  A    between atoms: O_2  and  C_3
REMARK    3  A    between atoms: C_5  and  C_6
REMARK    4  A    between atoms: C_6  and  C_7
REMARK    5  A    between atoms: C_7  and  C_8
REMARK    6  A    between atoms: C_14  and  C_15
REMARK    7  A    between atoms: C_15  and  O_17
REMARK    8  A    between atoms: C_18  and  O_19
REMARK    9  A    between atoms: C_20  and  C_21
REMARK   10  A    between atoms: C_21  and  C_22
REMARK   11  A    between atoms: C_22  and  C_23
REMARK   12  A    between atoms: C_23  and  C_24
REMARK   13  A    between atoms: C_23  and  C_25
REMARK                            x       y       z     vdW  Elec       q    Type
REMARK                         _______ _______ _______ _____ _____    ______ ____
ROOT
ATOM      1  C   UNL     1       5.346   6.404  16.852  0.00  0.00    +0.000 A 
ATOM      2  C   UNL     1       4.389   7.144  17.582  0.00  0.00    +0.000 A 
ATOM      3  C   UNL     1       3.179   6.623  18.093  0.00  0.00    +0.000 A 
ATOM      4  C   UNL     1       2.950   5.259  17.900  0.00  0.00    +0.000 A 
ATOM      5  C   UNL     1       3.934   4.490  17.229  0.00  0.00    +0.000 A 
ATOM      6  C   UNL     1       5.122   5.038  16.653  0.00  0.00    +0.000 A 
ENDROOT
BRANCH   1   8
ATOM      7  C   UNL     1       7.497   7.492  17.335  0.00  0.00    +0.000 C 
ATOM      8  O   UNL     1       6.375   7.233  16.523  0.00  0.00    +0.000 OA
ENDBRANCH   1   8
BRANCH   4   9
ATOM      9  C   UNL     1       1.715   4.534  18.301  0.00  0.00    +0.000 C 
ATOM     10  O   UNL     1       1.353   4.410  19.462  0.00  0.00    +0.000 OA
BRANCH   9  11
ATOM     11  O   UNL     1       0.940   4.092  17.307  0.00  0.00    +0.000 OA
ATOM     12  H   UNL     1       1.219   3.158  17.194  0.00  0.00    +0.000 HD
ENDBRANCH   9  11
ENDBRANCH   4   9
BRANCH   5  13
ATOM     13  O   UNL     1       3.791   3.118  17.130  0.00  0.00    +0.000 OA
ATOM     14  H   UNL     1       4.538   2.682  17.590  0.00  0.00    +0.000 HD
ENDBRANCH   5  13
BRANCH   3  15
ATOM     15  C   UNL     1       2.260   7.595  18.814  0.00  0.00    +0.000 C 
BRANCH  15  16
ATOM     16  C   UNL     1       1.891   8.824  17.960  0.00  0.00    +0.000 C 
BRANCH  16  17
ATOM     17  C   UNL     1       0.795   9.721  18.497  0.00  0.00    +0.000 A 
ATOM     18  C   UNL     1      -0.433   9.749  17.818  0.00  0.00    +0.000 A 
ATOM     19  C   UNL     1      -1.504  10.504  18.293  0.00  0.00    +0.000 A 
ATOM     20  C   UNL     1      -1.368  11.239  19.471  0.00  0.00    +0.000 A 
ATOM     21  C   UNL     1      -0.159  11.218  20.162  0.00  0.00    +0.000 A 
ATOM     22  C   UNL     1       0.916  10.460  19.681  0.00  0.00    +0.000 A 
ENDBRANCH  16  17
ENDBRANCH  15  16
ENDBRANCH   3  15
BRANCH   6  23
ATOM     23  C   UNL     1       6.012   4.061  15.896  0.00  0.00    +0.000 C 
BRANCH  23  24
ATOM     24  C   UNL     1       5.669   4.027  14.394  0.00  0.00    +0.000 C 
BRANCH  24  25
ATOM     25  C   UNL     1       6.855   3.862  13.427  0.00  0.00    +0.000 C 
ATOM     26  C   UNL     1       6.443   3.448  12.013  0.00  0.00    +0.000 C 
ATOM     27  C   UNL     1       7.599   5.202  13.364  0.00  0.00    +0.000 C 
ENDBRANCH  24  25
ENDBRANCH  23  24
ENDBRANCH   6  23
TORSDOF 10
ENDMDL
MODEL 7
REMARK VINA RESULT:      -7.2      2.926      6.719
REMARK  Name = 
REMARK  13 active torsions:
REMARK  status: ('A' for Active; 'I' for Inactive)
REMARK    1  A    between atoms: C_1  and  O_2
REMARK    2  A    between atoms: O_2  and  C_3
REMARK    3  A    between atoms: C_5  and  C_6
REMARK    4  A    between atoms: C_6  and  C_7
REMARK    5  A    between atoms: C_7  and  C_8
REMARK    6  A    between atoms: C_14  and  C_15
REMARK    7  A    between atoms: C_15  and  O_17
REMARK    8  A    between atoms: C_18  and  O_19
REMARK    9  A    between atoms: C_20  and  C_21
REMARK   10  A    between atoms: C_21  and  C_22
REMARK   11  A    between atoms: C_22  and  C_23
REMARK   12  A    between atoms: C_23  and  C_24
REMARK   13  A    between atoms: C_23  and  C_25
REMARK                            x       y       z     vdW  Elec       q    Type
REMARK                         _______ _______ _______ _____ _____    ______ ____
ROOT
ATOM      1  C   UNL     1       5.453   6.408  16.905  0.00  0.00    +0.000 A 
ATOM      2  C   UNL     1       4.400   7.157  17.478  0.00  0.00    +0.000 A 
ATOM      3  C   UNL     1       3.159   6.625  17.892  0.00  0.00    +0.000 A 
ATOM      4  C   UNL     1       2.993   5.244  17.770  0.00  0.00    +0.000 A 
ATOM      5  C   UNL     1       4.067   4.471  17.260  0.00  0.00    +0.000 A 
ATOM      6  C   UNL     1       5.293   5.025  16.777  0.00  0.00    +0.000 A 
ENDROOT
BRANCH   1   8
ATOM      7  C   UNL     1       7.485   7.633  17.549  0.00  0.00    +0.000 C 
ATOM      8  O   UNL     1       6.485   7.252  16.631  0.00  0.00    +0.000 OA
ENDBRANCH   1   8
BRANCH   4   9
ATOM      9  C   UNL     1       1.744   4.501  18.086  0.00  0.00    +0.000 C 
ATOM     10  O   UNL     1       0.992   4.055  17.232  0.00  0.00    +0.000 OA
BRANCH   9  11
ATOM     11  O   UNL     1       1.517   4.248  19.377  0.00  0.00    +0.000 OA
ATOM     12  H   UNL     1       2.416   4.132  19.753  0.00  0.00    +0.000 HD
ENDBRANCH   9  11
ENDBRANCH   4   9
BRANCH   5  13
ATOM     13  O   UNL     1       3.977   3.090  17.240  0.00  0.00    +0.000 OA
ATOM     14  H   UNL     1       3.263   2.823  16.624  0.00  0.00    +0.000 HD
ENDBRANCH   5  13
BRANCH   3  15
ATOM     15  C   UNL     1       2.138   7.607  18.445  0.00  0.00    +0.000 C 
BRANCH  15  16
ATOM     16  C   UNL     1       2.108   7.643  19.985  0.00  0.00    +0.000 C 
BRANCH  16  17
ATOM     17  C   UNL     1       1.176   8.653  20.623  0.00  0.00    +0.000 A 
ATOM     18  C   UNL     1       1.020   8.624  22.018  0.00  0.00    +0.000 A 
ATOM     19  C   UNL     1       0.228   9.562  22.676  0.00  0.00    +0.000 A 
ATOM     20  C   UNL     1      -0.415  10.562  21.945  0.00  0.00    +0.000 A 
ATOM     21  C   UNL     1      -0.266  10.612  20.562  0.00  0.00    +0.000 A 
ATOM     22  C   UNL     1       0.529   9.665  19.903  0.00  0.00    +0.000 A 
ENDBRANCH  16  17
ENDBRANCH  15  16
ENDBRANCH   3  15
BRANCH   6  23
ATOM     23  C   UNL     1       6.289   4.035  16.187  0.00  0.00    +0.000 C 
BRANCH  23  24
ATOM     24  C   UNL     1       7.263   4.723  15.211  0.00  0.00    +0.000 C 
BRANCH  24  25
ATOM     25  C   UNL     1       6.763   4.912  13.767  0.00  0.00    +0.000 C 
ATOM     26  C   UNL     1       7.873   5.247  12.770  0.00  0.00    +0.000 C 
ATOM     27  C   UNL     1       6.073   3.611  13.337  0.00  0.00    +0.000 C 
ENDBRANCH  24  25
ENDBRANCH  23  24
ENDBRANCH   6  23
TORSDOF 10
ENDMDL
MODEL 8
REMARK VINA RESULT:      -7.1      2.688      4.668
REMARK  Name = 
REMARK  13 active torsions:
REMARK  status: ('A' for Active; 'I' for Inactive)
REMARK    1  A    between atoms: C_1  and  O_2
REMARK    2  A    between atoms: O_2  and  C_3
REMARK    3  A    between atoms: C_5  and  C_6
REMARK    4  A    between atoms: C_6  and  C_7
REMARK    5  A    between atoms: C_7  and  C_8
REMARK    6  A    between atoms: C_14  and  C_15
REMARK    7  A    between atoms: C_15  and  O_17
REMARK    8  A    between atoms: C_18  and  O_19
REMARK    9  A    between atoms: C_20  and  C_21
REMARK   10  A    between atoms: C_21  and  C_22
REMARK   11  A    between atoms: C_22  and  C_23
REMARK   12  A    between atoms: C_23  and  C_24
REMARK   13  A    between atoms: C_23  and  C_25
REMARK                            x       y       z     vdW  Elec       q    Type
REMARK                         _______ _______ _______ _____ _____    ______ ____
ROOT
ATOM      1  C   UNL     1       2.442   6.279  18.497  0.00  0.00    +0.000 A 
ATOM      2  C   UNL     1       3.193   5.599  17.511  0.00  0.00    +0.000 A 
ATOM      3  C   UNL     1       3.772   4.321  17.672  0.00  0.00    +0.000 A 
ATOM      4  C   UNL     1       3.531   3.668  18.883  0.00  0.00    +0.000 A 
ATOM      5  C   UNL     1       2.723   4.310  19.854  0.00  0.00    +0.000 A 
ATOM      6  C   UNL     1       2.200   5.633  19.713  0.00  0.00    +0.000 A 
ENDROOT
BRANCH   1   8
ATOM      7  C   UNL     1       2.911   8.557  17.699  0.00  0.00    +0.000 C 
ATOM      8  O   UNL     1       2.050   7.480  17.989  0.00  0.00    +0.000 OA
ENDBRANCH   1   8
BRANCH   4   9
ATOM      9  C   UNL     1       4.102   2.352  19.274  0.00  0.00    +0.000 C 
ATOM     10  O   UNL     1       3.731   1.289  18.798  0.00  0.00    +0.000 OA
BRANCH   9  11
ATOM     11  O   UNL     1       5.134   2.382  20.121  0.00  0.00    +0.000 OA
ATOM     12  H   UNL     1       5.473   3.300  20.040  0.00  0.00    +0.000 HD
ENDBRANCH   9  11
ENDBRANCH   4   9
BRANCH   5  13
ATOM     13  O   UNL     1       2.368   3.640  21.012  0.00  0.00    +0.000 OA
ATOM     14  H   UNL     1       1.701   2.955  20.796  0.00  0.00    +0.000 HD
ENDBRANCH   5  13
BRANCH   3  15
ATOM     15  C   UNL     1       4.583   3.779  16.506  0.00  0.00    +0.000 C 
BRANCH  15  16
ATOM     16  C   UNL     1       5.565   4.813  15.921  0.00  0.00    +0.000 C 
BRANCH  16  17
ATOM     17  C   UNL     1       6.424   5.571  16.914  0.00  0.00    +0.000 A 
ATOM     18  C   UNL     1       7.070   4.842  17.924  0.00  0.00    +0.000 A 
ATOM     19  C   UNL     1       7.923   5.467  18.832  0.00  0.00    +0.000 A 
ATOM     20  C   UNL     1       8.157   6.839  18.734  0.00  0.00    +0.000 A 
ATOM     21  C   UNL     1       7.530   7.577  17.733  0.00  0.00    +0.000 A 
ATOM     22  C   UNL     1       6.671   6.946  16.824  0.00  0.00    +0.000 A 
ENDBRANCH  16  17
ENDBRANCH  15  16
ENDBRANCH   3  15
BRANCH   6  23
ATOM     23  C   UNL     1       1.426   6.180  20.906  0.00  0.00    +0.000 C 
BRANCH  23  24
ATOM     24  C   UNL     1       1.654   7.693  21.085  0.00  0.00    +0.000 C 
BRANCH  24  25
ATOM     25  C   UNL     1       0.400   8.545  21.349  0.00  0.00    +0.000 C 
ATOM     26  C   UNL     1       0.412   9.255  22.705  0.00  0.00    +0.000 C 
ATOM     27  C   UNL     1       0.301   9.593  20.232  0.00  0.00    +0.000 C 
ENDBRANCH  24  25
ENDBRANCH  23  24
ENDBRANCH   6  23
TORSDOF 10
ENDMDL
MODEL 9
REMARK VINA RESULT:      -7.1      1.054      1.323
REMARK  Name = 
REMARK  13 active torsions:
REMARK  status: ('A' for Active; 'I' for Inactive)
REMARK    1  A    between atoms: C_1  and  O_2
REMARK    2  A    between atoms: O_2  and  C_3
REMARK    3  A    between atoms: C_5  and  C_6
REMARK    4  A    between atoms: C_6  and  C_7
REMARK    5  A    between atoms: C_7  and  C_8
REMARK    6  A    between atoms: C_14  and  C_15
REMARK    7  A    between atoms: C_15  and  O_17
REMARK    8  A    between atoms: C_18  and  O_19
REMARK    9  A    between atoms: C_20  and  C_21
REMARK   10  A    between atoms: C_21  and  C_22
REMARK   11  A    between atoms: C_22  and  C_23
REMARK   12  A    between atoms: C_23  and  C_24
REMARK   13  A    between atoms: C_23  and  C_25
REMARK                            x       y       z     vdW  Elec       q    Type
REMARK                         _______ _______ _______ _____ _____    ______ ____
ROOT
ATOM      1  C   UNL     1       3.527   5.997  17.989  0.00  0.00    +0.000 A 
ATOM      2  C   UNL     1       4.505   6.976  17.700  0.00  0.00    +0.000 A 
ATOM      3  C   UNL     1       5.782   6.712  17.157  0.00  0.00    +0.000 A 
ATOM      4  C   UNL     1       6.066   5.383  16.835  0.00  0.00    +0.000 A 
ATOM      5  C   UNL     1       5.069   4.400  17.056  0.00  0.00    +0.000 A 
ATOM      6  C   UNL     1       3.807   4.664  17.672  0.00  0.00    +0.000 A 
ENDROOT
BRANCH   1   8
ATOM      7  C   UNL     1       2.243   8.015  18.557  0.00  0.00    +0.000 C 
ATOM      8  O   UNL     1       2.431   6.619  18.502  0.00  0.00    +0.000 OA
ENDBRANCH   1   8
BRANCH   4   9
ATOM      9  C   UNL     1       7.370   4.888  16.318  0.00  0.00    +0.000 C 
ATOM     10  O   UNL     1       8.136   4.198  16.974  0.00  0.00    +0.000 OA
BRANCH   9  11
ATOM     11  O   UNL     1       7.637   5.153  15.037  0.00  0.00    +0.000 OA
ATOM     12  H   UNL     1       7.099   5.952  14.848  0.00  0.00    +0.000 HD
ENDBRANCH   9  11
ENDBRANCH   4   9
BRANCH   5  13
ATOM     13  O   UNL     1       5.277   3.098  16.636  0.00  0.00    +0.000 OA
ATOM     14  H   UNL     1       6.233   2.961  16.469  0.00  0.00    +0.000 HD
ENDBRANCH   5  13
BRANCH   3  15
ATOM     15  C   UNL     1       6.708   7.901  16.962  0.00  0.00    +0.000 C 
BRANCH  15  16
ATOM     16  C   UNL     1       7.841   7.961  18.005  0.00  0.00    +0.000 C 
BRANCH  16  17
ATOM     17  C   UNL     1       8.433   9.327  18.288  0.00  0.00    +0.000 A 
ATOM     18  C   UNL     1       8.034  10.403  17.481  0.00  0.00    +0.000 A 
ATOM     19  C   UNL     1       8.491  11.697  17.724  0.00  0.00    +0.000 A 
ATOM     20  C   UNL     1       9.350  11.940  18.796  0.00  0.00    +0.000 A 
ATOM     21  C   UNL     1       9.750  10.886  19.613  0.00  0.00    +0.000 A 
ATOM     22  C   UNL     1       9.291   9.586  19.364  0.00  0.00    +0.000 A 
ENDBRANCH  16  17
ENDBRANCH  15  16
ENDBRANCH   3  15
BRANCH   6  23
ATOM     23  C   UNL     1       2.906   3.457  17.901  0.00  0.00    +0.000 C 
BRANCH  23  24
ATOM     24  C   UNL     1       3.141   2.829  19.288  0.00  0.00    +0.000 C 
BRANCH  24  25
ATOM     25  C   UNL     1       2.033   3.049  20.333  0.00  0.00    +0.000 C 
ATOM     26  C   UNL     1       2.213   4.322  21.163  0.00  0.00    +0.000 C 
ATOM     27  C   UNL     1       0.693   3.118  19.589  0.00  0.00    +0.000 C 
ENDBRANCH  24  25
ENDBRANCH  23  24
ENDBRANCH   6  23
TORSDOF 10
ENDMDL
