MODEL 1
REMARK VINA RESULT:      -9.5      0.000      0.000
REMARK  Name = 
REMARK  7 active torsions:
REMARK  status: ('A' for Active; 'I' for Inactive)
REMARK    1  A    between atoms: C_2  and  C_4
REMARK    2  A    between atoms: C_9  and  C_10
REMARK    3  A    between atoms: C_14  and  C_15
REMARK    4  A    between atoms: C_17  and  C_18
REMARK    5  A    between atoms: C_18  and  N_19
REMARK    6  A    between atoms: C_25  and  O_26
REMARK    7  A    between atoms: C_27  and  O_28
REMARK                            x       y       z     vdW  Elec       q    Type
REMARK                         _______ _______ _______ _____ _____    ______ ____
ROOT
ATOM      1  C   UNL     1       2.482   6.499  19.645  0.00  0.00    +0.000 A 
ATOM      2  C   UNL     1       2.105   5.429  20.460  0.00  0.00    +0.000 A 
ATOM      3  C   UNL     1       2.741   4.197  20.344  0.00  0.00    +0.000 A 
ATOM      4  C   UNL     1       3.737   4.008  19.379  0.00  0.00    +0.000 A 
ATOM      5  C   UNL     1       4.168   5.048  18.525  0.00  0.00    +0.000 A 
ATOM      6  C   UNL     1       3.540   6.304  18.719  0.00  0.00    +0.000 A 
ENDROOT
BRANCH   1  12
ATOM      7  C   UNL     1      -0.439  11.718  19.647  0.00  0.00    +0.000 A 
ATOM      8  C   UNL     1      -0.641  11.422  21.004  0.00  0.00    +0.000 A 
ATOM      9  C   UNL     1      -0.133  10.253  21.576  0.00  0.00    +0.000 A 
ATOM     10  C   UNL     1       0.580   9.412  20.723  0.00  0.00    +0.000 A 
ATOM     11  N   UNL     1       1.195   8.213  20.928  0.00  0.00    +0.000 N 
ATOM     12  C   UNL     1       1.749   7.771  19.747  0.00  0.00    +0.000 A 
ATOM     13  N   UNL     1       1.536   8.664  18.794  0.00  0.00    +0.000 NA
ATOM     14  C   UNL     1       0.807   9.675  19.380  0.00  0.00    +0.000 A 
ATOM     15  C   UNL     1       0.298  10.853  18.821  0.00  0.00    +0.000 A 
ATOM     16  H   UNL     1       1.236   7.686  21.788  0.00  0.00    +0.000 HD
BRANCH   7  18
ATOM     17  N   UNL     1      -1.686  13.764  19.858  0.00  0.00    +0.000 NA
ATOM     18  C   UNL     1      -1.023  12.968  19.085  0.00  0.00    +0.000 C 
ATOM     19  N   UNL     1      -0.882  13.260  17.759  0.00  0.00    +0.000 N 
ATOM     20  H   UNL     1      -1.985  14.585  19.331  0.00  0.00    +0.000 HD
ATOM     21  H   UNL     1      -1.561  13.907  17.378  0.00  0.00    +0.000 HD
ATOM     22  H   UNL     1      -0.743  12.462  17.146  0.00  0.00    +0.000 HD
ENDBRANCH   7  18
ENDBRANCH   1  12
BRANCH   5  23
ATOM     23  C   UNL     1       5.224   4.769  17.494  0.00  0.00    +0.000 A 
ATOM     24  C   UNL     1       4.866   4.580  16.142  0.00  0.00    +0.000 A 
ATOM     25  C   UNL     1       5.824   4.379  15.128  0.00  0.00    +0.000 A 
ATOM     26  C   UNL     1       7.176   4.314  15.467  0.00  0.00    +0.000 A 
ATOM     27  C   UNL     1       7.571   4.483  16.787  0.00  0.00    +0.000 A 
ATOM     28  C   UNL     1       6.608   4.715  17.774  0.00  0.00    +0.000 A 
BRANCH  28  29
ATOM     29  O   UNL     1       7.048   4.845  19.070  0.00  0.00    +0.000 OA
ATOM     30  H   UNL     1       7.570   4.060  19.313  0.00  0.00    +0.000 HD
ENDBRANCH  28  29
BRANCH  25  31
ATOM     31  C   UNL     1       5.401   4.209  13.695  0.00  0.00    +0.000 C 
BRANCH  31  32
ATOM     32  N   UNL     1       6.219   3.231  13.013  0.00  0.00    +0.000 N 
ATOM     33  C   UNL     1       5.740   2.587  11.920  0.00  0.00    +0.000 C 
ATOM     34  N   UNL     1       6.567   1.614  11.475  0.00  0.00    +0.000 N 
ATOM     35  O   UNL     1       4.666   2.822  11.385  0.00  0.00    +0.000 OA
ATOM     36  H   UNL     1       7.044   2.881  13.477  0.00  0.00    +0.000 HD
ATOM     37  H   UNL     1       7.510   1.503  11.809  0.00  0.00    +0.000 HD
ATOM     38  H   UNL     1       6.297   1.141  10.624  0.00  0.00    +0.000 HD
ENDBRANCH  31  32
ENDBRANCH  25  31
ENDBRANCH   5  23
BRANCH   6  39
ATOM     39  O   UNL     1       3.963   7.422  18.027  0.00  0.00    +0.000 OA
ATOM     40  H   UNL     1       3.864   8.178  18.636  0.00  0.00    +0.000 HD
ENDBRANCH   6  39
TORSDOF 7
ENDMDL
MODEL 2
REMARK VINA RESULT:      -9.3      1.710      2.533
REMARK  Name = 
REMARK  7 active torsions:
REMARK  status: ('A' for Active; 'I' for Inactive)
REMARK    1  A    between atoms: C_2  and  C_4
REMARK    2  A    between atoms: C_9  and  C_10
REMARK    3  A    between atoms: C_14  and  C_15
REMARK    4  A    between atoms: C_17  and  C_18
REMARK    5  A    between atoms: C_18  and  N_19
REMARK    6  A    between atoms: C_25  and  O_26
REMARK    7  A    between atoms: C_27  and  O_28
REMARK                            x       y       z     vdW  Elec       q    Type
REMARK                         _______ _______ _______ _____ _____    ______ ____
ROOT
ATOM      1  C   UNL     1       3.185   5.542  18.315  0.00  0.00    +0.000 A 
ATOM      2  C   UNL     1       2.841   4.285  18.820  0.00  0.00    +0.000 A 
ATOM      3  C   UNL     1       3.398   3.133  18.275  0.00  0.00    +0.000 A 
ATOM      4  C   UNL     1       4.277   3.221  17.190  0.00  0.00    +0.000 A 
ATOM      5  C   UNL     1       4.668   4.460  16.635  0.00  0.00    +0.000 A 
ATOM      6  C   UNL     1       4.129   5.612  17.259  0.00  0.00    +0.000 A 
ENDROOT
BRANCH   1  12
ATOM      7  C   UNL     1       0.529  10.214  20.940  0.00  0.00    +0.000 A 
ATOM      8  C   UNL     1       0.638  10.790  19.665  0.00  0.00    +0.000 A 
ATOM      9  C   UNL     1       1.211  10.090  18.599  0.00  0.00    +0.000 A 
ATOM     10  C   UNL     1       1.659   8.801  18.882  0.00  0.00    +0.000 A 
ATOM     11  N   UNL     1       2.262   7.855  18.108  0.00  0.00    +0.000 N 
ATOM     12  C   UNL     1       2.531   6.739  18.869  0.00  0.00    +0.000 A 
ATOM     13  N   UNL     1       2.089   6.925  20.103  0.00  0.00    +0.000 NA
ATOM     14  C   UNL     1       1.560   8.196  20.127  0.00  0.00    +0.000 A 
ATOM     15  C   UNL     1       0.978   8.906  21.184  0.00  0.00    +0.000 A 
ATOM     16  H   UNL     1       2.516   7.932  17.133  0.00  0.00    +0.000 HD
BRANCH   7  18
ATOM     17  N   UNL     1      -0.293  10.453  23.188  0.00  0.00    +0.000 NA
ATOM     18  C   UNL     1      -0.071  11.014  22.045  0.00  0.00    +0.000 C 
ATOM     19  N   UNL     1      -0.406  12.322  21.847  0.00  0.00    +0.000 N 
ATOM     20  H   UNL     1      -0.669  11.142  23.842  0.00  0.00    +0.000 HD
ATOM     21  H   UNL     1      -1.095  12.700  22.484  0.00  0.00    +0.000 HD
ATOM     22  H   UNL     1      -0.603  12.584  20.886  0.00  0.00    +0.000 HD
ENDBRANCH   7  18
ENDBRANCH   1  12
BRANCH   5  23
ATOM     23  C   UNL     1       5.595   4.480  15.453  0.00  0.00    +0.000 A 
ATOM     24  C   UNL     1       5.193   3.917  14.223  0.00  0.00    +0.000 A 
ATOM     25  C   UNL     1       6.000   3.968  13.069  0.00  0.00    +0.000 A 
ATOM     26  C   UNL     1       7.265   4.550  13.144  0.00  0.00    +0.000 A 
ATOM     27  C   UNL     1       7.705   5.107  14.338  0.00  0.00    +0.000 A 
ATOM     28  C   UNL     1       6.876   5.076  15.463  0.00  0.00    +0.000 A 
BRANCH  28  29
ATOM     29  O   UNL     1       7.371   5.613  16.628  0.00  0.00    +0.000 OA
ATOM     30  H   UNL     1       7.995   4.984  17.032  0.00  0.00    +0.000 HD
ENDBRANCH  28  29
BRANCH  25  31
ATOM     31  C   UNL     1       5.522   3.378  11.771  0.00  0.00    +0.000 C 
BRANCH  31  32
ATOM     32  N   UNL     1       5.497   1.934  11.821  0.00  0.00    +0.000 N 
ATOM     33  C   UNL     1       6.528   1.218  11.309  0.00  0.00    +0.000 C 
ATOM     34  N   UNL     1       6.299  -0.115  11.313  0.00  0.00    +0.000 N 
ATOM     35  O   UNL     1       7.558   1.699  10.860  0.00  0.00    +0.000 OA
ATOM     36  H   UNL     1       4.627   1.471  12.037  0.00  0.00    +0.000 HD
ATOM     37  H   UNL     1       5.529  -0.537  11.805  0.00  0.00    +0.000 HD
ATOM     38  H   UNL     1       7.058  -0.708  11.004  0.00  0.00    +0.000 HD
ENDBRANCH  31  32
ENDBRANCH  25  31
ENDBRANCH   5  23
BRANCH   6  39
ATOM     39  O   UNL     1       4.534   6.878  16.881  0.00  0.00    +0.000 OA
ATOM     40  H   UNL     1       5.354   6.763  16.366  0.00  0.00    +0.000 HD
ENDBRANCH   6  39
TORSDOF 7
ENDMDL
MODEL 3
REMARK VINA RESULT:      -9.1      1.488      2.031
REMARK  Name = 
REMARK  7 active torsions:
REMARK  status: ('A' for Active; 'I' for Inactive)
REMARK    1  A    between atoms: C_2  and  C_4
REMARK    2  A    between atoms: C_9  and  C_10
REMARK    3  A    between atoms: C_14  and  C_15
REMARK    4  A    between atoms: C_17  and  C_18
REMARK    5  A    between atoms: C_18  and  N_19
REMARK    6  A    between atoms: C_25  and  O_26
REMARK    7  A    between atoms: C_27  and  O_28
REMARK                            x       y       z     vdW  Elec       q    Type
REMARK                         _______ _______ _______ _____ _____    ______ ____
ROOT
ATOM      1  C   UNL     1       3.229   5.559  18.322  0.00  0.00    +0.000 A 
ATOM      2  C   UNL     1       2.911   4.307  18.853  0.00  0.00    +0.000 A 
ATOM      3  C   UNL     1       3.472   3.152  18.318  0.00  0.00    +0.000 A 
ATOM      4  C   UNL     1       4.329   3.233  17.215  0.00  0.00    +0.000 A 
ATOM      5  C   UNL     1       4.694   4.467  16.632  0.00  0.00    +0.000 A 
ATOM      6  C   UNL     1       4.152   5.623  17.246  0.00  0.00    +0.000 A 
ENDROOT
BRANCH   1  12
ATOM      7  C   UNL     1       0.537  10.579  20.148  0.00  0.00    +0.000 A 
ATOM      8  C   UNL     1       0.584   9.958  21.405  0.00  0.00    +0.000 A 
ATOM      9  C   UNL     1       1.152   8.691  21.568  0.00  0.00    +0.000 A 
ATOM     10  C   UNL     1       1.662   8.094  20.417  0.00  0.00    +0.000 A 
ATOM     11  N   UNL     1       2.265   6.890  20.204  0.00  0.00    +0.000 N 
ATOM     12  C   UNL     1       2.570   6.757  18.868  0.00  0.00    +0.000 A 
ATOM     13  N   UNL     1       2.212   7.854  18.218  0.00  0.00    +0.000 NA
ATOM     14  C   UNL     1       1.641   8.681  19.160  0.00  0.00    +0.000 A 
ATOM     15  C   UNL     1       1.075   9.952  19.011  0.00  0.00    +0.000 A 
ATOM     16  H   UNL     1       2.450   6.169  20.886  0.00  0.00    +0.000 HD
BRANCH   7  18
ATOM     17  N   UNL     1      -1.389  12.011  19.989  0.00  0.00    +0.000 NA
ATOM     18  C   UNL     1      -0.101  11.920  20.028  0.00  0.00    +0.000 C 
ATOM     19  N   UNL     1       0.669  13.044  19.933  0.00  0.00    +0.000 N 
ATOM     20  H   UNL     1      -1.664  12.993  19.943  0.00  0.00    +0.000 HD
ATOM     21  H   UNL     1       0.218  13.851  19.521  0.00  0.00    +0.000 HD
ATOM     22  H   UNL     1       1.602  12.906  19.558  0.00  0.00    +0.000 HD
ENDBRANCH   7  18
ENDBRANCH   1  12
BRANCH   5  23
ATOM     23  C   UNL     1       5.598   4.479  15.432  0.00  0.00    +0.000 A 
ATOM     24  C   UNL     1       5.174   3.905  14.215  0.00  0.00    +0.000 A 
ATOM     25  C   UNL     1       5.959   3.947  13.045  0.00  0.00    +0.000 A 
ATOM     26  C   UNL     1       7.224   4.532  13.091  0.00  0.00    +0.000 A 
ATOM     27  C   UNL     1       7.686   5.099  14.271  0.00  0.00    +0.000 A 
ATOM     28  C   UNL     1       6.878   5.077  15.412  0.00  0.00    +0.000 A 
BRANCH  28  29
ATOM     29  O   UNL     1       7.394   5.625  16.563  0.00  0.00    +0.000 OA
ATOM     30  H   UNL     1       8.279   5.988  16.379  0.00  0.00    +0.000 HD
ENDBRANCH  28  29
BRANCH  25  31
ATOM     31  C   UNL     1       5.456   3.346  11.761  0.00  0.00    +0.000 C 
BRANCH  31  32
ATOM     32  N   UNL     1       5.447   1.902  11.820  0.00  0.00    +0.000 N 
ATOM     33  C   UNL     1       6.485   1.194  11.310  0.00  0.00    +0.000 C 
ATOM     34  N   UNL     1       6.271  -0.142  11.322  0.00  0.00    +0.000 N 
ATOM     35  O   UNL     1       7.509   1.683  10.857  0.00  0.00    +0.000 OA
ATOM     36  H   UNL     1       4.583   1.431  12.040  0.00  0.00    +0.000 HD
ATOM     37  H   UNL     1       5.506  -0.568  11.817  0.00  0.00    +0.000 HD
ATOM     38  H   UNL     1       7.035  -0.728  11.015  0.00  0.00    +0.000 HD
ENDBRANCH  31  32
ENDBRANCH  25  31
ENDBRANCH   5  23
BRANCH   6  39
ATOM     39  O   UNL     1       4.533   6.887  16.839  0.00  0.00    +0.000 OA
ATOM     40  H   UNL     1       5.118   6.764  16.068  0.00  0.00    +0.000 HD
ENDBRANCH   6  39
TORSDOF 7
ENDMDL
MODEL 4
REMARK VINA RESULT:      -9.1      1.186      1.731
REMARK  Name = 
REMARK  7 active torsions:
REMARK  status: ('A' for Active; 'I' for Inactive)
REMARK    1  A    between atoms: C_2  and  C_4
REMARK    2  A    between atoms: C_9  and  C_10
REMARK    3  A    between atoms: C_14  and  C_15
REMARK    4  A    between atoms: C_17  and  C_18
REMARK    5  A    between atoms: C_18  and  N_19
REMARK    6  A    between atoms: C_25  and  O_26
REMARK    7  A    between atoms: C_27  and  O_28
REMARK                            x       y       z     vdW  Elec       q    Type
REMARK                         _______ _______ _______ _____ _____    ______ ____
ROOT
ATOM      1  C   UNL     1       2.363   6.040  19.924  0.00  0.00    +0.000 A 
ATOM      2  C   UNL     1       1.880   4.865  20.505  0.00  0.00    +0.000 A 
ATOM      3  C   UNL     1       2.439   3.635  20.175  0.00  0.00    +0.000 A 
ATOM      4  C   UNL     1       3.464   3.561  19.225  0.00  0.00    +0.000 A 
ATOM      5  C   UNL     1       4.000   4.710  18.602  0.00  0.00    +0.000 A 
ATOM      6  C   UNL     1       3.447   5.949  19.014  0.00  0.00    +0.000 A 
ENDROOT
BRANCH   1  12
ATOM      7  C   UNL     1      -0.366  11.086  21.616  0.00  0.00    +0.000 A 
ATOM      8  C   UNL     1      -0.016  11.519  20.328  0.00  0.00    +0.000 A 
ATOM      9  C   UNL     1       0.673  10.685  19.443  0.00  0.00    +0.000 A 
ATOM     10  C   UNL     1       0.984   9.411  19.917  0.00  0.00    +0.000 A 
ATOM     11  N   UNL     1       1.640   8.361  19.348  0.00  0.00    +0.000 N 
ATOM     12  C   UNL     1       1.709   7.319  20.245  0.00  0.00    +0.000 A 
ATOM     13  N   UNL     1       1.089   7.654  21.366  0.00  0.00    +0.000 NA
ATOM     14  C   UNL     1       0.647   8.946  21.180  0.00  0.00    +0.000 A 
ATOM     15  C   UNL     1      -0.048   9.790  22.054  0.00  0.00    +0.000 A 
ATOM     16  H   UNL     1       2.051   8.324  18.426  0.00  0.00    +0.000 HD
BRANCH   7  18
ATOM     17  N   UNL     1      -2.058  11.590  23.249  0.00  0.00    +0.000 NA
ATOM     18  C   UNL     1      -1.080  12.026  22.526  0.00  0.00    +0.000 C 
ATOM     19  N   UNL     1      -0.723  13.342  22.576  0.00  0.00    +0.000 N 
ATOM     20  H   UNL     1      -2.413  12.345  23.838  0.00  0.00    +0.000 HD
ATOM     21  H   UNL     1      -1.430  13.976  22.927  0.00  0.00    +0.000 HD
ATOM     22  H   UNL     1      -0.277  13.709  21.741  0.00  0.00    +0.000 HD
ENDBRANCH   7  18
ENDBRANCH   1  12
BRANCH   5  23
ATOM     23  C   UNL     1       5.082   4.556  17.572  0.00  0.00    +0.000 A 
ATOM     24  C   UNL     1       4.749   4.344  16.216  0.00  0.00    +0.000 A 
ATOM     25  C   UNL     1       5.726   4.257  15.204  0.00  0.00    +0.000 A 
ATOM     26  C   UNL     1       7.076   4.333  15.546  0.00  0.00    +0.000 A 
ATOM     27  C   UNL     1       7.448   4.530  16.869  0.00  0.00    +0.000 A 
ATOM     28  C   UNL     1       6.463   4.648  17.855  0.00  0.00    +0.000 A 
BRANCH  28  29
ATOM     29  O   UNL     1       6.884   4.811  19.154  0.00  0.00    +0.000 OA
ATOM     30  H   UNL     1       7.843   4.983  19.162  0.00  0.00    +0.000 HD
ENDBRANCH  28  29
BRANCH  25  31
ATOM     31  C   UNL     1       5.326   4.057  13.768  0.00  0.00    +0.000 C 
BRANCH  31  32
ATOM     32  N   UNL     1       6.305   3.273  13.049  0.00  0.00    +0.000 N 
ATOM     33  C   UNL     1       5.946   2.596  11.930  0.00  0.00    +0.000 C 
ATOM     34  N   UNL     1       6.934   1.808  11.449  0.00  0.00    +0.000 N 
ATOM     35  O   UNL     1       4.844   2.652  11.403  0.00  0.00    +0.000 OA
ATOM     36  H   UNL     1       7.182   3.061  13.500  0.00  0.00    +0.000 HD
ATOM     37  H   UNL     1       7.883   1.858  11.779  0.00  0.00    +0.000 HD
ATOM     38  H   UNL     1       6.750   1.328  10.579  0.00  0.00    +0.000 HD
ENDBRANCH  31  32
ENDBRANCH  25  31
ENDBRANCH   5  23
BRANCH   6  39
ATOM     39  O   UNL     1       3.974   7.144  18.564  0.00  0.00    +0.000 OA
ATOM     40  H   UNL     1       3.302   7.538  17.978  0.00  0.00    +0.000 HD
ENDBRANCH   6  39
TORSDOF 7
ENDMDL
MODEL 5
REMARK VINA RESULT:      -9.1      3.093      9.575
REMARK  Name = 
REMARK  7 active torsions:
REMARK  status: ('A' for Active; 'I' for Inactive)
REMARK    1  A    between atoms: C_2  and  C_4
REMARK    2  A    between atoms: C_9  and  C_10
REMARK    3  A    between atoms: C_14  and  C_15
REMARK    4  A    between atoms: C_17  and  C_18
REMARK    5  A    between atoms: C_18  and  N_19
REMARK    6  A    between atoms: C_25  and  O_26
REMARK    7  A    between atoms: C_27  and  O_28
REMARK                            x       y       z     vdW  Elec       q    Type
REMARK                         _______ _______ _______ _____ _____    ______ ____
ROOT
ATOM      1  C   UNL     1       2.107   7.916  19.162  0.00  0.00    +0.000 A 
ATOM      2  C   UNL     1       1.778   7.460  20.442  0.00  0.00    +0.000 A 
ATOM      3  C   UNL     1       1.041   8.262  21.306  0.00  0.00    +0.000 A 
ATOM      4  C   UNL     1       0.658   9.550  20.916  0.00  0.00    +0.000 A 
ATOM      5  C   UNL     1       0.955  10.071  19.637  0.00  0.00    +0.000 A 
ATOM      6  C   UNL     1       1.651   9.198  18.763  0.00  0.00    +0.000 A 
ENDROOT
BRANCH   1  12
ATOM      7  C   UNL     1       5.664   4.832  15.472  0.00  0.00    +0.000 A 
ATOM      8  C   UNL     1       5.095   3.720  16.111  0.00  0.00    +0.000 A 
ATOM      9  C   UNL     1       4.135   3.871  17.116  0.00  0.00    +0.000 A 
ATOM     10  C   UNL     1       3.784   5.181  17.437  0.00  0.00    +0.000 A 
ATOM     11  N   UNL     1       2.911   5.694  18.349  0.00  0.00    +0.000 N 
ATOM     12  C   UNL     1       2.941   7.070  18.293  0.00  0.00    +0.000 A 
ATOM     13  N   UNL     1       3.784   7.459  17.349  0.00  0.00    +0.000 NA
ATOM     14  C   UNL     1       4.318   6.304  16.822  0.00  0.00    +0.000 A 
ATOM     15  C   UNL     1       5.274   6.138  15.813  0.00  0.00    +0.000 A 
ATOM     16  H   UNL     1       2.336   5.181  19.002  0.00  0.00    +0.000 HD
BRANCH   7  18
ATOM     17  N   UNL     1       6.544   3.658  13.567  0.00  0.00    +0.000 NA
ATOM     18  C   UNL     1       6.699   4.612  14.423  0.00  0.00    +0.000 C 
ATOM     19  N   UNL     1       7.816   5.396  14.382  0.00  0.00    +0.000 N 
ATOM     20  H   UNL     1       7.316   3.665  12.900  0.00  0.00    +0.000 HD
ATOM     21  H   UNL     1       8.611   5.001  13.896  0.00  0.00    +0.000 HD
ATOM     22  H   UNL     1       8.090   5.817  15.264  0.00  0.00    +0.000 HD
ENDBRANCH   7  18
ENDBRANCH   1  12
BRANCH   5  23
ATOM     23  C   UNL     1       0.536  11.472  19.293  0.00  0.00    +0.000 A 
ATOM     24  C   UNL     1       1.406  12.556  19.538  0.00  0.00    +0.000 A 
ATOM     25  C   UNL     1       1.085  13.879  19.175  0.00  0.00    +0.000 A 
ATOM     26  C   UNL     1      -0.155  14.148  18.596  0.00  0.00    +0.000 A 
ATOM     27  C   UNL     1      -1.046  13.113  18.347  0.00  0.00    +0.000 A 
ATOM     28  C   UNL     1      -0.695  11.802  18.684  0.00  0.00    +0.000 A 
BRANCH  28  29
ATOM     29  O   UNL     1      -1.625  10.817  18.445  0.00  0.00    +0.000 OA
ATOM     30  H   UNL     1      -2.305  11.157  17.835  0.00  0.00    +0.000 HD
ENDBRANCH  28  29
BRANCH  25  31
ATOM     31  C   UNL     1       2.053  15.001  19.431  0.00  0.00    +0.000 C 
BRANCH  31  32
ATOM     32  N   UNL     1       3.406  14.624  19.087  0.00  0.00    +0.000 N 
ATOM     33  C   UNL     1       3.958  15.055  17.926  0.00  0.00    +0.000 C 
ATOM     34  N   UNL     1       5.173  14.514  17.686  0.00  0.00    +0.000 N 
ATOM     35  O   UNL     1       3.426  15.831  17.145  0.00  0.00    +0.000 OA
ATOM     36  H   UNL     1       3.846  13.875  19.601  0.00  0.00    +0.000 HD
ATOM     37  H   UNL     1       5.686  13.992  18.377  0.00  0.00    +0.000 HD
ATOM     38  H   UNL     1       5.666  14.845  16.868  0.00  0.00    +0.000 HD
ENDBRANCH  31  32
ENDBRANCH  25  31
ENDBRANCH   5  23
BRANCH   6  39
ATOM     39  O   UNL     1       1.889   9.553  17.449  0.00  0.00    +0.000 OA
ATOM     40  H   UNL     1       2.081   8.725  16.971  0.00  0.00    +0.000 HD
ENDBRANCH   6  39
TORSDOF 7
ENDMDL
MODEL 6
REMARK VINA RESULT:      -8.9      3.022      9.794
REMARK  Name = 
REMARK  7 active torsions:
REMARK  status: ('A' for Active; 'I' for Inactive)
REMARK    1  A    between atoms: C_2  and  C_4
REMARK    2  A    between atoms: C_9  and  C_10
REMARK    3  A    between atoms: C_14  and  C_15
REMARK    4  A    between atoms: C_17  and  C_18
REMARK    5  A    between atoms: C_18  and  N_19
REMARK    6  A    between atoms: C_25  and  O_26
REMARK    7  A    between atoms: C_27  and  O_28
REMARK                            x       y       z     vdW  Elec       q    Type
REMARK                         _______ _______ _______ _____ _____    ______ ____
ROOT
ATOM      1  C   UNL     1       2.079   7.924  19.226  0.00  0.00    +0.000 A 
ATOM      2  C   UNL     1       1.744   7.472  20.505  0.00  0.00    +0.000 A 
ATOM      3  C   UNL     1       1.012   8.281  21.368  0.00  0.00    +0.000 A 
ATOM      4  C   UNL     1       0.639   9.571  20.976  0.00  0.00    +0.000 A 
ATOM      5  C   UNL     1       0.943  10.088  19.697  0.00  0.00    +0.000 A 
ATOM      6  C   UNL     1       1.634   9.210  18.825  0.00  0.00    +0.000 A 
ENDROOT
BRANCH   1  12
ATOM      7  C   UNL     1       5.616   4.811  15.543  0.00  0.00    +0.000 A 
ATOM      8  C   UNL     1       5.049   3.704  16.191  0.00  0.00    +0.000 A 
ATOM      9  C   UNL     1       4.094   3.863  17.199  0.00  0.00    +0.000 A 
ATOM     10  C   UNL     1       3.745   5.176  17.512  0.00  0.00    +0.000 A 
ATOM     11  N   UNL     1       2.877   5.696  18.425  0.00  0.00    +0.000 N 
ATOM     12  C   UNL     1       2.909   7.072  18.360  0.00  0.00    +0.000 A 
ATOM     13  N   UNL     1       3.748   7.453  17.409  0.00  0.00    +0.000 NA
ATOM     14  C   UNL     1       4.279   6.294  16.887  0.00  0.00    +0.000 A 
ATOM     15  C   UNL     1       5.230   6.120  15.875  0.00  0.00    +0.000 A 
ATOM     16  H   UNL     1       2.304   5.188  19.084  0.00  0.00    +0.000 HD
BRANCH   7  18
ATOM     17  N   UNL     1       7.681   5.356  14.435  0.00  0.00    +0.000 NA
ATOM     18  C   UNL     1       6.647   4.583  14.491  0.00  0.00    +0.000 C 
ATOM     19  N   UNL     1       6.491   3.581  13.577  0.00  0.00    +0.000 N 
ATOM     20  H   UNL     1       8.303   5.046  13.688  0.00  0.00    +0.000 HD
ATOM     21  H   UNL     1       7.013   3.687  12.717  0.00  0.00    +0.000 HD
ATOM     22  H   UNL     1       5.532   3.296  13.398  0.00  0.00    +0.000 HD
ENDBRANCH   7  18
ENDBRANCH   1  12
BRANCH   5  23
ATOM     23  C   UNL     1       0.535  11.492  19.351  0.00  0.00    +0.000 A 
ATOM     24  C   UNL     1       1.386  12.577  19.656  0.00  0.00    +0.000 A 
ATOM     25  C   UNL     1       1.078  13.903  19.296  0.00  0.00    +0.000 A 
ATOM     26  C   UNL     1      -0.132  14.175  18.656  0.00  0.00    +0.000 A 
ATOM     27  C   UNL     1      -1.003  13.140  18.347  0.00  0.00    +0.000 A 
ATOM     28  C   UNL     1      -0.664  11.826  18.683  0.00  0.00    +0.000 A 
BRANCH  28  29
ATOM     29  O   UNL     1      -1.575  10.840  18.382  0.00  0.00    +0.000 OA
ATOM     30  H   UNL     1      -2.472  11.153  18.601  0.00  0.00    +0.000 HD
ENDBRANCH  28  29
BRANCH  25  31
ATOM     31  C   UNL     1       2.025  15.026  19.617  0.00  0.00    +0.000 C 
BRANCH  31  32
ATOM     32  N   UNL     1       1.997  16.052  18.600  0.00  0.00    +0.000 N 
ATOM     33  C   UNL     1       2.975  16.109  17.664  0.00  0.00    +0.000 C 
ATOM     34  N   UNL     1       2.881  17.197  16.866  0.00  0.00    +0.000 N 
ATOM     35  O   UNL     1       3.876  15.292  17.544  0.00  0.00    +0.000 OA
ATOM     36  H   UNL     1       1.378  16.840  18.723  0.00  0.00    +0.000 HD
ATOM     37  H   UNL     1       2.075  17.799  16.854  0.00  0.00    +0.000 HD
ATOM     38  H   UNL     1       3.544  17.263  16.105  0.00  0.00    +0.000 HD
ENDBRANCH  31  32
ENDBRANCH  25  31
ENDBRANCH   5  23
BRANCH   6  39
ATOM     39  O   UNL     1       1.877   9.561  17.511  0.00  0.00    +0.000 OA
ATOM     40  H   UNL     1       2.807   9.853  17.471  0.00  0.00    +0.000 HD
ENDBRANCH   6  39
TORSDOF 7
ENDMDL
MODEL 7
REMARK VINA RESULT:      -8.8      3.148      9.922
REMARK  Name = 
REMARK  7 active torsions:
REMARK  status: ('A' for Active; 'I' for Inactive)
REMARK    1  A    between atoms: C_2  and  C_4
REMARK    2  A    between atoms: C_9  and  C_10
REMARK    3  A    between atoms: C_14  and  C_15
REMARK    4  A    between atoms: C_17  and  C_18
REMARK    5  A    between atoms: C_18  and  N_19
REMARK    6  A    between atoms: C_25  and  O_26
REMARK    7  A    between atoms: C_27  and  O_28
REMARK                            x       y       z     vdW  Elec       q    Type
REMARK                         _______ _______ _______ _____ _____    ______ ____
ROOT
ATOM      1  C   UNL     1       2.031   7.997  19.262  0.00  0.00    +0.000 A 
ATOM      2  C   UNL     1       1.650   7.533  20.524  0.00  0.00    +0.000 A 
ATOM      3  C   UNL     1       0.927   8.351  21.386  0.00  0.00    +0.000 A 
ATOM      4  C   UNL     1       0.609   9.661  21.010  0.00  0.00    +0.000 A 
ATOM      5  C   UNL     1       0.960  10.191  19.749  0.00  0.00    +0.000 A 
ATOM      6  C   UNL     1       1.640   9.305  18.876  0.00  0.00    +0.000 A 
ENDROOT
BRANCH   1  12
ATOM      7  C   UNL     1       5.542   4.830  15.599  0.00  0.00    +0.000 A 
ATOM      8  C   UNL     1       4.922   3.732  16.214  0.00  0.00    +0.000 A 
ATOM      9  C   UNL     1       3.950   3.906  17.203  0.00  0.00    +0.000 A 
ATOM     10  C   UNL     1       3.640   5.224  17.534  0.00  0.00    +0.000 A 
ATOM     11  N   UNL     1       2.770   5.758  18.436  0.00  0.00    +0.000 N 
ATOM     12  C   UNL     1       2.850   7.132  18.398  0.00  0.00    +0.000 A 
ATOM     13  N   UNL     1       3.723   7.501  17.474  0.00  0.00    +0.000 NA
ATOM     14  C   UNL     1       4.226   6.334  16.942  0.00  0.00    +0.000 A 
ATOM     15  C   UNL     1       5.193   6.146  15.948  0.00  0.00    +0.000 A 
ATOM     16  H   UNL     1       2.165   5.258  19.073  0.00  0.00    +0.000 HD
BRANCH   7  18
ATOM     17  N   UNL     1       6.459   3.588  13.755  0.00  0.00    +0.000 NA
ATOM     18  C   UNL     1       6.588   4.585  14.567  0.00  0.00    +0.000 C 
ATOM     19  N   UNL     1       7.687   5.392  14.492  0.00  0.00    +0.000 N 
ATOM     20  H   UNL     1       7.235   3.581  13.092  0.00  0.00    +0.000 HD
ATOM     21  H   UNL     1       8.493   4.993  14.030  0.00  0.00    +0.000 HD
ATOM     22  H   UNL     1       7.946   5.861  15.355  0.00  0.00    +0.000 HD
ENDBRANCH   7  18
ENDBRANCH   1  12
BRANCH   5  23
ATOM     23  C   UNL     1       0.610  11.615  19.421  0.00  0.00    +0.000 A 
ATOM     24  C   UNL     1       1.278  12.679  20.066  0.00  0.00    +0.000 A 
ATOM     25  C   UNL     1       1.031  14.029  19.747  0.00  0.00    +0.000 A 
ATOM     26  C   UNL     1       0.058  14.341  18.797  0.00  0.00    +0.000 A 
ATOM     27  C   UNL     1      -0.631  13.326  18.148  0.00  0.00    +0.000 A 
ATOM     28  C   UNL     1      -0.347  11.991  18.453  0.00  0.00    +0.000 A 
BRANCH  28  29
ATOM     29  O   UNL     1      -1.079  11.025  17.804  0.00  0.00    +0.000 OA
ATOM     30  H   UNL     1      -1.376  11.370  16.943  0.00  0.00    +0.000 HD
ENDBRANCH  28  29
BRANCH  25  31
ATOM     31  C   UNL     1       1.784  15.131  20.440  0.00  0.00    +0.000 C 
BRANCH  31  32
ATOM     32  N   UNL     1       3.210  14.899  20.409  0.00  0.00    +0.000 N 
ATOM     33  C   UNL     1       3.898  14.734  21.565  0.00  0.00    +0.000 C 
ATOM     34  N   UNL     1       5.235  14.658  21.380  0.00  0.00    +0.000 N 
ATOM     35  O   UNL     1       3.393  14.680  22.677  0.00  0.00    +0.000 OA
ATOM     36  H   UNL     1       3.712  15.077  19.552  0.00  0.00    +0.000 HD
ATOM     37  H   UNL     1       5.656  14.555  20.472  0.00  0.00    +0.000 HD
ATOM     38  H   UNL     1       5.799  14.469  22.197  0.00  0.00    +0.000 HD
ENDBRANCH  31  32
ENDBRANCH  25  31
ENDBRANCH   5  23
BRANCH   6  39
ATOM     39  O   UNL     1       1.926   9.673  17.575  0.00  0.00    +0.000 OA
ATOM     40  H   UNL     1       1.180   9.361  17.030  0.00  0.00    +0.000 HD
ENDBRANCH   6  39
TORSDOF 7
ENDMDL
MODEL 8
REMARK VINA RESULT:      -8.7      3.006     10.193
REMARK  Name = 
REMARK  7 active torsions:
REMARK  status: ('A' for Active; 'I' for Inactive)
REMARK    1  A    between atoms: C_2  and  C_4
REMARK    2  A    between atoms: C_9  and  C_10
REMARK    3  A    between atoms: C_14  and  C_15
REMARK    4  A    between atoms: C_17  and  C_18
REMARK    5  A    between atoms: C_18  and  N_19
REMARK    6  A    between atoms: C_25  and  O_26
REMARK    7  A    between atoms: C_27  and  O_28
REMARK                            x       y       z     vdW  Elec       q    Type
REMARK                         _______ _______ _______ _____ _____    ______ ____
ROOT
ATOM      1  C   UNL     1       2.118   7.860  19.153  0.00  0.00    +0.000 A 
ATOM      2  C   UNL     1       1.785   7.394  20.428  0.00  0.00    +0.000 A 
ATOM      3  C   UNL     1       1.044   8.189  21.296  0.00  0.00    +0.000 A 
ATOM      4  C   UNL     1       0.661   9.479  20.914  0.00  0.00    +0.000 A 
ATOM      5  C   UNL     1       0.962  10.010  19.639  0.00  0.00    +0.000 A 
ATOM      6  C   UNL     1       1.662   9.145  18.762  0.00  0.00    +0.000 A 
ENDROOT
BRANCH   1  12
ATOM      7  C   UNL     1       5.680   4.808  15.442  0.00  0.00    +0.000 A 
ATOM      8  C   UNL     1       5.152   3.692  16.108  0.00  0.00    +0.000 A 
ATOM      9  C   UNL     1       4.208   3.835  17.129  0.00  0.00    +0.000 A 
ATOM     10  C   UNL     1       3.830   5.141  17.437  0.00  0.00    +0.000 A 
ATOM     11  N   UNL     1       2.962   5.646  18.358  0.00  0.00    +0.000 N 
ATOM     12  C   UNL     1       2.957   7.021  18.281  0.00  0.00    +0.000 A 
ATOM     13  N   UNL     1       3.771   7.416  17.315  0.00  0.00    +0.000 NA
ATOM     14  C   UNL     1       4.324   6.267  16.795  0.00  0.00    +0.000 A 
ATOM     15  C   UNL     1       5.264   6.109  15.770  0.00  0.00    +0.000 A 
ATOM     16  H   UNL     1       2.412   5.129  19.030  0.00  0.00    +0.000 HD
BRANCH   7  18
ATOM     17  N   UNL     1       6.551   3.628  13.535  0.00  0.00    +0.000 NA
ATOM     18  C   UNL     1       6.701   4.597  14.377  0.00  0.00    +0.000 C 
ATOM     19  N   UNL     1       7.799   5.405  14.304  0.00  0.00    +0.000 N 
ATOM     20  H   UNL     1       7.310   3.644  12.854  0.00  0.00    +0.000 HD
ATOM     21  H   UNL     1       8.593   5.021  13.809  0.00  0.00    +0.000 HD
ATOM     22  H   UNL     1       8.080   5.843  15.176  0.00  0.00    +0.000 HD
ENDBRANCH   7  18
ENDBRANCH   1  12
BRANCH   5  23
ATOM     23  C   UNL     1       0.542  11.413  19.305  0.00  0.00    +0.000 A 
ATOM     24  C   UNL     1       1.385  12.502  19.616  0.00  0.00    +0.000 A 
ATOM     25  C   UNL     1       1.066  13.829  19.265  0.00  0.00    +0.000 A 
ATOM     26  C   UNL     1      -0.147  14.095  18.630  0.00  0.00    +0.000 A 
ATOM     27  C   UNL     1      -1.011  13.055  18.315  0.00  0.00    +0.000 A 
ATOM     28  C   UNL     1      -0.661  11.742  18.641  0.00  0.00    +0.000 A 
BRANCH  28  29
ATOM     29  O   UNL     1      -1.564  10.751  18.335  0.00  0.00    +0.000 OA
ATOM     30  H   UNL     1      -1.819  10.284  19.152  0.00  0.00    +0.000 HD
ENDBRANCH  28  29
BRANCH  25  31
ATOM     31  C   UNL     1       2.005  14.956  19.593  0.00  0.00    +0.000 C 
BRANCH  31  32
ATOM     32  N   UNL     1       1.481  15.794  20.648  0.00  0.00    +0.000 N 
ATOM     33  C   UNL     1       1.791  15.533  21.941  0.00  0.00    +0.000 C 
ATOM     34  N   UNL     1       1.122  16.320  22.815  0.00  0.00    +0.000 N 
ATOM     35  O   UNL     1       2.569  14.667  22.313  0.00  0.00    +0.000 OA
ATOM     36  H   UNL     1       0.723  16.425  20.434  0.00  0.00    +0.000 HD
ATOM     37  H   UNL     1       0.592  17.126  22.529  0.00  0.00    +0.000 HD
ATOM     38  H   UNL     1       1.358  16.219  23.792  0.00  0.00    +0.000 HD
ENDBRANCH  31  32
ENDBRANCH  25  31
ENDBRANCH   5  23
BRANCH   6  39
ATOM     39  O   UNL     1       1.905   9.509  17.451  0.00  0.00    +0.000 OA
ATOM     40  H   UNL     1       1.440   8.858  16.894  0.00  0.00    +0.000 HD
ENDBRANCH   6  39
TORSDOF 7
ENDMDL
MODEL 9
REMARK VINA RESULT:      -8.7      2.975      9.913
REMARK  Name = 
REMARK  7 active torsions:
REMARK  status: ('A' for Active; 'I' for Inactive)
REMARK    1  A    between atoms: C_2  and  C_4
REMARK    2  A    between atoms: C_9  and  C_10
REMARK    3  A    between atoms: C_14  and  C_15
REMARK    4  A    between atoms: C_17  and  C_18
REMARK    5  A    between atoms: C_18  and  N_19
REMARK    6  A    between atoms: C_25  and  O_26
REMARK    7  A    between atoms: C_27  and  O_28
REMARK                            x       y       z     vdW  Elec       q    Type
REMARK                         _______ _______ _______ _____ _____    ______ ____
ROOT
ATOM      1  C   UNL     1       2.222   7.597  19.181  0.00  0.00    +0.000 A 
ATOM      2  C   UNL     1       2.066   7.164  20.501  0.00  0.00    +0.000 A 
ATOM      3  C   UNL     1       1.314   7.911  21.401  0.00  0.00    +0.000 A 
ATOM      4  C   UNL     1       0.741   9.124  21.003  0.00  0.00    +0.000 A 
ATOM      5  C   UNL     1       0.858   9.617  19.684  0.00  0.00    +0.000 A 
ATOM      6  C   UNL     1       1.578   8.795  18.781  0.00  0.00    +0.000 A 
ENDROOT
BRANCH   1  12
ATOM      7  C   UNL     1       5.816   4.799  15.304  0.00  0.00    +0.000 A 
ATOM      8  C   UNL     1       5.385   3.647  15.980  0.00  0.00    +0.000 A 
ATOM      9  C   UNL     1       4.476   3.724  17.039  0.00  0.00    +0.000 A 
ATOM     10  C   UNL     1       4.030   5.002  17.374  0.00  0.00    +0.000 A 
ATOM     11  N   UNL     1       3.170   5.446  18.333  0.00  0.00    +0.000 N 
ATOM     12  C   UNL     1       3.076   6.818  18.269  0.00  0.00    +0.000 A 
ATOM     13  N   UNL     1       3.825   7.270  17.275  0.00  0.00    +0.000 NA
ATOM     14  C   UNL     1       4.428   6.161  16.723  0.00  0.00    +0.000 A 
ATOM     15  C   UNL     1       5.334   6.069  15.660  0.00  0.00    +0.000 A 
ATOM     16  H   UNL     1       2.681   4.891  19.021  0.00  0.00    +0.000 HD
BRANCH   7  18
ATOM     17  N   UNL     1       7.808   5.472  14.135  0.00  0.00    +0.000 NA
ATOM     18  C   UNL     1       6.805   4.660  14.197  0.00  0.00    +0.000 C 
ATOM     19  N   UNL     1       6.640   3.700  13.242  0.00  0.00    +0.000 N 
ATOM     20  H   UNL     1       8.405   5.221  13.346  0.00  0.00    +0.000 HD
ATOM     21  H   UNL     1       7.118   3.866  12.366  0.00  0.00    +0.000 HD
ATOM     22  H   UNL     1       5.684   3.389  13.091  0.00  0.00    +0.000 HD
ENDBRANCH   7  18
ENDBRANCH   1  12
BRANCH   5  23
ATOM     23  C   UNL     1       0.239  10.940  19.332  0.00  0.00    +0.000 A 
ATOM     24  C   UNL     1      -1.141  11.156  19.533  0.00  0.00    +0.000 A 
ATOM     25  C   UNL     1      -1.755  12.399  19.279  0.00  0.00    +0.000 A 
ATOM     26  C   UNL     1      -0.993  13.447  18.763  0.00  0.00    +0.000 A 
ATOM     27  C   UNL     1       0.366  13.273  18.539  0.00  0.00    +0.000 A 
ATOM     28  C   UNL     1       0.964  12.043  18.830  0.00  0.00    +0.000 A 
BRANCH  28  29
ATOM     29  O   UNL     1       2.307  11.913  18.561  0.00  0.00    +0.000 OA
ATOM     30  H   UNL     1       2.558  12.545  17.863  0.00  0.00    +0.000 HD
ENDBRANCH  28  29
BRANCH  25  31
ATOM     31  C   UNL     1      -3.225  12.595  19.533  0.00  0.00    +0.000 C 
BRANCH  31  32
ATOM     32  N   UNL     1      -4.018  12.189  18.395  0.00  0.00    +0.000 N 
ATOM     33  C   UNL     1      -5.321  11.852  18.560  0.00  0.00    +0.000 C 
ATOM     34  N   UNL     1      -5.890  11.372  17.431  0.00  0.00    +0.000 N 
ATOM     35  O   UNL     1      -5.938  11.939  19.611  0.00  0.00    +0.000 OA
ATOM     36  H   UNL     1      -3.547  11.952  17.535  0.00  0.00    +0.000 HD
ATOM     37  H   UNL     1      -5.447  11.427  16.529  0.00  0.00    +0.000 HD
ATOM     38  H   UNL     1      -6.879  11.165  17.471  0.00  0.00    +0.000 HD
ENDBRANCH  31  32
ENDBRANCH  25  31
ENDBRANCH   5  23
BRANCH   6  39
ATOM     39  O   UNL     1       1.654   9.114  17.439  0.00  0.00    +0.000 OA
ATOM     40  H   UNL     1       1.070   9.884  17.305  0.00  0.00    +0.000 HD
ENDBRANCH   6  39
TORSDOF 7
ENDMDL
