MODEL 1
REMARK VINA RESULT:      -6.1      0.000      0.000
REMARK  Name = 
REMARK  6 active torsions:
REMARK  status: ('A' for Active; 'I' for Inactive)
REMARK    1  A    between atoms: C_1  and  C_2
REMARK    2  A    between atoms: C_2  and  C_3
REMARK    3  A    between atoms: C_2  and  C_4
REMARK    4  A    between atoms: C_4  and  C_5
REMARK    5  A    between atoms: C_4  and  N_7
REMARK    6  A    between atoms: C_8  and  C_10
REMARK                            x       y       z     vdW  Elec       q    Type
REMARK                         _______ _______ _______ _____ _____    ______ ____
ROOT
ATOM      1  N   UNL     1       5.314   4.493  17.403  0.00  0.00    +0.000 N 
ATOM      2  C   UNL     1       4.721   3.827  18.454  0.00  0.00    +0.000 C 
ATOM      3  O   UNL     1       5.369   3.494  19.441  0.00  0.00    +0.000 OA
ATOM      4  H   UNL     1       4.730   4.803  16.636  0.00  0.00    +0.000 HD
ENDROOT
BRANCH   2   5
ATOM      5  C   UNL     1       3.314   3.557  18.304  0.00  0.00    +0.000 A 
ATOM      6  C   UNL     1       2.313   4.356  17.785  0.00  0.00    +0.000 A 
ATOM      7  N   UNL     1       1.041   3.800  17.786  0.00  0.00    +0.000 NA
ATOM      8  N   UNL     1       1.046   2.582  18.302  0.00  0.00    +0.000 NA
ATOM      9  S   UNL     1       2.563   2.092  18.792  0.00  0.00    +0.000 S 
ENDBRANCH   2   5
BRANCH   1  10
ATOM     10  C   UNL     1       6.731   4.849  17.366  0.00  0.00    +0.000 C 
BRANCH  10  12
ATOM     11  C   UNL     1       7.512   7.311  17.427  0.00  0.00    +0.000 C 
ATOM     12  C   UNL     1       7.013   6.103  18.232  0.00  0.00    +0.000 C 
ATOM     13  C   UNL     1       7.995   5.804  19.370  0.00  0.00    +0.000 C 
ENDBRANCH  10  12
BRANCH  10  14
ATOM     14  C   UNL     1       7.154   5.023  15.955  0.00  0.00    +0.000 C 
ATOM     15  N   UNL     1       7.458   5.199  14.849  0.00  0.00    +0.000 NA
ENDBRANCH  10  14
ENDBRANCH   1  10
TORSDOF 4
ENDMDL
MODEL 2
REMARK VINA RESULT:      -6.1      2.423      5.602
REMARK  Name = 
REMARK  6 active torsions:
REMARK  status: ('A' for Active; 'I' for Inactive)
REMARK    1  A    between atoms: C_1  and  C_2
REMARK    2  A    between atoms: C_2  and  C_3
REMARK    3  A    between atoms: C_2  and  C_4
REMARK    4  A    between atoms: C_4  and  C_5
REMARK    5  A    between atoms: C_4  and  N_7
REMARK    6  A    between atoms: C_8  and  C_10
REMARK                            x       y       z     vdW  Elec       q    Type
REMARK                         _______ _______ _______ _____ _____    ______ ____
ROOT
ATOM      1  N   UNL     1       4.034   5.382  18.703  0.00  0.00    +0.000 N 
ATOM      2  C   UNL     1       5.255   4.748  18.625  0.00  0.00    +0.000 C 
ATOM      3  O   UNL     1       5.554   3.847  19.403  0.00  0.00    +0.000 OA
ATOM      4  H   UNL     1       3.806   6.078  18.003  0.00  0.00    +0.000 HD
ENDROOT
BRANCH   2   5
ATOM      5  C   UNL     1       6.135   5.217  17.585  0.00  0.00    +0.000 A 
ATOM      6  C   UNL     1       6.844   6.400  17.496  0.00  0.00    +0.000 A 
ATOM      7  N   UNL     1       7.606   6.556  16.347  0.00  0.00    +0.000 NA
ATOM      8  N   UNL     1       7.493   5.511  15.545  0.00  0.00    +0.000 NA
ATOM      9  S   UNL     1       6.477   4.336  16.152  0.00  0.00    +0.000 S 
ENDBRANCH   2   5
BRANCH   1  10
ATOM     10  C   UNL     1       3.012   5.053  19.694  0.00  0.00    +0.000 C 
BRANCH  10  12
ATOM     11  C   UNL     1       1.504   4.239  17.761  0.00  0.00    +0.000 C 
ATOM     12  C   UNL     1       2.055   3.955  19.165  0.00  0.00    +0.000 C 
ATOM     13  C   UNL     1       0.893   3.694  20.129  0.00  0.00    +0.000 C 
ENDBRANCH  10  12
BRANCH  10  14
ATOM     14  C   UNL     1       2.297   6.292  20.088  0.00  0.00    +0.000 C 
ATOM     15  N   UNL     1       1.779   7.286  20.387  0.00  0.00    +0.000 NA
ENDBRANCH  10  14
ENDBRANCH   1  10
TORSDOF 4
ENDMDL
MODEL 3
REMARK VINA RESULT:      -6.0      2.265      5.685
REMARK  Name = 
REMARK  6 active torsions:
REMARK  status: ('A' for Active; 'I' for Inactive)
REMARK    1  A    between atoms: C_1  and  C_2
REMARK    2  A    between atoms: C_2  and  C_3
REMARK    3  A    between atoms: C_2  and  C_4
REMARK    4  A    between atoms: C_4  and  C_5
REMARK    5  A    between atoms: C_4  and  N_7
REMARK    6  A    between atoms: C_8  and  C_10
REMARK                            x       y       z     vdW  Elec       q    Type
REMARK                         _______ _______ _______ _____ _____    ______ ____
ROOT
ATOM      1  N   UNL     1       3.902   4.746  18.335  0.00  0.00    +0.000 N 
ATOM      2  C   UNL     1       5.248   4.487  18.474  0.00  0.00    +0.000 C 
ATOM      3  O   UNL     1       5.669   3.779  19.384  0.00  0.00    +0.000 OA
ATOM      4  H   UNL     1       3.593   5.284  17.536  0.00  0.00    +0.000 HD
ENDROOT
BRANCH   2   5
ATOM      5  C   UNL     1       6.104   5.103  17.492  0.00  0.00    +0.000 A 
ATOM      6  C   UNL     1       6.790   6.300  17.546  0.00  0.00    +0.000 A 
ATOM      7  N   UNL     1       7.533   6.617  16.417  0.00  0.00    +0.000 NA
ATOM      8  N   UNL     1       7.427   5.680  15.490  0.00  0.00    +0.000 NA
ATOM      9  S   UNL     1       6.441   4.418  15.954  0.00  0.00    +0.000 S 
ENDBRANCH   2   5
BRANCH   1  10
ATOM     10  C   UNL     1       2.879   4.218  19.236  0.00  0.00    +0.000 C 
BRANCH  10  12
ATOM     11  C   UNL     1       0.721   2.802  19.348  0.00  0.00    +0.000 C 
ATOM     12  C   UNL     1       1.844   3.361  18.464  0.00  0.00    +0.000 C 
ATOM     13  C   UNL     1       2.509   2.216  17.693  0.00  0.00    +0.000 C 
ENDBRANCH  10  12
BRANCH  10  14
ATOM     14  C   UNL     1       2.252   5.342  19.974  0.00  0.00    +0.000 C 
ATOM     15  N   UNL     1       1.794   6.213  20.588  0.00  0.00    +0.000 NA
ENDBRANCH  10  14
ENDBRANCH   1  10
TORSDOF 4
ENDMDL
MODEL 4
REMARK VINA RESULT:      -5.9      2.676      5.480
REMARK  Name = 
REMARK  6 active torsions:
REMARK  status: ('A' for Active; 'I' for Inactive)
REMARK    1  A    between atoms: C_1  and  C_2
REMARK    2  A    between atoms: C_2  and  C_3
REMARK    3  A    between atoms: C_2  and  C_4
REMARK    4  A    between atoms: C_4  and  C_5
REMARK    5  A    between atoms: C_4  and  N_7
REMARK    6  A    between atoms: C_8  and  C_10
REMARK                            x       y       z     vdW  Elec       q    Type
REMARK                         _______ _______ _______ _____ _____    ______ ____
ROOT
ATOM      1  N   UNL     1       4.013   5.053  18.357  0.00  0.00    +0.000 N 
ATOM      2  C   UNL     1       5.271   4.491  18.327  0.00  0.00    +0.000 C 
ATOM      3  O   UNL     1       5.717   3.878  19.292  0.00  0.00    +0.000 OA
ATOM      4  H   UNL     1       3.661   5.497  17.518  0.00  0.00    +0.000 HD
ENDROOT
BRANCH   2   5
ATOM      5  C   UNL     1       6.006   4.679  17.102  0.00  0.00    +0.000 A 
ATOM      6  C   UNL     1       5.987   3.933  15.939  0.00  0.00    +0.000 A 
ATOM      7  N   UNL     1       6.827   4.379  14.928  0.00  0.00    +0.000 NA
ATOM      8  N   UNL     1       7.496   5.458  15.295  0.00  0.00    +0.000 NA
ATOM      9  S   UNL     1       7.133   5.949  16.847  0.00  0.00    +0.000 S 
ENDBRANCH   2   5
BRANCH   1  10
ATOM     10  C   UNL     1       3.119   4.976  19.511  0.00  0.00    +0.000 C 
BRANCH  10  12
ATOM     11  C   UNL     1       1.389   3.877  17.939  0.00  0.00    +0.000 C 
ATOM     12  C   UNL     1       2.056   3.865  19.321  0.00  0.00    +0.000 C 
ATOM     13  C   UNL     1       0.979   3.910  20.410  0.00  0.00    +0.000 C 
ENDBRANCH  10  12
BRANCH  10  14
ATOM     14  C   UNL     1       2.515   6.310  19.751  0.00  0.00    +0.000 C 
ATOM     15  N   UNL     1       2.088   7.371  19.944  0.00  0.00    +0.000 NA
ENDBRANCH  10  14
ENDBRANCH   1  10
TORSDOF 4
ENDMDL
MODEL 5
REMARK VINA RESULT:      -5.9      2.866      5.623
REMARK  Name = 
REMARK  6 active torsions:
REMARK  status: ('A' for Active; 'I' for Inactive)
REMARK    1  A    between atoms: C_1  and  C_2
REMARK    2  A    between atoms: C_2  and  C_3
REMARK    3  A    between atoms: C_2  and  C_4
REMARK    4  A    between atoms: C_4  and  C_5
REMARK    5  A    between atoms: C_4  and  N_7
REMARK    6  A    between atoms: C_8  and  C_10
REMARK                            x       y       z     vdW  Elec       q    Type
REMARK                         _______ _______ _______ _____ _____    ______ ____
ROOT
ATOM      1  N   UNL     1       4.838   3.454  18.881  0.00  0.00    +0.000 N 
ATOM      2  C   UNL     1       4.656   3.907  17.592  0.00  0.00    +0.000 C 
ATOM      3  O   UNL     1       3.786   3.432  16.869  0.00  0.00    +0.000 OA
ATOM      4  H   UNL     1       5.526   3.915  19.463  0.00  0.00    +0.000 HD
ENDROOT
BRANCH   2   5
ATOM      5  C   UNL     1       5.549   4.956  17.170  0.00  0.00    +0.000 A 
ATOM      6  C   UNL     1       6.882   4.888  16.812  0.00  0.00    +0.000 A 
ATOM      7  N   UNL     1       7.468   6.095  16.455  0.00  0.00    +0.000 NA
ATOM      8  N   UNL     1       6.606   7.093  16.535  0.00  0.00    +0.000 NA
ATOM      9  S   UNL     1       5.093   6.605  17.038  0.00  0.00    +0.000 S 
ENDBRANCH   2   5
BRANCH   1  10
ATOM     10  C   UNL     1       4.036   2.393  19.487  0.00  0.00    +0.000 C 
BRANCH  10  12
ATOM     11  C   UNL     1       2.471   2.825  21.496  0.00  0.00    +0.000 C 
ATOM     12  C   UNL     1       2.671   2.936  19.979  0.00  0.00    +0.000 C 
ATOM     13  C   UNL     1       1.495   2.271  19.257  0.00  0.00    +0.000 C 
ENDBRANCH  10  12
BRANCH  10  14
ATOM     14  C   UNL     1       4.818   1.748  20.570  0.00  0.00    +0.000 C 
ATOM     15  N   UNL     1       5.471   1.257  21.394  0.00  0.00    +0.000 NA
ENDBRANCH  10  14
ENDBRANCH   1  10
TORSDOF 4
ENDMDL
MODEL 6
REMARK VINA RESULT:      -5.9      2.883      5.381
REMARK  Name = 
REMARK  6 active torsions:
REMARK  status: ('A' for Active; 'I' for Inactive)
REMARK    1  A    between atoms: C_1  and  C_2
REMARK    2  A    between atoms: C_2  and  C_3
REMARK    3  A    between atoms: C_2  and  C_4
REMARK    4  A    between atoms: C_4  and  C_5
REMARK    5  A    between atoms: C_4  and  N_7
REMARK    6  A    between atoms: C_8  and  C_10
REMARK                            x       y       z     vdW  Elec       q    Type
REMARK                         _______ _______ _______ _____ _____    ______ ____
ROOT
ATOM      1  N   UNL     1       4.905   3.579  18.711  0.00  0.00    +0.000 N 
ATOM      2  C   UNL     1       4.775   3.879  17.373  0.00  0.00    +0.000 C 
ATOM      3  O   UNL     1       3.836   3.448  16.712  0.00  0.00    +0.000 OA
ATOM      4  H   UNL     1       5.661   4.005  19.232  0.00  0.00    +0.000 HD
ENDROOT
BRANCH   2   5
ATOM      5  C   UNL     1       5.808   4.720  16.822  0.00  0.00    +0.000 A 
ATOM      6  C   UNL     1       6.615   4.517  15.719  0.00  0.00    +0.000 A 
ATOM      7  N   UNL     1       7.529   5.527  15.452  0.00  0.00    +0.000 NA
ATOM      8  N   UNL     1       7.440   6.506  16.336  0.00  0.00    +0.000 NA
ATOM      9  S   UNL     1       6.271   6.231  17.492  0.00  0.00    +0.000 S 
ENDBRANCH   2   5
BRANCH   1  10
ATOM     10  C   UNL     1       3.963   2.737  19.447  0.00  0.00    +0.000 C 
BRANCH  10  12
ATOM     11  C   UNL     1       3.093   5.078  20.108  0.00  0.00    +0.000 C 
ATOM     12  C   UNL     1       2.792   3.576  20.017  0.00  0.00    +0.000 C 
ATOM     13  C   UNL     1       2.332   3.062  21.386  0.00  0.00    +0.000 C 
ENDBRANCH  10  12
BRANCH  10  14
ATOM     14  C   UNL     1       4.695   1.989  20.498  0.00  0.00    +0.000 C 
ATOM     15  N   UNL     1       5.283   1.373  21.286  0.00  0.00    +0.000 NA
ENDBRANCH  10  14
ENDBRANCH   1  10
TORSDOF 4
ENDMDL
MODEL 7
REMARK VINA RESULT:      -5.9      2.610      5.557
REMARK  Name = 
REMARK  6 active torsions:
REMARK  status: ('A' for Active; 'I' for Inactive)
REMARK    1  A    between atoms: C_1  and  C_2
REMARK    2  A    between atoms: C_2  and  C_3
REMARK    3  A    between atoms: C_2  and  C_4
REMARK    4  A    between atoms: C_4  and  C_5
REMARK    5  A    between atoms: C_4  and  N_7
REMARK    6  A    between atoms: C_8  and  C_10
REMARK                            x       y       z     vdW  Elec       q    Type
REMARK                         _______ _______ _______ _____ _____    ______ ____
ROOT
ATOM      1  N   UNL     1       3.761   4.924  18.791  0.00  0.00    +0.000 N 
ATOM      2  C   UNL     1       5.051   4.484  18.587  0.00  0.00    +0.000 C 
ATOM      3  O   UNL     1       5.608   3.751  19.398  0.00  0.00    +0.000 OA
ATOM      4  H   UNL     1       3.319   5.478  18.068  0.00  0.00    +0.000 HD
ENDROOT
BRANCH   2   5
ATOM      5  C   UNL     1       5.680   4.945  17.376  0.00  0.00    +0.000 A 
ATOM      6  C   UNL     1       5.139   5.633  16.307  0.00  0.00    +0.000 A 
ATOM      7  N   UNL     1       6.020   5.929  15.276  0.00  0.00    +0.000 NA
ATOM      8  N   UNL     1       7.235   5.477  15.534  0.00  0.00    +0.000 NA
ATOM      9  S   UNL     1       7.337   4.693  17.003  0.00  0.00    +0.000 S 
ENDBRANCH   2   5
BRANCH   1  10
ATOM     10  C   UNL     1       2.961   4.572  19.962  0.00  0.00    +0.000 C 
BRANCH  10  12
ATOM     11  C   UNL     1       1.269   3.398  18.402  0.00  0.00    +0.000 C 
ATOM     12  C   UNL     1       2.098   3.313  19.690  0.00  0.00    +0.000 C 
ATOM     13  C   UNL     1       1.179   2.982  20.871  0.00  0.00    +0.000 C 
ENDBRANCH  10  12
BRANCH  10  14
ATOM     14  C   UNL     1       2.148   5.744  20.369  0.00  0.00    +0.000 C 
ATOM     15  N   UNL     1       1.492   6.633  20.722  0.00  0.00    +0.000 NA
ENDBRANCH  10  14
ENDBRANCH   1  10
TORSDOF 4
ENDMDL
MODEL 8
REMARK VINA RESULT:      -5.8      2.602      5.576
REMARK  Name = 
REMARK  6 active torsions:
REMARK  status: ('A' for Active; 'I' for Inactive)
REMARK    1  A    between atoms: C_1  and  C_2
REMARK    2  A    between atoms: C_2  and  C_3
REMARK    3  A    between atoms: C_2  and  C_4
REMARK    4  A    between atoms: C_4  and  C_5
REMARK    5  A    between atoms: C_4  and  N_7
REMARK    6  A    between atoms: C_8  and  C_10
REMARK                            x       y       z     vdW  Elec       q    Type
REMARK                         _______ _______ _______ _____ _____    ______ ____
ROOT
ATOM      1  N   UNL     1       4.650   3.202  18.113  0.00  0.00    +0.000 N 
ATOM      2  C   UNL     1       5.230   4.408  18.439  0.00  0.00    +0.000 C 
ATOM      3  O   UNL     1       4.998   4.956  19.512  0.00  0.00    +0.000 OA
ATOM      4  H   UNL     1       4.916   2.756  17.244  0.00  0.00    +0.000 HD
ENDROOT
BRANCH   2   5
ATOM      5  C   UNL     1       6.109   4.964  17.442  0.00  0.00    +0.000 A 
ATOM      6  C   UNL     1       6.447   4.478  16.194  0.00  0.00    +0.000 A 
ATOM      7  N   UNL     1       7.337   5.257  15.467  0.00  0.00    +0.000 NA
ATOM      8  N   UNL     1       7.692   6.339  16.139  0.00  0.00    +0.000 NA
ATOM      9  S   UNL     1       6.973   6.434  17.641  0.00  0.00    +0.000 S 
ENDBRANCH   2   5
BRANCH   1  10
ATOM     10  C   UNL     1       3.725   2.485  18.989  0.00  0.00    +0.000 C 
BRANCH  10  12
ATOM     11  C   UNL     1       1.620   2.786  20.456  0.00  0.00    +0.000 C 
ATOM     12  C   UNL     1       2.487   3.354  19.325  0.00  0.00    +0.000 C 
ATOM     13  C   UNL     1       1.616   3.611  18.091  0.00  0.00    +0.000 C 
ENDBRANCH  10  12
BRANCH  10  14
ATOM     14  C   UNL     1       4.452   2.034  20.202  0.00  0.00    +0.000 C 
ATOM     15  N   UNL     1       5.058   1.670  21.121  0.00  0.00    +0.000 NA
ENDBRANCH  10  14
ENDBRANCH   1  10
TORSDOF 4
ENDMDL
MODEL 9
REMARK VINA RESULT:      -5.8      2.302      5.453
REMARK  Name = 
REMARK  6 active torsions:
REMARK  status: ('A' for Active; 'I' for Inactive)
REMARK    1  A    between atoms: C_1  and  C_2
REMARK    2  A    between atoms: C_2  and  C_3
REMARK    3  A    between atoms: C_2  and  C_4
REMARK    4  A    between atoms: C_4  and  C_5
REMARK    5  A    between atoms: C_4  and  N_7
REMARK    6  A    between atoms: C_8  and  C_10
REMARK                            x       y       z     vdW  Elec       q    Type
REMARK                         _______ _______ _______ _____ _____    ______ ____
ROOT
ATOM      1  N   UNL     1       4.560   3.292  18.013  0.00  0.00    +0.000 N 
ATOM      2  C   UNL     1       5.498   4.242  18.353  0.00  0.00    +0.000 C 
ATOM      3  O   UNL     1       5.660   4.587  19.519  0.00  0.00    +0.000 OA
ATOM      4  H   UNL     1       4.502   2.993  17.047  0.00  0.00    +0.000 HD
ENDROOT
BRANCH   2   5
ATOM      5  C   UNL     1       6.254   4.790  17.255  0.00  0.00    +0.000 A 
ATOM      6  C   UNL     1       7.053   5.915  17.209  0.00  0.00    +0.000 A 
ATOM      7  N   UNL     1       7.648   6.179  15.982  0.00  0.00    +0.000 NA
ATOM      8  N   UNL     1       7.316   5.271  15.080  0.00  0.00    +0.000 NA
ATOM      9  S   UNL     1       6.292   4.102  15.683  0.00  0.00    +0.000 S 
ENDBRANCH   2   5
BRANCH   1  10
ATOM     10  C   UNL     1       3.692   2.627  18.983  0.00  0.00    +0.000 C 
BRANCH  10  12
ATOM     11  C   UNL     1       1.580   2.921  20.442  0.00  0.00    +0.000 C 
ATOM     12  C   UNL     1       2.569   3.578  19.471  0.00  0.00    +0.000 C 
ATOM     13  C   UNL     1       1.801   4.206  18.302  0.00  0.00    +0.000 C 
ENDBRANCH  10  12
BRANCH  10  14
ATOM     14  C   UNL     1       4.518   2.101  20.097  0.00  0.00    +0.000 C 
ATOM     15  N   UNL     1       5.126   1.698  20.999  0.00  0.00    +0.000 NA
ENDBRANCH  10  14
ENDBRANCH   1  10
TORSDOF 4
ENDMDL
