MODEL 1
REMARK VINA RESULT:      -8.4      0.000      0.000
REMARK  Name = 
REMARK  4 active torsions:
REMARK  status: ('A' for Active; 'I' for Inactive)
REMARK    1  A    between atoms: C_1  and  C_2
REMARK    2  A    between atoms: C_7  and  C_8
REMARK    3  A    between atoms: C_15  and  N_16
REMARK    4  A    between atoms: N_16  and  C_17
REMARK                            x       y       z     vdW  Elec       q    Type
REMARK                         _______ _______ _______ _____ _____    ______ ____
ROOT
ATOM      1  C   UNL     1       7.692   7.118  17.855  0.00  0.00    +0.000 C 
ATOM      2  C   UNL     1       6.915   6.311  16.858  0.00  0.00    +0.000 A 
ATOM      3  N   UNL     1       7.558   5.885  15.736  0.00  0.00    +0.000 NA
ATOM      4  C   UNL     1       6.917   5.195  14.763  0.00  0.00    +0.000 A 
ATOM      5  C   UNL     1       7.601   4.787  13.617  0.00  0.00    +0.000 A 
ATOM      6  C   UNL     1       6.923   4.095  12.610  0.00  0.00    +0.000 A 
ATOM      7  C   UNL     1       5.552   3.795  12.745  0.00  0.00    +0.000 A 
ATOM      8  C   UNL     1       4.873   4.197  13.911  0.00  0.00    +0.000 A 
ATOM      9  C   UNL     1       5.551   4.905  14.911  0.00  0.00    +0.000 A 
ATOM     10  N   UNL     1       4.901   5.331  16.025  0.00  0.00    +0.000 NA
ATOM     11  C   UNL     1       5.534   6.030  17.010  0.00  0.00    +0.000 A 
ENDROOT
BRANCH   7  12
ATOM     12  C   UNL     1       4.799   3.070  11.659  0.00  0.00    +0.000 C 
ATOM     13  F   UNL     1       3.472   2.870  12.004  0.00  0.00    +0.000 F 
ATOM     14  F   UNL     1       4.844   3.803  10.488  0.00  0.00    +0.000 F 
ATOM     15  F   UNL     1       5.384   1.835  11.444  0.00  0.00    +0.000 F 
ENDBRANCH   7  12
BRANCH  11  16
ATOM     16  N   UNL     1       4.819   6.409  18.183  0.00  0.00    +0.000 N 
ATOM     17  H   UNL     1       4.898   7.380  18.518  0.00  0.00    +0.000 HD
BRANCH  16  18
ATOM     18  C   UNL     1       4.035   5.504  18.968  0.00  0.00    +0.000 A 
ATOM     19  C   UNL     1       2.759   5.861  19.445  0.00  0.00    +0.000 A 
ATOM     20  C   UNL     1       2.035   4.990  20.262  0.00  0.00    +0.000 A 
ATOM     21  C   UNL     1       2.558   3.741  20.602  0.00  0.00    +0.000 A 
ATOM     22 CL   UNL     1       1.615   2.677  21.638  0.00  0.00    +0.000 Cl
ATOM     23  C   UNL     1       3.825   3.363  20.125  0.00  0.00    +0.000 A 
ATOM     24 CL   UNL     1       4.510   1.792  20.521  0.00  0.00    +0.000 Cl
ATOM     25  C   UNL     1       4.562   4.249  19.326  0.00  0.00    +0.000 A 
ENDBRANCH  16  18
ENDBRANCH  11  16
TORSDOF 3
ENDMDL
MODEL 2
REMARK VINA RESULT:      -8.3      4.775      7.543
REMARK  Name = 
REMARK  4 active torsions:
REMARK  status: ('A' for Active; 'I' for Inactive)
REMARK    1  A    between atoms: C_1  and  C_2
REMARK    2  A    between atoms: C_7  and  C_8
REMARK    3  A    between atoms: C_15  and  N_16
REMARK    4  A    between atoms: N_16  and  C_17
REMARK                            x       y       z     vdW  Elec       q    Type
REMARK                         _______ _______ _______ _____ _____    ______ ____
ROOT
ATOM      1  C   UNL     1       4.036   2.484  20.033  0.00  0.00    +0.000 C 
ATOM      2  C   UNL     1       3.705   3.837  19.478  0.00  0.00    +0.000 A 
ATOM      3  N   UNL     1       3.016   4.705  20.270  0.00  0.00    +0.000 NA
ATOM      4  C   UNL     1       2.635   5.927  19.828  0.00  0.00    +0.000 A 
ATOM      5  C   UNL     1       1.915   6.787  20.659  0.00  0.00    +0.000 A 
ATOM      6  C   UNL     1       1.507   8.036  20.184  0.00  0.00    +0.000 A 
ATOM      7  C   UNL     1       1.825   8.442  18.873  0.00  0.00    +0.000 A 
ATOM      8  C   UNL     1       2.564   7.575  18.046  0.00  0.00    +0.000 A 
ATOM      9  C   UNL     1       2.957   6.317  18.518  0.00  0.00    +0.000 A 
ATOM     10  N   UNL     1       3.640   5.455  17.720  0.00  0.00    +0.000 NA
ATOM     11  C   UNL     1       4.027   4.221  18.152  0.00  0.00    +0.000 A 
ENDROOT
BRANCH   7  12
ATOM     12  C   UNL     1       1.373   9.776  18.335  0.00  0.00    +0.000 C 
ATOM     13  F   UNL     1       2.352  10.370  17.556  0.00  0.00    +0.000 F 
ATOM     14  F   UNL     1       0.237   9.611  17.567  0.00  0.00    +0.000 F 
ATOM     15  F   UNL     1       1.087  10.621  19.392  0.00  0.00    +0.000 F 
ENDBRANCH   7  12
BRANCH  11  16
ATOM     16  N   UNL     1       4.785   3.374  17.293  0.00  0.00    +0.000 N 
ATOM     17  H   UNL     1       4.777   2.359  17.464  0.00  0.00    +0.000 HD
BRANCH  16  18
ATOM     18  C   UNL     1       5.615   3.854  16.229  0.00  0.00    +0.000 A 
ATOM     19  C   UNL     1       6.672   4.753  16.471  0.00  0.00    +0.000 A 
ATOM     20  C   UNL     1       7.431   5.259  15.414  0.00  0.00    +0.000 A 
ATOM     21  C   UNL     1       7.166   4.864  14.100  0.00  0.00    +0.000 A 
ATOM     22 CL   UNL     1       8.144   5.531  12.799  0.00  0.00    +0.000 Cl
ATOM     23  C   UNL     1       6.124   3.958  13.843  0.00  0.00    +0.000 A 
ATOM     24 CL   UNL     1       5.770   3.427  12.203  0.00  0.00    +0.000 Cl
ATOM     25  C   UNL     1       5.345   3.471  14.902  0.00  0.00    +0.000 A 
ENDBRANCH  16  18
ENDBRANCH  11  16
TORSDOF 3
ENDMDL
MODEL 3
REMARK VINA RESULT:      -8.2      1.507      2.109
REMARK  Name = 
REMARK  4 active torsions:
REMARK  status: ('A' for Active; 'I' for Inactive)
REMARK    1  A    between atoms: C_1  and  C_2
REMARK    2  A    between atoms: C_7  and  C_8
REMARK    3  A    between atoms: C_15  and  N_16
REMARK    4  A    between atoms: N_16  and  C_17
REMARK                            x       y       z     vdW  Elec       q    Type
REMARK                         _______ _______ _______ _____ _____    ______ ____
ROOT
ATOM      1  C   UNL     1       7.613   6.697  17.889  0.00  0.00    +0.000 C 
ATOM      2  C   UNL     1       7.197   5.674  16.874  0.00  0.00    +0.000 A 
ATOM      3  N   UNL     1       7.528   5.892  15.571  0.00  0.00    +0.000 NA
ATOM      4  C   UNL     1       7.149   5.043  14.587  0.00  0.00    +0.000 A 
ATOM      5  C   UNL     1       7.489   5.304  13.258  0.00  0.00    +0.000 A 
ATOM      6  C   UNL     1       7.072   4.433  12.248  0.00  0.00    +0.000 A 
ATOM      7  C   UNL     1       6.316   3.285  12.559  0.00  0.00    +0.000 A 
ATOM      8  C   UNL     1       5.990   3.021  13.903  0.00  0.00    +0.000 A 
ATOM      9  C   UNL     1       6.394   3.905  14.912  0.00  0.00    +0.000 A 
ATOM     10  N   UNL     1       6.056   3.683  16.209  0.00  0.00    +0.000 NA
ATOM     11  C   UNL     1       6.429   4.532  17.209  0.00  0.00    +0.000 A 
ENDROOT
BRANCH   7  12
ATOM     12  C   UNL     1       5.838   2.346  11.481  0.00  0.00    +0.000 C 
ATOM     13  F   UNL     1       6.780   2.200  10.476  0.00  0.00    +0.000 F 
ATOM     14  F   UNL     1       5.575   1.104  12.025  0.00  0.00    +0.000 F 
ATOM     15  F   UNL     1       4.678   2.850  10.920  0.00  0.00    +0.000 F 
ENDBRANCH   7  12
BRANCH  11  16
ATOM     16  N   UNL     1       6.093   4.226  18.560  0.00  0.00    +0.000 N 
ATOM     17  H   UNL     1       6.853   4.112  19.245  0.00  0.00    +0.000 HD
BRANCH  16  18
ATOM     18  C   UNL     1       4.755   4.009  19.020  0.00  0.00    +0.000 A 
ATOM     19  C   UNL     1       4.151   2.739  18.948  0.00  0.00    +0.000 A 
ATOM     20  C   UNL     1       2.824   2.559  19.343  0.00  0.00    +0.000 A 
ATOM     21  C   UNL     1       2.080   3.634  19.836  0.00  0.00    +0.000 A 
ATOM     22 CL   UNL     1       0.410   3.363  20.317  0.00  0.00    +0.000 Cl
ATOM     23  C   UNL     1       2.671   4.905  19.926  0.00  0.00    +0.000 A 
ATOM     24 CL   UNL     1       1.771   6.279  20.555  0.00  0.00    +0.000 Cl
ATOM     25  C   UNL     1       3.996   5.091  19.505  0.00  0.00    +0.000 A 
ENDBRANCH  16  18
ENDBRANCH  11  16
TORSDOF 3
ENDMDL
MODEL 4
REMARK VINA RESULT:      -8.1      5.841      7.764
REMARK  Name = 
REMARK  4 active torsions:
REMARK  status: ('A' for Active; 'I' for Inactive)
REMARK    1  A    between atoms: C_1  and  C_2
REMARK    2  A    between atoms: C_7  and  C_8
REMARK    3  A    between atoms: C_15  and  N_16
REMARK    4  A    between atoms: N_16  and  C_17
REMARK                            x       y       z     vdW  Elec       q    Type
REMARK                         _______ _______ _______ _____ _____    ______ ____
ROOT
ATOM      1  C   UNL     1      -0.060   8.953  21.940  0.00  0.00    +0.000 C 
ATOM      2  C   UNL     1       0.787   8.621  20.748  0.00  0.00    +0.000 A 
ATOM      3  N   UNL     1       1.426   7.418  20.729  0.00  0.00    +0.000 NA
ATOM      4  C   UNL     1       2.248   7.062  19.714  0.00  0.00    +0.000 A 
ATOM      5  C   UNL     1       2.901   5.828  19.733  0.00  0.00    +0.000 A 
ATOM      6  C   UNL     1       3.766   5.482  18.691  0.00  0.00    +0.000 A 
ATOM      7  C   UNL     1       3.979   6.364  17.613  0.00  0.00    +0.000 A 
ATOM      8  C   UNL     1       3.304   7.600  17.594  0.00  0.00    +0.000 A 
ATOM      9  C   UNL     1       2.452   7.953  18.648  0.00  0.00    +0.000 A 
ATOM     10  N   UNL     1       1.823   9.156  18.662  0.00  0.00    +0.000 NA
ATOM     11  C   UNL     1       0.994   9.528  19.679  0.00  0.00    +0.000 A 
ENDROOT
BRANCH   7  12
ATOM     12  C   UNL     1       4.926   6.017  16.492  0.00  0.00    +0.000 C 
ATOM     13  F   UNL     1       4.664   4.759  15.974  0.00  0.00    +0.000 F 
ATOM     14  F   UNL     1       4.808   6.946  15.477  0.00  0.00    +0.000 F 
ATOM     15  F   UNL     1       6.223   6.030  16.971  0.00  0.00    +0.000 F 
ENDBRANCH   7  12
BRANCH  11  16
ATOM     16  N   UNL     1       0.318  10.781  19.620  0.00  0.00    +0.000 N 
ATOM     17  H   UNL     1       0.740  11.594  20.093  0.00  0.00    +0.000 HD
BRANCH  16  18
ATOM     18  C   UNL     1      -0.953  10.975  18.990  0.00  0.00    +0.000 A 
ATOM     19  C   UNL     1      -1.940  11.797  19.567  0.00  0.00    +0.000 A 
ATOM     20  C   UNL     1      -3.197  11.924  18.970  0.00  0.00    +0.000 A 
ATOM     21  C   UNL     1      -3.487  11.252  17.781  0.00  0.00    +0.000 A 
ATOM     22 CL   UNL     1      -5.084  11.436  17.067  0.00  0.00    +0.000 Cl
ATOM     23  C   UNL     1      -2.509  10.437  17.186  0.00  0.00    +0.000 A 
ATOM     24 CL   UNL     1      -2.832   9.587  15.680  0.00  0.00    +0.000 Cl
ATOM     25  C   UNL     1      -1.256  10.290  17.799  0.00  0.00    +0.000 A 
ENDBRANCH  16  18
ENDBRANCH  11  16
TORSDOF 3
ENDMDL
MODEL 5
REMARK VINA RESULT:      -7.9      5.906      7.877
REMARK  Name = 
REMARK  4 active torsions:
REMARK  status: ('A' for Active; 'I' for Inactive)
REMARK    1  A    between atoms: C_1  and  C_2
REMARK    2  A    between atoms: C_7  and  C_8
REMARK    3  A    between atoms: C_15  and  N_16
REMARK    4  A    between atoms: N_16  and  C_17
REMARK                            x       y       z     vdW  Elec       q    Type
REMARK                         _______ _______ _______ _____ _____    ______ ____
ROOT
ATOM      1  C   UNL     1       0.110   8.995  21.790  0.00  0.00    +0.000 C 
ATOM      2  C   UNL     1       0.937   8.617  20.598  0.00  0.00    +0.000 A 
ATOM      3  N   UNL     1       1.605   7.431  20.631  0.00  0.00    +0.000 NA
ATOM      4  C   UNL     1       2.412   7.037  19.618  0.00  0.00    +0.000 A 
ATOM      5  C   UNL     1       3.097   5.822  19.690  0.00  0.00    +0.000 A 
ATOM      6  C   UNL     1       3.946   5.438  18.649  0.00  0.00    +0.000 A 
ATOM      7  C   UNL     1       4.110   6.262  17.517  0.00  0.00    +0.000 A 
ATOM      8  C   UNL     1       3.405   7.478  17.445  0.00  0.00    +0.000 A 
ATOM      9  C   UNL     1       2.568   7.870  18.498  0.00  0.00    +0.000 A 
ATOM     10  N   UNL     1       1.909   9.057  18.460  0.00  0.00    +0.000 NA
ATOM     11  C   UNL     1       1.095   9.466  19.475  0.00  0.00    +0.000 A 
ENDROOT
BRANCH   7  12
ATOM     12  C   UNL     1       5.039   5.874  16.395  0.00  0.00    +0.000 C 
ATOM     13  F   UNL     1       6.360   5.847  16.811  0.00  0.00    +0.000 F 
ATOM     14  F   UNL     1       4.700   4.623  15.917  0.00  0.00    +0.000 F 
ATOM     15  F   UNL     1       4.925   6.797  15.370  0.00  0.00    +0.000 F 
ENDBRANCH   7  12
BRANCH  11  16
ATOM     16  N   UNL     1       0.386  10.697  19.362  0.00  0.00    +0.000 N 
ATOM     17  H   UNL     1       0.836  11.560  19.700  0.00  0.00    +0.000 HD
BRANCH  16  18
ATOM     18  C   UNL     1      -0.949  10.807  18.857  0.00  0.00    +0.000 A 
ATOM     19  C   UNL     1      -1.354  10.118  17.698  0.00  0.00    +0.000 A 
ATOM     20  C   UNL     1      -2.642  10.286  17.184  0.00  0.00    +0.000 A 
ATOM     21  C   UNL     1      -3.556  11.125  17.826  0.00  0.00    +0.000 A 
ATOM     22 CL   UNL     1      -5.165  11.312  17.142  0.00  0.00    +0.000 Cl
ATOM     23  C   UNL     1      -3.171  11.810  18.991  0.00  0.00    +0.000 A 
ATOM     24 CL   UNL     1      -4.299  12.864  19.835  0.00  0.00    +0.000 Cl
ATOM     25  C   UNL     1      -1.870  11.661  19.492  0.00  0.00    +0.000 A 
ENDBRANCH  16  18
ENDBRANCH  11  16
TORSDOF 3
ENDMDL
MODEL 6
REMARK VINA RESULT:      -7.9      0.661      1.671
REMARK  Name = 
REMARK  4 active torsions:
REMARK  status: ('A' for Active; 'I' for Inactive)
REMARK    1  A    between atoms: C_1  and  C_2
REMARK    2  A    between atoms: C_7  and  C_8
REMARK    3  A    between atoms: C_15  and  N_16
REMARK    4  A    between atoms: N_16  and  C_17
REMARK                            x       y       z     vdW  Elec       q    Type
REMARK                         _______ _______ _______ _____ _____    ______ ____
ROOT
ATOM      1  C   UNL     1       7.799   6.911  17.731  0.00  0.00    +0.000 C 
ATOM      2  C   UNL     1       6.993   6.124  16.741  0.00  0.00    +0.000 A 
ATOM      3  N   UNL     1       7.588   5.767  15.569  0.00  0.00    +0.000 NA
ATOM      4  C   UNL     1       6.916   5.099  14.602  0.00  0.00    +0.000 A 
ATOM      5  C   UNL     1       7.550   4.762  13.404  0.00  0.00    +0.000 A 
ATOM      6  C   UNL     1       6.840   4.094  12.404  0.00  0.00    +0.000 A 
ATOM      7  C   UNL     1       5.488   3.746  12.596  0.00  0.00    +0.000 A 
ATOM      8  C   UNL     1       4.861   4.075  13.812  0.00  0.00    +0.000 A 
ATOM      9  C   UNL     1       5.569   4.761  14.807  0.00  0.00    +0.000 A 
ATOM     10  N   UNL     1       4.967   5.118  15.971  0.00  0.00    +0.000 NA
ATOM     11  C   UNL     1       5.632   5.793  16.952  0.00  0.00    +0.000 A 
ENDROOT
BRANCH   7  12
ATOM     12  C   UNL     1       4.699   3.045  11.519  0.00  0.00    +0.000 C 
ATOM     13  F   UNL     1       5.288   1.846  11.154  0.00  0.00    +0.000 F 
ATOM     14  F   UNL     1       3.418   2.789  11.969  0.00  0.00    +0.000 F 
ATOM     15  F   UNL     1       4.634   3.856  10.401  0.00  0.00    +0.000 F 
ENDBRANCH   7  12
BRANCH  11  16
ATOM     16  N   UNL     1       4.969   6.099  18.176  0.00  0.00    +0.000 N 
ATOM     17  H   UNL     1       5.029   7.059  18.545  0.00  0.00    +0.000 HD
BRANCH  16  18
ATOM     18  C   UNL     1       4.266   5.134  18.966  0.00  0.00    +0.000 A 
ATOM     19  C   UNL     1       4.864   3.916  19.341  0.00  0.00    +0.000 A 
ATOM     20  C   UNL     1       4.142   2.959  20.058  0.00  0.00    +0.000 A 
ATOM     21  C   UNL     1       2.820   3.207  20.433  0.00  0.00    +0.000 A 
ATOM     22 CL   UNL     1       1.946   1.972  21.331  0.00  0.00    +0.000 Cl
ATOM     23  C   UNL     1       2.212   4.423  20.078  0.00  0.00    +0.000 A 
ATOM     24 CL   UNL     1       0.553   4.776  20.546  0.00  0.00    +0.000 Cl
ATOM     25  C   UNL     1       2.929   5.371  19.336  0.00  0.00    +0.000 A 
ENDBRANCH  16  18
ENDBRANCH  11  16
TORSDOF 3
ENDMDL
MODEL 7
REMARK VINA RESULT:      -7.9      2.209      2.827
REMARK  Name = 
REMARK  4 active torsions:
REMARK  status: ('A' for Active; 'I' for Inactive)
REMARK    1  A    between atoms: C_1  and  C_2
REMARK    2  A    between atoms: C_7  and  C_8
REMARK    3  A    between atoms: C_15  and  N_16
REMARK    4  A    between atoms: N_16  and  C_17
REMARK                            x       y       z     vdW  Elec       q    Type
REMARK                         _______ _______ _______ _____ _____    ______ ____
ROOT
ATOM      1  C   UNL     1       7.483   6.564  18.004  0.00  0.00    +0.000 C 
ATOM      2  C   UNL     1       6.754   5.810  16.932  0.00  0.00    +0.000 A 
ATOM      3  N   UNL     1       7.405   5.571  15.760  0.00  0.00    +0.000 NA
ATOM      4  C   UNL     1       6.802   4.941  14.724  0.00  0.00    +0.000 A 
ATOM      5  C   UNL     1       7.492   4.726  13.529  0.00  0.00    +0.000 A 
ATOM      6  C   UNL     1       6.852   4.097  12.459  0.00  0.00    +0.000 A 
ATOM      7  C   UNL     1       5.515   3.665  12.576  0.00  0.00    +0.000 A 
ATOM      8  C   UNL     1       4.832   3.872  13.790  0.00  0.00    +0.000 A 
ATOM      9  C   UNL     1       5.470   4.520  14.856  0.00  0.00    +0.000 A 
ATOM     10  N   UNL     1       4.812   4.759  16.020  0.00  0.00    +0.000 NA
ATOM     11  C   UNL     1       5.407   5.395  17.070  0.00  0.00    +0.000 A 
ENDROOT
BRANCH   7  12
ATOM     12  C   UNL     1       4.801   3.005  11.425  0.00  0.00    +0.000 C 
ATOM     13  F   UNL     1       3.486   2.707  11.743  0.00  0.00    +0.000 F 
ATOM     14  F   UNL     1       4.811   3.842  10.326  0.00  0.00    +0.000 F 
ATOM     15  F   UNL     1       5.448   1.826  11.103  0.00  0.00    +0.000 F 
ENDBRANCH   7  12
BRANCH  11  16
ATOM     16  N   UNL     1       4.689   5.575  18.287  0.00  0.00    +0.000 N 
ATOM     17  H   UNL     1       4.872   4.931  19.070  0.00  0.00    +0.000 HD
BRANCH  16  18
ATOM     18  C   UNL     1       3.676   6.569  18.478  0.00  0.00    +0.000 A 
ATOM     19  C   UNL     1       3.455   7.583  17.526  0.00  0.00    +0.000 A 
ATOM     20  C   UNL     1       2.505   8.581  17.758  0.00  0.00    +0.000 A 
ATOM     21  C   UNL     1       1.746   8.576  18.930  0.00  0.00    +0.000 A 
ATOM     22 CL   UNL     1       0.565   9.855  19.183  0.00  0.00    +0.000 Cl
ATOM     23  C   UNL     1       1.946   7.565  19.884  0.00  0.00    +0.000 A 
ATOM     24 CL   UNL     1       0.997   7.517  21.365  0.00  0.00    +0.000 Cl
ATOM     25  C   UNL     1       2.917   6.578  19.663  0.00  0.00    +0.000 A 
ENDBRANCH  16  18
ENDBRANCH  11  16
TORSDOF 3
ENDMDL
MODEL 8
REMARK VINA RESULT:      -7.8      5.762      7.854
REMARK  Name = 
REMARK  4 active torsions:
REMARK  status: ('A' for Active; 'I' for Inactive)
REMARK    1  A    between atoms: C_1  and  C_2
REMARK    2  A    between atoms: C_7  and  C_8
REMARK    3  A    between atoms: C_15  and  N_16
REMARK    4  A    between atoms: N_16  and  C_17
REMARK                            x       y       z     vdW  Elec       q    Type
REMARK                         _______ _______ _______ _____ _____    ______ ____
ROOT
ATOM      1  C   UNL     1       0.109   9.446  22.036  0.00  0.00    +0.000 C 
ATOM      2  C   UNL     1       0.839   8.756  20.922  0.00  0.00    +0.000 A 
ATOM      3  N   UNL     1       1.321   7.503  21.151  0.00  0.00    +0.000 NA
ATOM      4  C   UNL     1       2.033   6.830  20.216  0.00  0.00    +0.000 A 
ATOM      5  C   UNL     1       2.527   5.553  20.488  0.00  0.00    +0.000 A 
ATOM      6  C   UNL     1       3.282   4.879  19.525  0.00  0.00    +0.000 A 
ATOM      7  C   UNL     1       3.541   5.472  18.273  0.00  0.00    +0.000 A 
ATOM      8  C   UNL     1       3.027   6.754  18.002  0.00  0.00    +0.000 A 
ATOM      9  C   UNL     1       2.286   7.436  18.975  0.00  0.00    +0.000 A 
ATOM     10  N   UNL     1       1.813   8.688  18.742  0.00  0.00    +0.000 NA
ATOM     11  C   UNL     1       1.097   9.377  19.675  0.00  0.00    +0.000 A 
ENDROOT
BRANCH   7  12
ATOM     12  C   UNL     1       4.372   4.769  17.230  0.00  0.00    +0.000 C 
ATOM     13  F   UNL     1       4.871   5.658  16.292  0.00  0.00    +0.000 F 
ATOM     14  F   UNL     1       5.433   4.123  17.834  0.00  0.00    +0.000 F 
ATOM     15  F   UNL     1       3.588   3.838  16.573  0.00  0.00    +0.000 F 
ENDBRANCH   7  12
BRANCH  11  16
ATOM     16  N   UNL     1       0.580  10.667  19.361  0.00  0.00    +0.000 N 
ATOM     17  H   UNL     1       1.165  11.494  19.550  0.00  0.00    +0.000 HD
BRANCH  16  18
ATOM     18  C   UNL     1      -0.737  10.897  18.848  0.00  0.00    +0.000 A 
ATOM     19  C   UNL     1      -1.641  11.755  19.505  0.00  0.00    +0.000 A 
ATOM     20  C   UNL     1      -2.943  11.918  19.025  0.00  0.00    +0.000 A 
ATOM     21  C   UNL     1      -3.361  11.248  17.873  0.00  0.00    +0.000 A 
ATOM     22 CL   UNL     1      -5.010  11.479  17.307  0.00  0.00    +0.000 Cl
ATOM     23  C   UNL     1      -2.468  10.399  17.199  0.00  0.00    +0.000 A 
ATOM     24 CL   UNL     1      -2.955   9.550  15.737  0.00  0.00    +0.000 Cl
ATOM     25  C   UNL     1      -1.169  10.215  17.696  0.00  0.00    +0.000 A 
ENDBRANCH  16  18
ENDBRANCH  11  16
TORSDOF 3
ENDMDL
MODEL 9
REMARK VINA RESULT:      -7.8      1.318      1.706
REMARK  Name = 
REMARK  4 active torsions:
REMARK  status: ('A' for Active; 'I' for Inactive)
REMARK    1  A    between atoms: C_1  and  C_2
REMARK    2  A    between atoms: C_7  and  C_8
REMARK    3  A    between atoms: C_15  and  N_16
REMARK    4  A    between atoms: N_16  and  C_17
REMARK                            x       y       z     vdW  Elec       q    Type
REMARK                         _______ _______ _______ _____ _____    ______ ____
ROOT
ATOM      1  C   UNL     1       7.643   6.619  17.672  0.00  0.00    +0.000 C 
ATOM      2  C   UNL     1       7.190   5.605  16.664  0.00  0.00    +0.000 A 
ATOM      3  N   UNL     1       7.576   5.770  15.369  0.00  0.00    +0.000 NA
ATOM      4  C   UNL     1       7.169   4.928  14.389  0.00  0.00    +0.000 A 
ATOM      5  C   UNL     1       7.569   5.136  13.068  0.00  0.00    +0.000 A 
ATOM      6  C   UNL     1       7.124   4.274  12.062  0.00  0.00    +0.000 A 
ATOM      7  C   UNL     1       6.281   3.188  12.370  0.00  0.00    +0.000 A 
ATOM      8  C   UNL     1       5.894   2.977  13.708  0.00  0.00    +0.000 A 
ATOM      9  C   UNL     1       6.327   3.852  14.712  0.00  0.00    +0.000 A 
ATOM     10  N   UNL     1       5.934   3.683  16.001  0.00  0.00    +0.000 NA
ATOM     11  C   UNL     1       6.334   4.525  16.996  0.00  0.00    +0.000 A 
ENDROOT
BRANCH   7  12
ATOM     12  C   UNL     1       5.772   2.261  11.296  0.00  0.00    +0.000 C 
ATOM     13  F   UNL     1       5.511   0.996  11.794  0.00  0.00    +0.000 F 
ATOM     14  F   UNL     1       4.608   2.770  10.752  0.00  0.00    +0.000 F 
ATOM     15  F   UNL     1       6.726   2.149  10.301  0.00  0.00    +0.000 F 
ENDBRANCH   7  12
BRANCH  11  16
ATOM     16  N   UNL     1       5.934   4.274  18.341  0.00  0.00    +0.000 N 
ATOM     17  H   UNL     1       6.559   3.724  18.948  0.00  0.00    +0.000 HD
BRANCH  16  18
ATOM     18  C   UNL     1       4.681   4.690  18.893  0.00  0.00    +0.000 A 
ATOM     19  C   UNL     1       4.142   5.961  18.614  0.00  0.00    +0.000 A 
ATOM     20  C   UNL     1       2.949   6.374  19.212  0.00  0.00    +0.000 A 
ATOM     21  C   UNL     1       2.261   5.524  20.080  0.00  0.00    +0.000 A 
ATOM     22 CL   UNL     1       0.765   6.087  20.814  0.00  0.00    +0.000 Cl
ATOM     23  C   UNL     1       2.779   4.248  20.359  0.00  0.00    +0.000 A 
ATOM     24 CL   UNL     1       1.933   3.144  21.436  0.00  0.00    +0.000 Cl
ATOM     25  C   UNL     1       3.990   3.843  19.779  0.00  0.00    +0.000 A 
ENDBRANCH  16  18
ENDBRANCH  11  16
TORSDOF 3
ENDMDL
