MODEL 1
REMARK VINA RESULT:      -7.8      0.000      0.000
REMARK  Name = 
REMARK  4 active torsions:
REMARK  status: ('A' for Active; 'I' for Inactive)
REMARK    1  A    between atoms: C_1  and  C_2
REMARK    2  A    between atoms: C_5  and  N_6
REMARK    3  A    between atoms: C_8  and  N_9
REMARK    4  A    between atoms: C_10  and  C_12
REMARK                            x       y       z     vdW  Elec       q    Type
REMARK                         _______ _______ _______ _____ _____    ______ ____
ROOT
ATOM      1  N   UNL     1      -0.144  11.287  20.148  0.00  0.00    +0.000 N 
ATOM      2  C   UNL     1      -0.450  10.513  18.961  0.00  0.00    +0.000 C 
ATOM      3  C   UNL     1       0.924  10.198  18.364  0.00  0.00    +0.000 C 
ATOM      4  C   UNL     1       1.713  11.447  18.705  0.00  0.00    +0.000 C 
ATOM      5  C   UNL     1       1.148  11.829  20.053  0.00  0.00    +0.000 C 
ATOM      6  O   UNL     1       1.765  12.515  20.852  0.00  0.00    +0.000 OA
ENDROOT
BRANCH   1  11
ATOM      7  C   UNL     1      -4.010  12.644  24.197  0.00  0.00    +0.000 C 
ATOM      8  C   UNL     1      -3.008  12.270  23.146  0.00  0.00    +0.000 A 
ATOM      9  C   UNL     1      -1.930  11.438  23.441  0.00  0.00    +0.000 A 
ATOM     10  C   UNL     1      -1.002  11.095  22.448  0.00  0.00    +0.000 A 
ATOM     11  C   UNL     1      -1.117  11.583  21.142  0.00  0.00    +0.000 A 
ATOM     12  C   UNL     1      -2.215  12.408  20.856  0.00  0.00    +0.000 A 
ATOM     13  C   UNL     1      -3.153  12.742  21.841  0.00  0.00    +0.000 A 
ENDBRANCH   1  11
BRANCH   3  14
ATOM     14  N   UNL     1       1.514   8.979  18.942  0.00  0.00    +0.000 N 
ATOM     15  C   UNL     1       2.363   8.241  18.138  0.00  0.00    +0.000 C 
ATOM     16  O   UNL     1       2.743   8.645  17.050  0.00  0.00    +0.000 OA
ATOM     17  H   UNL     1       1.030   8.507  19.698  0.00  0.00    +0.000 HD
BRANCH  15  18
ATOM     18  C   UNL     1       2.758   6.885  18.589  0.00  0.00    +0.000 A 
ATOM     19  C   UNL     1       3.415   5.953  17.763  0.00  0.00    +0.000 A 
ATOM     20  C   UNL     1       3.562   4.622  18.184  0.00  0.00    +0.000 A 
ATOM     21  C   UNL     1       3.037   4.273  19.416  0.00  0.00    +0.000 A 
ATOM     22  C   UNL     1       2.455   5.204  20.241  0.00  0.00    +0.000 A 
ATOM     23  C   UNL     1       2.306   6.517  19.867  0.00  0.00    +0.000 A 
ATOM     24  O   UNL     1       1.982   4.657  21.395  0.00  0.00    +0.000 OA
ATOM     25  C   UNL     1       2.039   3.266  21.032  0.00  0.00    +0.000 C 
ATOM     26  O   UNL     1       2.955   3.019  19.939  0.00  0.00    +0.000 OA
ENDBRANCH  15  18
ENDBRANCH   3  14
TORSDOF 3
ENDMDL
MODEL 2
REMARK VINA RESULT:      -7.8      0.312      1.008
REMARK  Name = 
REMARK  4 active torsions:
REMARK  status: ('A' for Active; 'I' for Inactive)
REMARK    1  A    between atoms: C_1  and  C_2
REMARK    2  A    between atoms: C_5  and  N_6
REMARK    3  A    between atoms: C_8  and  N_9
REMARK    4  A    between atoms: C_10  and  C_12
REMARK                            x       y       z     vdW  Elec       q    Type
REMARK                         _______ _______ _______ _____ _____    ______ ____
ROOT
ATOM      1  N   UNL     1      -0.083  11.222  20.040  0.00  0.00    +0.000 N 
ATOM      2  C   UNL     1      -0.425  10.311  18.966  0.00  0.00    +0.000 C 
ATOM      3  C   UNL     1       0.923   9.987  18.317  0.00  0.00    +0.000 C 
ATOM      4  C   UNL     1       1.672  11.297  18.469  0.00  0.00    +0.000 C 
ATOM      5  C   UNL     1       1.174  11.802  19.803  0.00  0.00    +0.000 C 
ATOM      6  O   UNL     1       1.806  12.595  20.481  0.00  0.00    +0.000 OA
ENDROOT
BRANCH   1  11
ATOM      7  C   UNL     1      -3.899  12.542  24.149  0.00  0.00    +0.000 C 
ATOM      8  C   UNL     1      -2.902  12.219  23.078  0.00  0.00    +0.000 A 
ATOM      9  C   UNL     1      -3.034  12.734  21.789  0.00  0.00    +0.000 A 
ATOM     10  C   UNL     1      -2.094  12.425  20.797  0.00  0.00    +0.000 A 
ATOM     11  C   UNL     1      -1.005  11.586  21.059  0.00  0.00    +0.000 A 
ATOM     12  C   UNL     1      -0.876  11.086  22.364  0.00  0.00    +0.000 A 
ATOM     13  C   UNL     1      -1.806  11.403  23.363  0.00  0.00    +0.000 A 
ENDBRANCH   1  11
BRANCH   3  14
ATOM     14  N   UNL     1       1.605   8.864  18.980  0.00  0.00    +0.000 N 
ATOM     15  C   UNL     1       2.443   8.083  18.208  0.00  0.00    +0.000 C 
ATOM     16  O   UNL     1       2.742   8.385  17.063  0.00  0.00    +0.000 OA
ATOM     17  H   UNL     1       1.187   8.454  19.810  0.00  0.00    +0.000 HD
BRANCH  15  18
ATOM     18  C   UNL     1       2.930   6.801  18.772  0.00  0.00    +0.000 A 
ATOM     19  C   UNL     1       3.911   6.003  18.153  0.00  0.00    +0.000 A 
ATOM     20  C   UNL     1       4.164   4.706  18.628  0.00  0.00    +0.000 A 
ATOM     21  C   UNL     1       3.417   4.254  19.701  0.00  0.00    +0.000 A 
ATOM     22  C   UNL     1       2.508   5.063  20.337  0.00  0.00    +0.000 A 
ATOM     23  C   UNL     1       2.245   6.341  19.909  0.00  0.00    +0.000 A 
ATOM     24  O   UNL     1       1.862   4.426  21.353  0.00  0.00    +0.000 OA
ATOM     25  C   UNL     1       2.230   3.070  21.046  0.00  0.00    +0.000 C 
ATOM     26  O   UNL     1       3.413   2.995  20.216  0.00  0.00    +0.000 OA
ENDBRANCH  15  18
ENDBRANCH   3  14
TORSDOF 3
ENDMDL
MODEL 3
REMARK VINA RESULT:      -7.6      0.838      1.825
REMARK  Name = 
REMARK  4 active torsions:
REMARK  status: ('A' for Active; 'I' for Inactive)
REMARK    1  A    between atoms: C_1  and  C_2
REMARK    2  A    between atoms: C_5  and  N_6
REMARK    3  A    between atoms: C_8  and  N_9
REMARK    4  A    between atoms: C_10  and  C_12
REMARK                            x       y       z     vdW  Elec       q    Type
REMARK                         _______ _______ _______ _____ _____    ______ ____
ROOT
ATOM      1  N   UNL     1      -0.328  11.637  20.300  0.00  0.00    +0.000 N 
ATOM      2  C   UNL     1      -0.589  10.913  19.071  0.00  0.00    +0.000 C 
ATOM      3  C   UNL     1       0.804  10.520  18.575  0.00  0.00    +0.000 C 
ATOM      4  C   UNL     1       1.644  11.705  19.011  0.00  0.00    +0.000 C 
ATOM      5  C   UNL     1       1.001  12.093  20.322  0.00  0.00    +0.000 C 
ATOM      6  O   UNL     1       1.595  12.717  21.185  0.00  0.00    +0.000 OA
ENDROOT
BRANCH   1  11
ATOM      7  C   UNL     1      -4.560  12.847  24.017  0.00  0.00    +0.000 C 
ATOM      8  C   UNL     1      -3.455  12.553  23.047  0.00  0.00    +0.000 A 
ATOM      9  C   UNL     1      -3.489  13.044  21.743  0.00  0.00    +0.000 A 
ATOM     10  C   UNL     1      -2.449  12.762  20.848  0.00  0.00    +0.000 A 
ATOM     11  C   UNL     1      -1.355  11.975  21.223  0.00  0.00    +0.000 A 
ATOM     12  C   UNL     1      -1.326  11.499  22.544  0.00  0.00    +0.000 A 
ATOM     13  C   UNL     1      -2.357  11.790  23.446  0.00  0.00    +0.000 A 
ENDBRANCH   1  11
BRANCH   3  14
ATOM     14  N   UNL     1       1.266   9.251  19.162  0.00  0.00    +0.000 N 
ATOM     15  C   UNL     1       2.048   8.431  18.370  0.00  0.00    +0.000 C 
ATOM     16  O   UNL     1       2.479   8.792  17.286  0.00  0.00    +0.000 OA
ATOM     17  H   UNL     1       0.729   8.830  19.913  0.00  0.00    +0.000 HD
BRANCH  15  18
ATOM     18  C   UNL     1       2.303   7.045  18.828  0.00  0.00    +0.000 A 
ATOM     19  C   UNL     1       1.903   6.556  20.086  0.00  0.00    +0.000 A 
ATOM     20  C   UNL     1       2.366   5.309  20.536  0.00  0.00    +0.000 A 
ATOM     21  C   UNL     1       3.220   4.602  19.710  0.00  0.00    +0.000 A 
ATOM     22  C   UNL     1       3.553   5.058  18.458  0.00  0.00    +0.000 A 
ATOM     23  C   UNL     1       3.108   6.266  17.981  0.00  0.00    +0.000 A 
ATOM     24  O   UNL     1       4.421   4.229  17.813  0.00  0.00    +0.000 OA
ATOM     25  C   UNL     1       4.831   3.414  18.925  0.00  0.00    +0.000 C 
ATOM     26  O   UNL     1       3.881   3.452  20.016  0.00  0.00    +0.000 OA
ENDBRANCH  15  18
ENDBRANCH   3  14
TORSDOF 3
ENDMDL
MODEL 4
REMARK VINA RESULT:      -7.5      3.468      9.551
REMARK  Name = 
REMARK  4 active torsions:
REMARK  status: ('A' for Active; 'I' for Inactive)
REMARK    1  A    between atoms: C_1  and  C_2
REMARK    2  A    between atoms: C_5  and  N_6
REMARK    3  A    between atoms: C_8  and  N_9
REMARK    4  A    between atoms: C_10  and  C_12
REMARK                            x       y       z     vdW  Elec       q    Type
REMARK                         _______ _______ _______ _____ _____    ______ ____
ROOT
ATOM      1  N   UNL     1       5.054   4.305  17.072  0.00  0.00    +0.000 N 
ATOM      2  C   UNL     1       3.641   4.055  17.274  0.00  0.00    +0.000 C 
ATOM      3  C   UNL     1       3.430   4.323  18.766  0.00  0.00    +0.000 C 
ATOM      4  C   UNL     1       4.740   3.846  19.363  0.00  0.00    +0.000 C 
ATOM      5  C   UNL     1       5.740   4.227  18.296  0.00  0.00    +0.000 C 
ATOM      6  O   UNL     1       6.924   4.394  18.536  0.00  0.00    +0.000 OA
ENDROOT
BRANCH   1  11
ATOM      7  C   UNL     1       7.486   4.579  11.857  0.00  0.00    +0.000 C 
ATOM      8  C   UNL     1       6.852   4.529  13.214  0.00  0.00    +0.000 A 
ATOM      9  C   UNL     1       7.417   5.195  14.300  0.00  0.00    +0.000 A 
ATOM     10  C   UNL     1       6.812   5.141  15.563  0.00  0.00    +0.000 A 
ATOM     11  C   UNL     1       5.637   4.412  15.780  0.00  0.00    +0.000 A 
ATOM     12  C   UNL     1       5.071   3.758  14.674  0.00  0.00    +0.000 A 
ATOM     13  C   UNL     1       5.664   3.821  13.407  0.00  0.00    +0.000 A 
ENDBRANCH   1  11
BRANCH   3  14
ATOM     14  N   UNL     1       3.165   5.744  19.043  0.00  0.00    +0.000 N 
ATOM     15  C   UNL     1       2.326   6.040  20.102  0.00  0.00    +0.000 C 
ATOM     16  O   UNL     1       1.937   5.184  20.882  0.00  0.00    +0.000 OA
ATOM     17  H   UNL     1       3.251   6.419  18.290  0.00  0.00    +0.000 HD
BRANCH  15  18
ATOM     18  C   UNL     1       1.831   7.430  20.241  0.00  0.00    +0.000 A 
ATOM     19  C   UNL     1       1.178   7.910  21.393  0.00  0.00    +0.000 A 
ATOM     20  C   UNL     1       0.546   9.164  21.371  0.00  0.00    +0.000 A 
ATOM     21  C   UNL     1       0.586   9.887  20.193  0.00  0.00    +0.000 A 
ATOM     22  C   UNL     1       1.279   9.438  19.096  0.00  0.00    +0.000 A 
ATOM     23  C   UNL     1       1.920   8.223  19.085  0.00  0.00    +0.000 A 
ATOM     24  O   UNL     1       1.177  10.281  18.031  0.00  0.00    +0.000 OA
ATOM     25  C   UNL     1       0.089  11.102  18.490  0.00  0.00    +0.000 C 
ATOM     26  O   UNL     1      -0.074  11.047  19.927  0.00  0.00    +0.000 OA
ENDBRANCH  15  18
ENDBRANCH   3  14
TORSDOF 3
ENDMDL
MODEL 5
REMARK VINA RESULT:      -7.4      3.220      9.404
REMARK  Name = 
REMARK  4 active torsions:
REMARK  status: ('A' for Active; 'I' for Inactive)
REMARK    1  A    between atoms: C_1  and  C_2
REMARK    2  A    between atoms: C_5  and  N_6
REMARK    3  A    between atoms: C_8  and  N_9
REMARK    4  A    between atoms: C_10  and  C_12
REMARK                            x       y       z     vdW  Elec       q    Type
REMARK                         _______ _______ _______ _____ _____    ______ ____
ROOT
ATOM      1  N   UNL     1       4.743   4.508  17.414  0.00  0.00    +0.000 N 
ATOM      2  C   UNL     1       3.295   4.451  17.401  0.00  0.00    +0.000 C 
ATOM      3  C   UNL     1       2.905   4.681  18.862  0.00  0.00    +0.000 C 
ATOM      4  C   UNL     1       4.039   4.001  19.605  0.00  0.00    +0.000 C 
ATOM      5  C   UNL     1       5.225   4.283  18.714  0.00  0.00    +0.000 C 
ATOM      6  O   UNL     1       6.373   4.272  19.127  0.00  0.00    +0.000 OA
ENDROOT
BRANCH   1  11
ATOM      7  C   UNL     1       7.809   4.988  12.560  0.00  0.00    +0.000 C 
ATOM      8  C   UNL     1       7.014   4.842  13.823  0.00  0.00    +0.000 A 
ATOM      9  C   UNL     1       5.882   4.031  13.874  0.00  0.00    +0.000 A 
ATOM     10  C   UNL     1       5.150   3.903  15.062  0.00  0.00    +0.000 A 
ATOM     11  C   UNL     1       5.518   4.588  16.224  0.00  0.00    +0.000 A 
ATOM     12  C   UNL     1       6.668   5.390  16.163  0.00  0.00    +0.000 A 
ATOM     13  C   UNL     1       7.412   5.510  14.982  0.00  0.00    +0.000 A 
ENDBRANCH   1  11
BRANCH   3  14
ATOM     14  N   UNL     1       2.792   6.112  19.189  0.00  0.00    +0.000 N 
ATOM     15  C   UNL     1       1.961   6.462  20.236  0.00  0.00    +0.000 C 
ATOM     16  O   UNL     1       1.454   5.629  20.971  0.00  0.00    +0.000 OA
ATOM     17  H   UNL     1       2.976   6.800  18.465  0.00  0.00    +0.000 HD
BRANCH  15  18
ATOM     18  C   UNL     1       1.620   7.894  20.416  0.00  0.00    +0.000 A 
ATOM     19  C   UNL     1       1.187   8.441  21.640  0.00  0.00    +0.000 A 
ATOM     20  C   UNL     1       0.677   9.748  21.684  0.00  0.00    +0.000 A 
ATOM     21  C   UNL     1       0.612  10.456  20.497  0.00  0.00    +0.000 A 
ATOM     22  C   UNL     1       1.095   9.937  19.321  0.00  0.00    +0.000 A 
ATOM     23  C   UNL     1       1.613   8.667  19.244  0.00  0.00    +0.000 A 
ATOM     24  O   UNL     1       0.917  10.779  18.265  0.00  0.00    +0.000 OA
ATOM     25  C   UNL     1      -0.013  11.701  18.859  0.00  0.00    +0.000 C 
ATOM     26  O   UNL     1       0.029  11.671  20.306  0.00  0.00    +0.000 OA
ENDBRANCH  15  18
ENDBRANCH   3  14
TORSDOF 3
ENDMDL
MODEL 6
REMARK VINA RESULT:      -7.4      3.612      9.595
REMARK  Name = 
REMARK  4 active torsions:
REMARK  status: ('A' for Active; 'I' for Inactive)
REMARK    1  A    between atoms: C_1  and  C_2
REMARK    2  A    between atoms: C_5  and  N_6
REMARK    3  A    between atoms: C_8  and  N_9
REMARK    4  A    between atoms: C_10  and  C_12
REMARK                            x       y       z     vdW  Elec       q    Type
REMARK                         _______ _______ _______ _____ _____    ______ ____
ROOT
ATOM      1  N   UNL     1       5.554   4.596  17.022  0.00  0.00    +0.000 N 
ATOM      2  C   UNL     1       4.225   4.218  17.461  0.00  0.00    +0.000 C 
ATOM      3  C   UNL     1       4.121   4.814  18.867  0.00  0.00    +0.000 C 
ATOM      4  C   UNL     1       5.542   4.677  19.378  0.00  0.00    +0.000 C 
ATOM      5  C   UNL     1       6.359   4.913  18.129  0.00  0.00    +0.000 C 
ATOM      6  O   UNL     1       7.519   5.289  18.165  0.00  0.00    +0.000 OA
ENDROOT
BRANCH   1  11
ATOM      7  C   UNL     1       7.226   4.200  11.523  0.00  0.00    +0.000 C 
ATOM      8  C   UNL     1       6.792   4.282  12.956  0.00  0.00    +0.000 A 
ATOM      9  C   UNL     1       5.652   3.617  13.404  0.00  0.00    +0.000 A 
ATOM     10  C   UNL     1       5.259   3.701  14.747  0.00  0.00    +0.000 A 
ATOM     11  C   UNL     1       5.983   4.459  15.674  0.00  0.00    +0.000 A 
ATOM     12  C   UNL     1       7.137   5.112  15.212  0.00  0.00    +0.000 A 
ATOM     13  C   UNL     1       7.541   5.019  13.874  0.00  0.00    +0.000 A 
ENDBRANCH   1  11
BRANCH   3  14
ATOM     14  N   UNL     1       3.659   6.212  18.846  0.00  0.00    +0.000 N 
ATOM     15  C   UNL     1       2.544   6.525  19.600  0.00  0.00    +0.000 C 
ATOM     16  O   UNL     1       2.041   5.730  20.379  0.00  0.00    +0.000 OA
ATOM     17  H   UNL     1       3.880   6.793  18.043  0.00  0.00    +0.000 HD
BRANCH  15  18
ATOM     18  C   UNL     1       1.901   7.845  19.393  0.00  0.00    +0.000 A 
ATOM     19  C   UNL     1       1.961   8.556  18.180  0.00  0.00    +0.000 A 
ATOM     20  C   UNL     1       1.519   9.888  18.123  0.00  0.00    +0.000 A 
ATOM     21  C   UNL     1       1.040  10.459  19.288  0.00  0.00    +0.000 A 
ATOM     22  C   UNL     1       0.926   9.737  20.451  0.00  0.00    +0.000 A 
ATOM     23  C   UNL     1       1.336   8.429  20.539  0.00  0.00    +0.000 A 
ATOM     24  O   UNL     1       0.456  10.485  21.487  0.00  0.00    +0.000 OA
ATOM     25  C   UNL     1       0.617  11.795  20.918  0.00  0.00    +0.000 C 
ATOM     26  O   UNL     1       0.697  11.763  19.473  0.00  0.00    +0.000 OA
ENDBRANCH  15  18
ENDBRANCH   3  14
TORSDOF 3
ENDMDL
MODEL 7
REMARK VINA RESULT:      -7.3      3.802      9.684
REMARK  Name = 
REMARK  4 active torsions:
REMARK  status: ('A' for Active; 'I' for Inactive)
REMARK    1  A    between atoms: C_1  and  C_2
REMARK    2  A    between atoms: C_5  and  N_6
REMARK    3  A    between atoms: C_8  and  N_9
REMARK    4  A    between atoms: C_10  and  C_12
REMARK                            x       y       z     vdW  Elec       q    Type
REMARK                         _______ _______ _______ _____ _____    ______ ____
ROOT
ATOM      1  N   UNL     1       5.741   4.606  16.737  0.00  0.00    +0.000 N 
ATOM      2  C   UNL     1       4.468   4.147  17.258  0.00  0.00    +0.000 C 
ATOM      3  C   UNL     1       4.414   4.738  18.669  0.00  0.00    +0.000 C 
ATOM      4  C   UNL     1       5.871   4.690  19.089  0.00  0.00    +0.000 C 
ATOM      5  C   UNL     1       6.592   4.974  17.793  0.00  0.00    +0.000 C 
ATOM      6  O   UNL     1       7.726   5.422  17.758  0.00  0.00    +0.000 OA
ENDROOT
BRANCH   1  11
ATOM      7  C   UNL     1       7.241   3.994  11.209  0.00  0.00    +0.000 C 
ATOM      8  C   UNL     1       6.849   4.174  12.645  0.00  0.00    +0.000 A 
ATOM      9  C   UNL     1       7.593   4.985  13.500  0.00  0.00    +0.000 A 
ATOM     10  C   UNL     1       7.215   5.146  14.840  0.00  0.00    +0.000 A 
ATOM     11  C   UNL     1       6.093   4.494  15.365  0.00  0.00    +0.000 A 
ATOM     12  C   UNL     1       5.345   3.692  14.489  0.00  0.00    +0.000 A 
ATOM     13  C   UNL     1       5.712   3.540  13.146  0.00  0.00    +0.000 A 
ENDBRANCH   1  11
BRANCH   3  14
ATOM     14  N   UNL     1       3.866   6.104  18.679  0.00  0.00    +0.000 N 
ATOM     15  C   UNL     1       2.782   6.348  19.501  0.00  0.00    +0.000 C 
ATOM     16  O   UNL     1       2.378   5.524  20.307  0.00  0.00    +0.000 OA
ATOM     17  H   UNL     1       4.002   6.697  17.866  0.00  0.00    +0.000 HD
BRANCH  15  18
ATOM     18  C   UNL     1       2.047   7.625  19.337  0.00  0.00    +0.000 A 
ATOM     19  C   UNL     1       2.018   8.356  18.134  0.00  0.00    +0.000 A 
ATOM     20  C   UNL     1       1.488   9.656  18.114  0.00  0.00    +0.000 A 
ATOM     21  C   UNL     1       1.014  10.178  19.303  0.00  0.00    +0.000 A 
ATOM     22  C   UNL     1       0.988   9.434  20.457  0.00  0.00    +0.000 A 
ATOM     23  C   UNL     1       1.486   8.155  20.511  0.00  0.00    +0.000 A 
ATOM     24  O   UNL     1       0.506  10.135  21.521  0.00  0.00    +0.000 OA
ATOM     25  C   UNL     1       0.561  11.461  20.968  0.00  0.00    +0.000 C 
ATOM     26  O   UNL     1       0.592  11.454  19.520  0.00  0.00    +0.000 OA
ENDBRANCH  15  18
ENDBRANCH   3  14
TORSDOF 3
ENDMDL
MODEL 8
REMARK VINA RESULT:      -7.3      2.149      2.820
REMARK  Name = 
REMARK  4 active torsions:
REMARK  status: ('A' for Active; 'I' for Inactive)
REMARK    1  A    between atoms: C_1  and  C_2
REMARK    2  A    between atoms: C_5  and  N_6
REMARK    3  A    between atoms: C_8  and  N_9
REMARK    4  A    between atoms: C_10  and  C_12
REMARK                            x       y       z     vdW  Elec       q    Type
REMARK                         _______ _______ _______ _____ _____    ______ ____
ROOT
ATOM      1  N   UNL     1      -0.557  10.543  18.772  0.00  0.00    +0.000 N 
ATOM      2  C   UNL     1       0.364  10.104  17.743  0.00  0.00    +0.000 C 
ATOM      3  C   UNL     1       1.641   9.763  18.514  0.00  0.00    +0.000 C 
ATOM      4  C   UNL     1       1.626  10.793  19.626  0.00  0.00    +0.000 C 
ATOM      5  C   UNL     1       0.151  10.927  19.924  0.00  0.00    +0.000 C 
ATOM      6  O   UNL     1      -0.268  11.332  20.996  0.00  0.00    +0.000 OA
ENDROOT
BRANCH   1  11
ATOM      7  C   UNL     1      -6.220  11.219  17.958  0.00  0.00    +0.000 C 
ATOM      8  C   UNL     1      -4.743  11.043  18.149  0.00  0.00    +0.000 A 
ATOM      9  C   UNL     1      -4.068   9.957  17.597  0.00  0.00    +0.000 A 
ATOM     10  C   UNL     1      -2.687   9.805  17.781  0.00  0.00    +0.000 A 
ATOM     11  C   UNL     1      -1.946  10.725  18.532  0.00  0.00    +0.000 A 
ATOM     12  C   UNL     1      -2.636  11.823  19.070  0.00  0.00    +0.000 A 
ATOM     13  C   UNL     1      -4.014  11.985  18.876  0.00  0.00    +0.000 A 
ENDBRANCH   1  11
BRANCH   3  14
ATOM     14  N   UNL     1       1.632   8.381  19.022  0.00  0.00    +0.000 N 
ATOM     15  C   UNL     1       2.529   7.492  18.461  0.00  0.00    +0.000 C 
ATOM     16  O   UNL     1       3.405   7.850  17.690  0.00  0.00    +0.000 OA
ATOM     17  H   UNL     1       0.782   8.014  19.440  0.00  0.00    +0.000 HD
BRANCH  15  18
ATOM     18  C   UNL     1       2.367   6.047  18.755  0.00  0.00    +0.000 A 
ATOM     19  C   UNL     1       1.902   5.110  17.813  0.00  0.00    +0.000 A 
ATOM     20  C   UNL     1       1.567   3.809  18.221  0.00  0.00    +0.000 A 
ATOM     21  C   UNL     1       1.705   3.498  19.561  0.00  0.00    +0.000 A 
ATOM     22  C   UNL     1       2.219   4.399  20.461  0.00  0.00    +0.000 A 
ATOM     23  C   UNL     1       2.569   5.676  20.094  0.00  0.00    +0.000 A 
ATOM     24  O   UNL     1       2.251   3.910  21.732  0.00  0.00    +0.000 OA
ATOM     25  C   UNL     1       1.402   2.762  21.559  0.00  0.00    +0.000 C 
ATOM     26  O   UNL     1       1.309   2.349  20.174  0.00  0.00    +0.000 OA
ENDBRANCH  15  18
ENDBRANCH   3  14
TORSDOF 3
ENDMDL
MODEL 9
REMARK VINA RESULT:      -7.2      4.091      7.131
REMARK  Name = 
REMARK  4 active torsions:
REMARK  status: ('A' for Active; 'I' for Inactive)
REMARK    1  A    between atoms: C_1  and  C_2
REMARK    2  A    between atoms: C_5  and  N_6
REMARK    3  A    between atoms: C_8  and  N_9
REMARK    4  A    between atoms: C_10  and  C_12
REMARK                            x       y       z     vdW  Elec       q    Type
REMARK                         _______ _______ _______ _____ _____    ______ ____
ROOT
ATOM      1  N   UNL     1       2.868   5.410  19.578  0.00  0.00    +0.000 N 
ATOM      2  C   UNL     1       4.294   5.211  19.744  0.00  0.00    +0.000 C 
ATOM      3  C   UNL     1       4.519   3.768  19.286  0.00  0.00    +0.000 C 
ATOM      4  C   UNL     1       3.241   3.088  19.738  0.00  0.00    +0.000 C 
ATOM      5  C   UNL     1       2.208   4.171  19.531  0.00  0.00    +0.000 C 
ATOM      6  O   UNL     1       1.022   3.926  19.384  0.00  0.00    +0.000 OA
ENDROOT
BRANCH   1  11
ATOM      7  C   UNL     1       0.558  10.677  19.912  0.00  0.00    +0.000 C 
ATOM      8  C   UNL     1       1.140   9.298  19.829  0.00  0.00    +0.000 A 
ATOM      9  C   UNL     1       1.082   8.424  20.913  0.00  0.00    +0.000 A 
ATOM     10  C   UNL     1       1.629   7.137  20.822  0.00  0.00    +0.000 A 
ATOM     11  C   UNL     1       2.259   6.692  19.654  0.00  0.00    +0.000 A 
ATOM     12  C   UNL     1       2.298   7.578  18.566  0.00  0.00    +0.000 A 
ATOM     13  C   UNL     1       1.740   8.860  18.648  0.00  0.00    +0.000 A 
ENDBRANCH   1  11
BRANCH   3  14
ATOM     14  N   UNL     1       4.729   3.673  17.832  0.00  0.00    +0.000 N 
ATOM     15  C   UNL     1       5.937   4.120  17.333  0.00  0.00    +0.000 C 
ATOM     16  O   UNL     1       6.864   4.439  18.061  0.00  0.00    +0.000 OA
ATOM     17  H   UNL     1       3.922   3.668  17.216  0.00  0.00    +0.000 HD
BRANCH  15  18
ATOM     18  C   UNL     1       6.076   4.285  15.866  0.00  0.00    +0.000 A 
ATOM     19  C   UNL     1       5.367   3.511  14.927  0.00  0.00    +0.000 A 
ATOM     20  C   UNL     1       5.708   3.572  13.566  0.00  0.00    +0.000 A 
ATOM     21  C   UNL     1       6.753   4.400  13.198  0.00  0.00    +0.000 A 
ATOM     22  C   UNL     1       7.395   5.199  14.113  0.00  0.00    +0.000 A 
ATOM     23  C   UNL     1       7.079   5.175  15.449  0.00  0.00    +0.000 A 
ATOM     24  O   UNL     1       8.407   5.921  13.557  0.00  0.00    +0.000 OA
ATOM     25  C   UNL     1       8.521   5.230  12.301  0.00  0.00    +0.000 C 
ATOM     26  O   UNL     1       7.320   4.495  11.965  0.00  0.00    +0.000 OA
ENDBRANCH  15  18
ENDBRANCH   3  14
TORSDOF 3
ENDMDL
