MODEL 1
REMARK VINA RESULT:      -8.2      0.000      0.000
REMARK  Name = 
REMARK  6 active torsions:
REMARK  status: ('A' for Active; 'I' for Inactive)
REMARK    1  A    between atoms: C_2  and  O_3
REMARK    2  A    between atoms: C_2  and  C_4
REMARK    3  A    between atoms: C_4  and  C_5
REMARK    4  A    between atoms: C_9  and  N_10
REMARK    5  A    between atoms: N_10  and  C_11
REMARK    6  A    between atoms: C_13  and  C_14
REMARK                            x       y       z     vdW  Elec       q    Type
REMARK                         _______ _______ _______ _____ _____    ______ ____
ROOT
ATOM      1  C   UNL     1       2.753   5.137  18.113  0.00  0.00    +0.000 A 
ATOM      2  N   UNL     1       2.444   6.446  18.028  0.00  0.00    +0.000 NA
ATOM      3  C   UNL     1       2.056   7.096  19.144  0.00  0.00    +0.000 A 
ATOM      4  N   UNL     1       1.973   6.519  20.357  0.00  0.00    +0.000 NA
ATOM      5  C   UNL     1       2.262   5.213  20.409  0.00  0.00    +0.000 A 
ATOM      6  C   UNL     1       2.643   4.470  19.309  0.00  0.00    +0.000 A 
ATOM      7  C   UNL     1       2.986   3.048  19.564  0.00  0.00    +0.000 C 
ATOM      8  S   UNL     1       2.286   2.797  21.189  0.00  0.00    +0.000 S 
ATOM      9  O   UNL     1       3.240   2.071  21.999  0.00  0.00    +0.000 OA
ATOM     10  O   UNL     1       0.921   2.328  21.029  0.00  0.00    +0.000 OA
ATOM     11  C   UNL     1       2.244   4.498  21.721  0.00  0.00    +0.000 C 
ENDROOT
BRANCH   3  12
ATOM     12  C   UNL     1       1.749   8.537  19.046  0.00  0.00    +0.000 A 
ATOM     13  C   UNL     1       2.167   9.312  17.947  0.00  0.00    +0.000 A 
ATOM     14  C   UNL     1       1.892  10.683  17.873  0.00  0.00    +0.000 A 
ATOM     15  C   UNL     1       1.192  11.312  18.898  0.00  0.00    +0.000 A 
ATOM     16  C   UNL     1       0.756  10.571  19.991  0.00  0.00    +0.000 A 
ATOM     17  C   UNL     1       1.029   9.201  20.060  0.00  0.00    +0.000 A 
ENDBRANCH   3  12
BRANCH   1  18
ATOM     18  N   UNL     1       3.271   4.456  16.987  0.00  0.00    +0.000 N 
ATOM     19  H   UNL     1       2.604   4.408  16.226  0.00  0.00    +0.000 HD
BRANCH  18  24
ATOM     20  C   UNL     1       6.997   4.642  17.096  0.00  0.00    +0.000 A 
ATOM     21  C   UNL     1       7.301   4.467  15.738  0.00  0.00    +0.000 A 
ATOM     22  C   UNL     1       6.279   4.324  14.803  0.00  0.00    +0.000 A 
ATOM     23  C   UNL     1       4.952   4.333  15.221  0.00  0.00    +0.000 A 
ATOM     24  C   UNL     1       4.617   4.500  16.572  0.00  0.00    +0.000 A 
ATOM     25  C   UNL     1       5.650   4.683  17.501  0.00  0.00    +0.000 A 
BRANCH  20  26
ATOM     26  C   UNL     1       8.114   4.695  18.116  0.00  0.00    +0.000 C 
BRANCH  26  28
ATOM     27  O   UNL     1       8.190   7.006  18.776  0.00  0.00    +0.000 OA
ATOM     28  C   UNL     1       8.072   5.837  19.108  0.00  0.00    +0.000 C 
BRANCH  28  29
ATOM     29  O   UNL     1       7.829   5.489  20.390  0.00  0.00    +0.000 OA
ATOM     30  H   UNL     1       7.293   6.137  20.886  0.00  0.00    +0.000 HD
ENDBRANCH  28  29
ENDBRANCH  26  28
ENDBRANCH  20  26
ENDBRANCH  18  24
ENDBRANCH   1  18
TORSDOF 6
ENDMDL
MODEL 2
REMARK VINA RESULT:      -8.0      2.316      3.164
REMARK  Name = 
REMARK  6 active torsions:
REMARK  status: ('A' for Active; 'I' for Inactive)
REMARK    1  A    between atoms: C_2  and  O_3
REMARK    2  A    between atoms: C_2  and  C_4
REMARK    3  A    between atoms: C_4  and  C_5
REMARK    4  A    between atoms: C_9  and  N_10
REMARK    5  A    between atoms: N_10  and  C_11
REMARK    6  A    between atoms: C_13  and  C_14
REMARK                            x       y       z     vdW  Elec       q    Type
REMARK                         _______ _______ _______ _____ _____    ______ ____
ROOT
ATOM      1  C   UNL     1       2.894   4.998  18.086  0.00  0.00    +0.000 A 
ATOM      2  N   UNL     1       2.581   6.306  17.999  0.00  0.00    +0.000 NA
ATOM      3  C   UNL     1       2.189   6.956  19.113  0.00  0.00    +0.000 A 
ATOM      4  N   UNL     1       2.105   6.381  20.327  0.00  0.00    +0.000 NA
ATOM      5  C   UNL     1       2.398   5.076  20.381  0.00  0.00    +0.000 A 
ATOM      6  C   UNL     1       2.784   4.332  19.283  0.00  0.00    +0.000 A 
ATOM      7  C   UNL     1       3.131   2.912  19.541  0.00  0.00    +0.000 C 
ATOM      8  S   UNL     1       2.429   2.662  21.165  0.00  0.00    +0.000 S 
ATOM      9  O   UNL     1       3.384   1.940  21.978  0.00  0.00    +0.000 OA
ATOM     10  O   UNL     1       1.066   2.188  21.004  0.00  0.00    +0.000 OA
ATOM     11  C   UNL     1       2.381   4.363  21.695  0.00  0.00    +0.000 C 
ENDROOT
BRANCH   3  12
ATOM     12  C   UNL     1       1.877   8.396  19.012  0.00  0.00    +0.000 A 
ATOM     13  C   UNL     1       1.136   9.067  20.004  0.00  0.00    +0.000 A 
ATOM     14  C   UNL     1       0.824  10.427  19.888  0.00  0.00    +0.000 A 
ATOM     15  C   UNL     1       1.246  11.149  18.776  0.00  0.00    +0.000 A 
ATOM     16  C   UNL     1       1.990  10.517  17.785  0.00  0.00    +0.000 A 
ATOM     17  C   UNL     1       2.303   9.160  17.906  0.00  0.00    +0.000 A 
ENDBRANCH   3  12
BRANCH   1  18
ATOM     18  N   UNL     1       3.415   4.317  16.962  0.00  0.00    +0.000 N 
ATOM     19  H   UNL     1       2.732   4.217  16.222  0.00  0.00    +0.000 HD
BRANCH  18  24
ATOM     20  C   UNL     1       6.377   4.430  14.694  0.00  0.00    +0.000 A 
ATOM     21  C   UNL     1       7.390   4.741  15.612  0.00  0.00    +0.000 A 
ATOM     22  C   UNL     1       7.093   4.875  16.965  0.00  0.00    +0.000 A 
ATOM     23  C   UNL     1       5.781   4.723  17.405  0.00  0.00    +0.000 A 
ATOM     24  C   UNL     1       4.746   4.418  16.510  0.00  0.00    +0.000 A 
ATOM     25  C   UNL     1       5.061   4.245  15.156  0.00  0.00    +0.000 A 
BRANCH  20  26
ATOM     26  C   UNL     1       6.691   4.386  13.214  0.00  0.00    +0.000 C 
BRANCH  26  28
ATOM     27  O   UNL     1       4.787   3.521  12.025  0.00  0.00    +0.000 OA
ATOM     28  C   UNL     1       5.941   3.360  12.392  0.00  0.00    +0.000 C 
BRANCH  28  29
ATOM     29  O   UNL     1       6.651   2.271  12.028  0.00  0.00    +0.000 OA
ATOM     30  H   UNL     1       7.083   2.347  11.156  0.00  0.00    +0.000 HD
ENDBRANCH  28  29
ENDBRANCH  26  28
ENDBRANCH  20  26
ENDBRANCH  18  24
ENDBRANCH   1  18
TORSDOF 6
ENDMDL
MODEL 3
REMARK VINA RESULT:      -8.0      2.426      7.288
REMARK  Name = 
REMARK  6 active torsions:
REMARK  status: ('A' for Active; 'I' for Inactive)
REMARK    1  A    between atoms: C_2  and  O_3
REMARK    2  A    between atoms: C_2  and  C_4
REMARK    3  A    between atoms: C_4  and  C_5
REMARK    4  A    between atoms: C_9  and  N_10
REMARK    5  A    between atoms: N_10  and  C_11
REMARK    6  A    between atoms: C_13  and  C_14
REMARK                            x       y       z     vdW  Elec       q    Type
REMARK                         _______ _______ _______ _____ _____    ______ ____
ROOT
ATOM      1  C   UNL     1       4.815   5.878  16.681  0.00  0.00    +0.000 A 
ATOM      2  N   UNL     1       4.811   5.364  15.435  0.00  0.00    +0.000 NA
ATOM      3  C   UNL     1       5.859   4.615  15.038  0.00  0.00    +0.000 A 
ATOM      4  N   UNL     1       6.916   4.328  15.821  0.00  0.00    +0.000 NA
ATOM      5  C   UNL     1       6.906   4.871  17.045  0.00  0.00    +0.000 A 
ATOM      6  C   UNL     1       5.883   5.669  17.519  0.00  0.00    +0.000 A 
ATOM      7  C   UNL     1       6.010   6.133  18.924  0.00  0.00    +0.000 C 
ATOM      8  S   UNL     1       7.736   5.808  19.253  0.00  0.00    +0.000 S 
ATOM      9  O   UNL     1       7.854   5.197  20.559  0.00  0.00    +0.000 OA
ATOM     10  O   UNL     1       8.497   6.994  18.905  0.00  0.00    +0.000 OA
ATOM     11  C   UNL     1       8.013   4.568  18.002  0.00  0.00    +0.000 C 
ENDROOT
BRANCH   3  12
ATOM     12  C   UNL     1       5.831   4.032  13.681  0.00  0.00    +0.000 A 
ATOM     13  C   UNL     1       4.623   3.675  13.052  0.00  0.00    +0.000 A 
ATOM     14  C   UNL     1       4.606   3.100  11.775  0.00  0.00    +0.000 A 
ATOM     15  C   UNL     1       5.799   2.868  11.097  0.00  0.00    +0.000 A 
ATOM     16  C   UNL     1       7.008   3.222  11.688  0.00  0.00    +0.000 A 
ATOM     17  C   UNL     1       7.021   3.798  12.961  0.00  0.00    +0.000 A 
ENDBRANCH   3  12
BRANCH   1  18
ATOM     18  N   UNL     1       3.682   6.572  17.165  0.00  0.00    +0.000 N 
ATOM     19  H   UNL     1       3.124   6.966  16.418  0.00  0.00    +0.000 HD
BRANCH  18  24
ATOM     20  C   UNL     1       1.941   4.482  19.722  0.00  0.00    +0.000 A 
ATOM     21  C   UNL     1       1.565   5.468  20.644  0.00  0.00    +0.000 A 
ATOM     22  C   UNL     1       1.857   6.807  20.398  0.00  0.00    +0.000 A 
ATOM     23  C   UNL     1       2.546   7.165  19.243  0.00  0.00    +0.000 A 
ATOM     24  C   UNL     1       2.941   6.201  18.305  0.00  0.00    +0.000 A 
ATOM     25  C   UNL     1       2.607   4.861  18.541  0.00  0.00    +0.000 A 
BRANCH  20  26
ATOM     26  C   UNL     1       1.710   3.022  20.045  0.00  0.00    +0.000 C 
BRANCH  26  28
ATOM     27  O   UNL     1       0.249   2.081  18.383  0.00  0.00    +0.000 OA
ATOM     28  C   UNL     1       1.363   2.117  18.883  0.00  0.00    +0.000 C 
BRANCH  28  29
ATOM     29  O   UNL     1       2.384   1.390  18.382  0.00  0.00    +0.000 OA
ATOM     30  H   UNL     1       2.775   1.757  17.566  0.00  0.00    +0.000 HD
ENDBRANCH  28  29
ENDBRANCH  26  28
ENDBRANCH  20  26
ENDBRANCH  18  24
ENDBRANCH   1  18
TORSDOF 6
ENDMDL
MODEL 4
REMARK VINA RESULT:      -7.9      2.461      6.651
REMARK  Name = 
REMARK  6 active torsions:
REMARK  status: ('A' for Active; 'I' for Inactive)
REMARK    1  A    between atoms: C_2  and  O_3
REMARK    2  A    between atoms: C_2  and  C_4
REMARK    3  A    between atoms: C_4  and  C_5
REMARK    4  A    between atoms: C_9  and  N_10
REMARK    5  A    between atoms: N_10  and  C_11
REMARK    6  A    between atoms: C_13  and  C_14
REMARK                            x       y       z     vdW  Elec       q    Type
REMARK                         _______ _______ _______ _____ _____    ______ ____
ROOT
ATOM      1  C   UNL     1       3.442   5.723  18.775  0.00  0.00    +0.000 A 
ATOM      2  N   UNL     1       4.361   5.727  17.790  0.00  0.00    +0.000 NA
ATOM      3  C   UNL     1       4.446   4.655  16.976  0.00  0.00    +0.000 A 
ATOM      4  N   UNL     1       3.650   3.574  17.073  0.00  0.00    +0.000 NA
ATOM      5  C   UNL     1       2.762   3.586  18.075  0.00  0.00    +0.000 A 
ATOM      6  C   UNL     1       2.628   4.634  18.966  0.00  0.00    +0.000 A 
ATOM      7  C   UNL     1       1.547   4.502  19.976  0.00  0.00    +0.000 C 
ATOM      8  S   UNL     1       1.170   2.758  19.871  0.00  0.00    +0.000 S 
ATOM      9  O   UNL     1      -0.267   2.593  19.862  0.00  0.00    +0.000 OA
ATOM     10  O   UNL     1       2.004   2.054  20.829  0.00  0.00    +0.000 OA
ATOM     11  C   UNL     1       1.802   2.451  18.233  0.00  0.00    +0.000 C 
ENDROOT
BRANCH   3  12
ATOM     12  C   UNL     1       5.437   4.682  15.881  0.00  0.00    +0.000 A 
ATOM     13  C   UNL     1       6.653   5.382  15.998  0.00  0.00    +0.000 A 
ATOM     14  C   UNL     1       7.576   5.423  14.946  0.00  0.00    +0.000 A 
ATOM     15  C   UNL     1       7.305   4.764  13.751  0.00  0.00    +0.000 A 
ATOM     16  C   UNL     1       6.117   4.053  13.610  0.00  0.00    +0.000 A 
ATOM     17  C   UNL     1       5.199   4.012  14.664  0.00  0.00    +0.000 A 
ENDBRANCH   3  12
BRANCH   1  18
ATOM     18  N   UNL     1       3.252   6.876  19.572  0.00  0.00    +0.000 N 
ATOM     19  H   UNL     1       4.122   7.231  19.948  0.00  0.00    +0.000 HD
BRANCH  18  24
ATOM     20  C   UNL     1       0.607   9.447  20.142  0.00  0.00    +0.000 A 
ATOM     21  C   UNL     1       0.434   9.929  18.837  0.00  0.00    +0.000 A 
ATOM     22  C   UNL     1       1.162   9.381  17.784  0.00  0.00    +0.000 A 
ATOM     23  C   UNL     1       2.082   8.366  18.033  0.00  0.00    +0.000 A 
ATOM     24  C   UNL     1       2.281   7.868  19.328  0.00  0.00    +0.000 A 
ATOM     25  C   UNL     1       1.515   8.398  20.374  0.00  0.00    +0.000 A 
BRANCH  20  26
ATOM     26  C   UNL     1      -0.113  10.117  21.293  0.00  0.00    +0.000 C 
BRANCH  26  28
ATOM     27  O   UNL     1       0.716   9.733  23.518  0.00  0.00    +0.000 OA
ATOM     28  C   UNL     1      -0.058   9.410  22.629  0.00  0.00    +0.000 C 
BRANCH  28  29
ATOM     29  O   UNL     1      -0.970   8.430  22.810  0.00  0.00    +0.000 OA
ATOM     30  H   UNL     1      -1.735   8.691  23.358  0.00  0.00    +0.000 HD
ENDBRANCH  28  29
ENDBRANCH  26  28
ENDBRANCH  20  26
ENDBRANCH  18  24
ENDBRANCH   1  18
TORSDOF 6
ENDMDL
MODEL 5
REMARK VINA RESULT:      -7.8      2.272      7.202
REMARK  Name = 
REMARK  6 active torsions:
REMARK  status: ('A' for Active; 'I' for Inactive)
REMARK    1  A    between atoms: C_2  and  O_3
REMARK    2  A    between atoms: C_2  and  C_4
REMARK    3  A    between atoms: C_4  and  C_5
REMARK    4  A    between atoms: C_9  and  N_10
REMARK    5  A    between atoms: N_10  and  C_11
REMARK    6  A    between atoms: C_13  and  C_14
REMARK                            x       y       z     vdW  Elec       q    Type
REMARK                         _______ _______ _______ _____ _____    ______ ____
ROOT
ATOM      1  C   UNL     1       4.817   5.873  16.653  0.00  0.00    +0.000 A 
ATOM      2  N   UNL     1       4.818   5.355  15.409  0.00  0.00    +0.000 NA
ATOM      3  C   UNL     1       5.866   4.601  15.020  0.00  0.00    +0.000 A 
ATOM      4  N   UNL     1       6.917   4.313  15.809  0.00  0.00    +0.000 NA
ATOM      5  C   UNL     1       6.902   4.860  17.031  0.00  0.00    +0.000 A 
ATOM      6  C   UNL     1       5.879   5.663  17.498  0.00  0.00    +0.000 A 
ATOM      7  C   UNL     1       6.000   6.131  18.901  0.00  0.00    +0.000 C 
ATOM      8  S   UNL     1       7.723   5.801  19.241  0.00  0.00    +0.000 S 
ATOM      9  O   UNL     1       7.832   5.194  20.550  0.00  0.00    +0.000 OA
ATOM     10  O   UNL     1       8.490   6.984  18.893  0.00  0.00    +0.000 OA
ATOM     11  C   UNL     1       8.003   4.557  17.996  0.00  0.00    +0.000 C 
ENDROOT
BRANCH   3  12
ATOM     12  C   UNL     1       5.843   4.014  13.665  0.00  0.00    +0.000 A 
ATOM     13  C   UNL     1       4.639   3.638  13.039  0.00  0.00    +0.000 A 
ATOM     14  C   UNL     1       4.629   3.059  11.764  0.00  0.00    +0.000 A 
ATOM     15  C   UNL     1       5.824   2.842  11.084  0.00  0.00    +0.000 A 
ATOM     16  C   UNL     1       7.028   3.214  11.671  0.00  0.00    +0.000 A 
ATOM     17  C   UNL     1       7.035   3.794  12.943  0.00  0.00    +0.000 A 
ENDBRANCH   3  12
BRANCH   1  18
ATOM     18  N   UNL     1       3.683   6.572  17.129  0.00  0.00    +0.000 N 
ATOM     19  H   UNL     1       3.129   6.962  16.377  0.00  0.00    +0.000 HD
BRANCH  18  24
ATOM     20  C   UNL     1       1.930   4.501  19.692  0.00  0.00    +0.000 A 
ATOM     21  C   UNL     1       1.551   5.494  20.606  0.00  0.00    +0.000 A 
ATOM     22  C   UNL     1       1.846   6.831  20.352  0.00  0.00    +0.000 A 
ATOM     23  C   UNL     1       2.539   7.180  19.197  0.00  0.00    +0.000 A 
ATOM     24  C   UNL     1       2.937   6.209  18.268  0.00  0.00    +0.000 A 
ATOM     25  C   UNL     1       2.601   4.871  18.512  0.00  0.00    +0.000 A 
BRANCH  20  26
ATOM     26  C   UNL     1       1.696   3.043  20.024  0.00  0.00    +0.000 C 
BRANCH  26  28
ATOM     27  O   UNL     1       3.394   2.319  21.567  0.00  0.00    +0.000 OA
ATOM     28  C   UNL     1       2.214   2.561  21.362  0.00  0.00    +0.000 C 
BRANCH  28  29
ATOM     29  O   UNL     1       1.295   2.475  22.348  0.00  0.00    +0.000 OA
ATOM     30  H   UNL     1       1.204   1.583  22.734  0.00  0.00    +0.000 HD
ENDBRANCH  28  29
ENDBRANCH  26  28
ENDBRANCH  20  26
ENDBRANCH  18  24
ENDBRANCH   1  18
TORSDOF 6
ENDMDL
MODEL 6
REMARK VINA RESULT:      -7.8      2.315      6.620
REMARK  Name = 
REMARK  6 active torsions:
REMARK  status: ('A' for Active; 'I' for Inactive)
REMARK    1  A    between atoms: C_2  and  O_3
REMARK    2  A    between atoms: C_2  and  C_4
REMARK    3  A    between atoms: C_4  and  C_5
REMARK    4  A    between atoms: C_9  and  N_10
REMARK    5  A    between atoms: N_10  and  C_11
REMARK    6  A    between atoms: C_13  and  C_14
REMARK                            x       y       z     vdW  Elec       q    Type
REMARK                         _______ _______ _______ _____ _____    ______ ____
ROOT
ATOM      1  C   UNL     1       3.561   5.840  19.203  0.00  0.00    +0.000 A 
ATOM      2  N   UNL     1       4.337   5.810  18.101  0.00  0.00    +0.000 NA
ATOM      3  C   UNL     1       4.498   4.640  17.452  0.00  0.00    +0.000 A 
ATOM      4  N   UNL     1       3.914   3.487  17.827  0.00  0.00    +0.000 NA
ATOM      5  C   UNL     1       3.168   3.540  18.938  0.00  0.00    +0.000 A 
ATOM      6  C   UNL     1       2.973   4.692  19.674  0.00  0.00    +0.000 A 
ATOM      7  C   UNL     1       2.064   4.578  20.843  0.00  0.00    +0.000 C 
ATOM      8  S   UNL     1       1.976   2.806  21.055  0.00  0.00    +0.000 S 
ATOM      9  O   UNL     1       0.597   2.434  21.287  0.00  0.00    +0.000 OA
ATOM     10  O   UNL     1       3.029   2.404  21.970  0.00  0.00    +0.000 OA
ATOM     11  C   UNL     1       2.441   2.320  19.404  0.00  0.00    +0.000 C 
ENDROOT
BRANCH   3  12
ATOM     12  C   UNL     1       5.326   4.624  16.229  0.00  0.00    +0.000 A 
ATOM     13  C   UNL     1       4.868   4.044  15.030  0.00  0.00    +0.000 A 
ATOM     14  C   UNL     1       5.669   4.012  13.882  0.00  0.00    +0.000 A 
ATOM     15  C   UNL     1       6.949   4.560  13.906  0.00  0.00    +0.000 A 
ATOM     16  C   UNL     1       7.424   5.151  15.072  0.00  0.00    +0.000 A 
ATOM     17  C   UNL     1       6.620   5.184  16.215  0.00  0.00    +0.000 A 
ENDBRANCH   3  12
BRANCH   1  18
ATOM     18  N   UNL     1       3.281   7.072  19.840  0.00  0.00    +0.000 N 
ATOM     19  H   UNL     1       4.116   7.517  20.199  0.00  0.00    +0.000 HD
BRANCH  18  24
ATOM     20  C   UNL     1       0.441   9.490  19.979  0.00  0.00    +0.000 A 
ATOM     21  C   UNL     1       0.351   9.855  18.629  0.00  0.00    +0.000 A 
ATOM     22  C   UNL     1       1.199   9.277  17.688  0.00  0.00    +0.000 A 
ATOM     23  C   UNL     1       2.155   8.352  18.093  0.00  0.00    +0.000 A 
ATOM     24  C   UNL     1       2.275   7.972  19.437  0.00  0.00    +0.000 A 
ATOM     25  C   UNL     1       1.391   8.527  20.371  0.00  0.00    +0.000 A 
BRANCH  20  26
ATOM     26  C   UNL     1      -0.414  10.196  21.009  0.00  0.00    +0.000 C 
BRANCH  26  28
ATOM     27  O   UNL     1      -0.858   8.433  22.584  0.00  0.00    +0.000 OA
ATOM     28  C   UNL     1      -0.468   9.574  22.387  0.00  0.00    +0.000 C 
BRANCH  28  29
ATOM     29  O   UNL     1       0.008  10.339  23.393  0.00  0.00    +0.000 OA
ATOM     30  H   UNL     1       0.794   9.970  23.841  0.00  0.00    +0.000 HD
ENDBRANCH  28  29
ENDBRANCH  26  28
ENDBRANCH  20  26
ENDBRANCH  18  24
ENDBRANCH   1  18
TORSDOF 6
ENDMDL
MODEL 7
REMARK VINA RESULT:      -7.8      3.200      6.939
REMARK  Name = 
REMARK  6 active torsions:
REMARK  status: ('A' for Active; 'I' for Inactive)
REMARK    1  A    between atoms: C_2  and  O_3
REMARK    2  A    between atoms: C_2  and  C_4
REMARK    3  A    between atoms: C_4  and  C_5
REMARK    4  A    between atoms: C_9  and  N_10
REMARK    5  A    between atoms: N_10  and  C_11
REMARK    6  A    between atoms: C_13  and  C_14
REMARK                            x       y       z     vdW  Elec       q    Type
REMARK                         _______ _______ _______ _____ _____    ______ ____
ROOT
ATOM      1  C   UNL     1       3.702   6.401  17.565  0.00  0.00    +0.000 A 
ATOM      2  N   UNL     1       3.093   5.687  18.532  0.00  0.00    +0.000 NA
ATOM      3  C   UNL     1       3.482   4.412  18.740  0.00  0.00    +0.000 A 
ATOM      4  N   UNL     1       4.463   3.804  18.048  0.00  0.00    +0.000 NA
ATOM      5  C   UNL     1       5.034   4.529  17.078  0.00  0.00    +0.000 A 
ATOM      6  C   UNL     1       4.678   5.831  16.785  0.00  0.00    +0.000 A 
ATOM      7  C   UNL     1       5.462   6.501  15.717  0.00  0.00    +0.000 C 
ATOM      8  S   UNL     1       6.263   5.109  14.934  0.00  0.00    +0.000 S 
ATOM      9  O   UNL     1       7.651   5.444  14.697  0.00  0.00    +0.000 OA
ATOM     10  O   UNL     1       5.408   4.636  13.861  0.00  0.00    +0.000 OA
ATOM     11  C   UNL     1       6.166   3.955  16.289  0.00  0.00    +0.000 C 
ENDROOT
BRANCH   3  12
ATOM     12  C   UNL     1       2.828   3.648  19.822  0.00  0.00    +0.000 A 
ATOM     13  C   UNL     1       1.467   3.823  20.137  0.00  0.00    +0.000 A 
ATOM     14  C   UNL     1       0.862   3.112  21.180  0.00  0.00    +0.000 A 
ATOM     15  C   UNL     1       1.604   2.208  21.934  0.00  0.00    +0.000 A 
ATOM     16  C   UNL     1       2.948   2.004  21.639  0.00  0.00    +0.000 A 
ATOM     17  C   UNL     1       3.548   2.714  20.594  0.00  0.00    +0.000 A 
ENDBRANCH   3  12
BRANCH   1  18
ATOM     18  N   UNL     1       3.397   7.772  17.397  0.00  0.00    +0.000 N 
ATOM     19  H   UNL     1       3.468   8.066  16.431  0.00  0.00    +0.000 HD
BRANCH  18  24
ATOM     20  C   UNL     1       1.121   8.763  20.185  0.00  0.00    +0.000 A 
ATOM     21  C   UNL     1       0.595   9.958  19.673  0.00  0.00    +0.000 A 
ATOM     22  C   UNL     1       0.968  10.402  18.407  0.00  0.00    +0.000 A 
ATOM     23  C   UNL     1       1.884   9.670  17.658  0.00  0.00    +0.000 A 
ATOM     24  C   UNL     1       2.432   8.476  18.146  0.00  0.00    +0.000 A 
ATOM     25  C   UNL     1       2.021   8.015  19.403  0.00  0.00    +0.000 A 
BRANCH  20  26
ATOM     26  C   UNL     1       0.789   8.341  21.600  0.00  0.00    +0.000 C 
BRANCH  26  28
ATOM     27  O   UNL     1       0.246   9.976  23.278  0.00  0.00    +0.000 OA
ATOM     28  C   UNL     1       1.107   9.334  22.696  0.00  0.00    +0.000 C 
BRANCH  28  29
ATOM     29  O   UNL     1       2.409   9.424  23.044  0.00  0.00    +0.000 OA
ATOM     30  H   UNL     1       3.020   8.979  22.426  0.00  0.00    +0.000 HD
ENDBRANCH  28  29
ENDBRANCH  26  28
ENDBRANCH  20  26
ENDBRANCH  18  24
ENDBRANCH   1  18
TORSDOF 6
ENDMDL
MODEL 8
REMARK VINA RESULT:      -7.7      5.965      9.637
REMARK  Name = 
REMARK  6 active torsions:
REMARK  status: ('A' for Active; 'I' for Inactive)
REMARK    1  A    between atoms: C_2  and  O_3
REMARK    2  A    between atoms: C_2  and  C_4
REMARK    3  A    between atoms: C_4  and  C_5
REMARK    4  A    between atoms: C_9  and  N_10
REMARK    5  A    between atoms: N_10  and  C_11
REMARK    6  A    between atoms: C_13  and  C_14
REMARK                            x       y       z     vdW  Elec       q    Type
REMARK                         _______ _______ _______ _____ _____    ______ ____
ROOT
ATOM      1  C   UNL     1      -0.274  10.766  19.077  0.00  0.00    +0.000 A 
ATOM      2  N   UNL     1       0.611   9.829  18.684  0.00  0.00    +0.000 NA
ATOM      3  C   UNL     1       1.142   9.007  19.611  0.00  0.00    +0.000 A 
ATOM      4  N   UNL     1       0.830   9.051  20.919  0.00  0.00    +0.000 NA
ATOM      5  C   UNL     1      -0.032  10.007  21.287  0.00  0.00    +0.000 A 
ATOM      6  C   UNL     1      -0.603  10.903  20.403  0.00  0.00    +0.000 A 
ATOM      7  C   UNL     1      -1.586  11.855  20.978  0.00  0.00    +0.000 C 
ATOM      8  S   UNL     1      -1.245  11.710  22.726  0.00  0.00    +0.000 S 
ATOM      9  O   UNL     1      -2.501  11.628  23.440  0.00  0.00    +0.000 OA
ATOM     10  O   UNL     1      -0.242  12.700  23.078  0.00  0.00    +0.000 OA
ATOM     11  C   UNL     1      -0.476  10.102  22.711  0.00  0.00    +0.000 C 
ENDROOT
BRANCH   3  12
ATOM     12  C   UNL     1       2.088   7.964  19.165  0.00  0.00    +0.000 A 
ATOM     13  C   UNL     1       2.811   8.083  17.963  0.00  0.00    +0.000 A 
ATOM     14  C   UNL     1       3.687   7.078  17.535  0.00  0.00    +0.000 A 
ATOM     15  C   UNL     1       3.861   5.928  18.301  0.00  0.00    +0.000 A 
ATOM     16  C   UNL     1       3.169   5.788  19.499  0.00  0.00    +0.000 A 
ATOM     17  C   UNL     1       2.298   6.795  19.925  0.00  0.00    +0.000 A 
ENDBRANCH   3  12
BRANCH   1  18
ATOM     18  N   UNL     1      -0.933  11.567  18.115  0.00  0.00    +0.000 N 
ATOM     19  H   UNL     1      -0.286  12.117  17.564  0.00  0.00    +0.000 HD
BRANCH  18  24
ATOM     20  C   UNL     1      -4.484  11.480  16.969  0.00  0.00    +0.000 A 
ATOM     21  C   UNL     1      -4.403  10.512  15.959  0.00  0.00    +0.000 A 
ATOM     22  C   UNL     1      -3.193   9.877  15.692  0.00  0.00    +0.000 A 
ATOM     23  C   UNL     1      -2.055  10.222  16.415  0.00  0.00    +0.000 A 
ATOM     24  C   UNL     1      -2.104  11.192  17.426  0.00  0.00    +0.000 A 
ATOM     25  C   UNL     1      -3.334  11.796  17.716  0.00  0.00    +0.000 A 
BRANCH  20  26
ATOM     26  C   UNL     1      -5.778  12.236  17.185  0.00  0.00    +0.000 C 
BRANCH  26  28
ATOM     27  O   UNL     1      -6.714  10.451  18.496  0.00  0.00    +0.000 OA
ATOM     28  C   UNL     1      -6.773  11.618  18.142  0.00  0.00    +0.000 C 
BRANCH  28  29
ATOM     29  O   UNL     1      -7.705  12.459  18.640  0.00  0.00    +0.000 OA
ATOM     30  H   UNL     1      -8.530  12.496  18.120  0.00  0.00    +0.000 HD
ENDBRANCH  28  29
ENDBRANCH  26  28
ENDBRANCH  20  26
ENDBRANCH  18  24
ENDBRANCH   1  18
TORSDOF 6
ENDMDL
MODEL 9
REMARK VINA RESULT:      -7.7      0.921      1.381
REMARK  Name = 
REMARK  6 active torsions:
REMARK  status: ('A' for Active; 'I' for Inactive)
REMARK    1  A    between atoms: C_2  and  O_3
REMARK    2  A    between atoms: C_2  and  C_4
REMARK    3  A    between atoms: C_4  and  C_5
REMARK    4  A    between atoms: C_9  and  N_10
REMARK    5  A    between atoms: N_10  and  C_11
REMARK    6  A    between atoms: C_13  and  C_14
REMARK                            x       y       z     vdW  Elec       q    Type
REMARK                         _______ _______ _______ _____ _____    ______ ____
ROOT
ATOM      1  C   UNL     1       2.799   5.389  18.201  0.00  0.00    +0.000 A 
ATOM      2  N   UNL     1       2.433   6.686  18.183  0.00  0.00    +0.000 NA
ATOM      3  C   UNL     1       1.957   7.243  19.315  0.00  0.00    +0.000 A 
ATOM      4  N   UNL     1       1.838   6.584  20.482  0.00  0.00    +0.000 NA
ATOM      5  C   UNL     1       2.185   5.291  20.466  0.00  0.00    +0.000 A 
ATOM      6  C   UNL     1       2.658   4.640  19.344  0.00  0.00    +0.000 A 
ATOM      7  C   UNL     1       3.054   3.221  19.526  0.00  0.00    +0.000 C 
ATOM      8  S   UNL     1       2.282   2.833  21.090  0.00  0.00    +0.000 S 
ATOM      9  O   UNL     1       3.226   2.097  21.904  0.00  0.00    +0.000 OA
ATOM     10  O   UNL     1       0.952   2.316  20.826  0.00  0.00    +0.000 OA
ATOM     11  C   UNL     1       2.132   4.491  21.727  0.00  0.00    +0.000 C 
ENDROOT
BRANCH   3  12
ATOM     12  C   UNL     1       1.588   8.673  19.292  0.00  0.00    +0.000 A 
ATOM     13  C   UNL     1       0.911   9.282  20.366  0.00  0.00    +0.000 A 
ATOM     14  C   UNL     1       0.542  10.632  20.326  0.00  0.00    +0.000 A 
ATOM     15  C   UNL     1       0.843  11.406  19.209  0.00  0.00    +0.000 A 
ATOM     16  C   UNL     1       1.522  10.836  18.137  0.00  0.00    +0.000 A 
ATOM     17  C   UNL     1       1.891   9.488  18.182  0.00  0.00    +0.000 A 
ENDBRANCH   3  12
BRANCH   1  18
ATOM     18  N   UNL     1       3.406   4.808  17.064  0.00  0.00    +0.000 N 
ATOM     19  H   UNL     1       2.787   4.793  16.263  0.00  0.00    +0.000 HD
BRANCH  18  24
ATOM     20  C   UNL     1       7.022   5.713  17.262  0.00  0.00    +0.000 A 
ATOM     21  C   UNL     1       7.514   5.049  16.129  0.00  0.00    +0.000 A 
ATOM     22  C   UNL     1       6.647   4.343  15.299  0.00  0.00    +0.000 A 
ATOM     23  C   UNL     1       5.292   4.278  15.607  0.00  0.00    +0.000 A 
ATOM     24  C   UNL     1       4.772   4.925  16.736  0.00  0.00    +0.000 A 
ATOM     25  C   UNL     1       5.644   5.667  17.544  0.00  0.00    +0.000 A 
BRANCH  20  26
ATOM     26  C   UNL     1       7.984   6.391  18.212  0.00  0.00    +0.000 C 
BRANCH  26  28
ATOM     27  O   UNL     1       7.568   8.534  17.202  0.00  0.00    +0.000 OA
ATOM     28  C   UNL     1       8.118   7.893  18.085  0.00  0.00    +0.000 C 
BRANCH  28  29
ATOM     29  O   UNL     1       8.837   8.501  19.053  0.00  0.00    +0.000 OA
ATOM     30  H   UNL     1       8.304   9.040  19.668  0.00  0.00    +0.000 HD
ENDBRANCH  28  29
ENDBRANCH  26  28
ENDBRANCH  20  26
ENDBRANCH  18  24
ENDBRANCH   1  18
TORSDOF 6
ENDMDL
