MODEL 1
REMARK VINA RESULT:      -7.8      0.000      0.000
REMARK  Name = 
REMARK  10 active torsions:
REMARK  status: ('A' for Active; 'I' for Inactive)
REMARK    1  A    between atoms: C_1  and  O_2
REMARK    2  A    between atoms: O_2  and  C_3
REMARK    3  A    between atoms: N_10  and  C_11
REMARK    4  A    between atoms: C_21  and  O_22
REMARK    5  A    between atoms: O_22  and  C_23
REMARK    6  A    between atoms: C_23  and  C_24
REMARK    7  A    between atoms: C_24  and  C_25
REMARK    8  A    between atoms: C_25  and  C_26
REMARK    9  A    between atoms: C_26  and  C_27
REMARK   10  A    between atoms: N_29  and  O_30
REMARK                            x       y       z     vdW  Elec       q    Type
REMARK                         _______ _______ _______ _____ _____    ______ ____
ROOT
ATOM      1  C   UNL     1       3.733   5.368  19.045  0.00  0.00    +0.000 A 
ATOM      2  C   UNL     1       2.912   5.734  20.119  0.00  0.00    +0.000 A 
ATOM      3  C   UNL     1       2.178   6.906  20.130  0.00  0.00    +0.000 A 
ATOM      4  N   UNL     1       1.499   7.193  21.241  0.00  0.00    +0.000 NA
ATOM      5  C   UNL     1       0.855   8.360  21.260  0.00  0.00    +0.000 A 
ATOM      6  N   UNL     1       0.817   9.242  20.264  0.00  0.00    +0.000 NA
ATOM      7  C   UNL     1       1.489   8.935  19.136  0.00  0.00    +0.000 A 
ATOM      8  N   UNL     1       1.454   9.872  18.068  0.00  0.00    +0.000 N 
ATOM      9  C   UNL     1       2.219   7.739  19.008  0.00  0.00    +0.000 A 
ATOM     10  C   UNL     1       2.993   7.347  17.888  0.00  0.00    +0.000 A 
ATOM     11  C   UNL     1       3.726   6.153  17.888  0.00  0.00    +0.000 A 
ATOM     12  H   UNL     1       1.029   9.433  17.253  0.00  0.00    +0.000 HD
ENDROOT
BRANCH   8  13
ATOM     13  C   UNL     1       0.988  11.205  18.235  0.00  0.00    +0.000 A 
ATOM     14  C   UNL     1       1.909  12.235  18.493  0.00  0.00    +0.000 A 
ATOM     15  C   UNL     1       1.479  13.532  18.769  0.00  0.00    +0.000 A 
ATOM     16  C   UNL     1       0.118  13.820  18.768  0.00  0.00    +0.000 A 
ATOM     17 CL   UNL     1      -0.414  15.407  19.165  0.00  0.00    +0.000 Cl
ATOM     18  C   UNL     1      -0.816  12.832  18.460  0.00  0.00    +0.000 A 
ATOM     19  C   UNL     1      -0.378  11.532  18.188  0.00  0.00    +0.000 A 
ATOM     20 CL   UNL     1      -1.561  10.321  17.832  0.00  0.00    +0.000 Cl
ENDBRANCH   8  13
BRANCH   1  22
ATOM     21  C   UNL     1       3.933   3.082  19.601  0.00  0.00    +0.000 C 
ATOM     22  O   UNL     1       4.559   4.276  19.124  0.00  0.00    +0.000 OA
ENDBRANCH   1  22
BRANCH  11  23
ATOM     23  O   UNL     1       4.451   5.955  16.746  0.00  0.00    +0.000 OA
BRANCH  23  24
ATOM     24  C   UNL     1       4.588   4.614  16.269  0.00  0.00    +0.000 C 
BRANCH  24  25
ATOM     25  C   UNL     1       5.980   4.473  15.637  0.00  0.00    +0.000 C 
BRANCH  25  26
ATOM     26  C   UNL     1       7.075   4.693  16.686  0.00  0.00    +0.000 C 
BRANCH  26  27
ATOM     27  C   UNL     1       7.343   6.165  16.980  0.00  0.00    +0.000 C 
BRANCH  27  28
ATOM     28  C   UNL     1       7.824   6.349  18.408  0.00  0.00    +0.000 C 
ATOM     29  O   UNL     1       8.383   7.356  18.834  0.00  0.00    +0.000 OA
ATOM     30  N   UNL     1       7.578   5.267  19.220  0.00  0.00    +0.000 N 
ATOM     31  H   UNL     1       6.907   4.538  19.007  0.00  0.00    +0.000 HD
BRANCH  30  32
ATOM     32  O   UNL     1       7.925   5.439  20.580  0.00  0.00    +0.000 OA
ATOM     33  H   UNL     1       8.569   6.183  20.539  0.00  0.00    +0.000 HD
ENDBRANCH  30  32
ENDBRANCH  27  28
ENDBRANCH  26  27
ENDBRANCH  25  26
ENDBRANCH  24  25
ENDBRANCH  23  24
ENDBRANCH  11  23
TORSDOF 9
ENDMDL
MODEL 2
REMARK VINA RESULT:      -7.7      2.248      2.940
REMARK  Name = 
REMARK  10 active torsions:
REMARK  status: ('A' for Active; 'I' for Inactive)
REMARK    1  A    between atoms: C_1  and  O_2
REMARK    2  A    between atoms: O_2  and  C_3
REMARK    3  A    between atoms: N_10  and  C_11
REMARK    4  A    between atoms: C_21  and  O_22
REMARK    5  A    between atoms: O_22  and  C_23
REMARK    6  A    between atoms: C_23  and  C_24
REMARK    7  A    between atoms: C_24  and  C_25
REMARK    8  A    between atoms: C_25  and  C_26
REMARK    9  A    between atoms: C_26  and  C_27
REMARK   10  A    between atoms: N_29  and  O_30
REMARK                            x       y       z     vdW  Elec       q    Type
REMARK                         _______ _______ _______ _____ _____    ______ ____
ROOT
ATOM      1  C   UNL     1       2.334   6.292  19.803  0.00  0.00    +0.000 A 
ATOM      2  C   UNL     1       1.575   6.914  20.803  0.00  0.00    +0.000 A 
ATOM      3  C   UNL     1       1.158   8.229  20.712  0.00  0.00    +0.000 A 
ATOM      4  N   UNL     1       0.515   8.741  21.762  0.00  0.00    +0.000 NA
ATOM      5  C   UNL     1       0.184  10.030  21.687  0.00  0.00    +0.000 A 
ATOM      6  N   UNL     1       0.420  10.833  20.651  0.00  0.00    +0.000 NA
ATOM      7  C   UNL     1       1.053  10.302  19.586  0.00  0.00    +0.000 A 
ATOM      8  N   UNL     1       1.309  11.153  18.476  0.00  0.00    +0.000 N 
ATOM      9  C   UNL     1       1.466   8.957  19.560  0.00  0.00    +0.000 A 
ATOM     10  C   UNL     1       2.175   8.320  18.512  0.00  0.00    +0.000 A 
ATOM     11  C   UNL     1       2.585   6.984  18.614  0.00  0.00    +0.000 A 
ATOM     12  H   UNL     1       0.831  10.785  17.656  0.00  0.00    +0.000 HD
ENDROOT
BRANCH   8  13
ATOM     13  C   UNL     1       1.183  12.567  18.552  0.00  0.00    +0.000 A 
ATOM     14  C   UNL     1       2.322  13.352  18.804  0.00  0.00    +0.000 A 
ATOM     15  C   UNL     1       2.217  14.730  18.993  0.00  0.00    +0.000 A 
ATOM     16  C   UNL     1       0.971  15.344  18.908  0.00  0.00    +0.000 A 
ATOM     17 CL   UNL     1       0.837  17.034  19.197  0.00  0.00    +0.000 Cl
ATOM     18  C   UNL     1      -0.166  14.599  18.602  0.00  0.00    +0.000 A 
ATOM     19  C   UNL     1      -0.056  13.217  18.419  0.00  0.00    +0.000 A 
ATOM     20 CL   UNL     1      -1.489  12.315  18.065  0.00  0.00    +0.000 Cl
ENDBRANCH   8  13
BRANCH   1  22
ATOM     21  C   UNL     1       2.294   4.307  21.079  0.00  0.00    +0.000 C 
ATOM     22  O   UNL     1       2.855   5.038  19.985  0.00  0.00    +0.000 OA
ENDBRANCH   1  22
BRANCH  11  23
ATOM     23  O   UNL     1       3.296   6.545  17.532  0.00  0.00    +0.000 OA
BRANCH  23  24
ATOM     24  C   UNL     1       4.711   6.745  17.541  0.00  0.00    +0.000 C 
BRANCH  24  25
ATOM     25  C   UNL     1       5.292   6.097  16.276  0.00  0.00    +0.000 C 
BRANCH  25  26
ATOM     26  C   UNL     1       4.592   4.768  15.979  0.00  0.00    +0.000 C 
BRANCH  26  27
ATOM     27  C   UNL     1       4.991   3.648  16.935  0.00  0.00    +0.000 C 
BRANCH  27  28
ATOM     28  C   UNL     1       3.764   3.031  17.581  0.00  0.00    +0.000 C 
ATOM     29  O   UNL     1       3.785   2.083  18.362  0.00  0.00    +0.000 OA
ATOM     30  N   UNL     1       2.583   3.633  17.216  0.00  0.00    +0.000 N 
ATOM     31  H   UNL     1       2.520   4.555  16.801  0.00  0.00    +0.000 HD
BRANCH  30  32
ATOM     32  O   UNL     1       1.428   3.148  17.873  0.00  0.00    +0.000 OA
ATOM     33  H   UNL     1       0.830   2.938  17.119  0.00  0.00    +0.000 HD
ENDBRANCH  30  32
ENDBRANCH  27  28
ENDBRANCH  26  27
ENDBRANCH  25  26
ENDBRANCH  24  25
ENDBRANCH  23  24
ENDBRANCH  11  23
TORSDOF 9
ENDMDL
MODEL 3
REMARK VINA RESULT:      -7.7      1.276      1.623
REMARK  Name = 
REMARK  10 active torsions:
REMARK  status: ('A' for Active; 'I' for Inactive)
REMARK    1  A    between atoms: C_1  and  O_2
REMARK    2  A    between atoms: O_2  and  C_3
REMARK    3  A    between atoms: N_10  and  C_11
REMARK    4  A    between atoms: C_21  and  O_22
REMARK    5  A    between atoms: O_22  and  C_23
REMARK    6  A    between atoms: C_23  and  C_24
REMARK    7  A    between atoms: C_24  and  C_25
REMARK    8  A    between atoms: C_25  and  C_26
REMARK    9  A    between atoms: C_26  and  C_27
REMARK   10  A    between atoms: N_29  and  O_30
REMARK                            x       y       z     vdW  Elec       q    Type
REMARK                         _______ _______ _______ _____ _____    ______ ____
ROOT
ATOM      1  C   UNL     1       2.310   6.130  19.947  0.00  0.00    +0.000 A 
ATOM      2  C   UNL     1       1.517   6.761  20.914  0.00  0.00    +0.000 A 
ATOM      3  C   UNL     1       1.096   8.072  20.792  0.00  0.00    +0.000 A 
ATOM      4  N   UNL     1       0.417   8.595  21.814  0.00  0.00    +0.000 NA
ATOM      5  C   UNL     1       0.081   9.880  21.710  0.00  0.00    +0.000 A 
ATOM      6  N   UNL     1       0.345  10.670  20.671  0.00  0.00    +0.000 NA
ATOM      7  C   UNL     1       1.014  10.129  19.633  0.00  0.00    +0.000 A 
ATOM      8  N   UNL     1       1.300  10.965  18.520  0.00  0.00    +0.000 N 
ATOM      9  C   UNL     1       1.435   8.786  19.639  0.00  0.00    +0.000 A 
ATOM     10  C   UNL     1       2.180   8.138  18.623  0.00  0.00    +0.000 A 
ATOM     11  C   UNL     1       2.594   6.806  18.757  0.00  0.00    +0.000 A 
ATOM     12  H   UNL     1       0.850  10.584  17.691  0.00  0.00    +0.000 HD
ENDROOT
BRANCH   8  13
ATOM     13  C   UNL     1       1.164  12.380  18.573  0.00  0.00    +0.000 A 
ATOM     14  C   UNL     1       2.282  13.173  18.883  0.00  0.00    +0.000 A 
ATOM     15  C   UNL     1       2.161  14.553  19.049  0.00  0.00    +0.000 A 
ATOM     16  C   UNL     1       0.920  15.160  18.883  0.00  0.00    +0.000 A 
ATOM     17 CL   UNL     1       0.762  16.852  19.145  0.00  0.00    +0.000 Cl
ATOM     18  C   UNL     1      -0.195  14.406  18.520  0.00  0.00    +0.000 A 
ATOM     19  C   UNL     1      -0.068  13.022  18.360  0.00  0.00    +0.000 A 
ATOM     20 CL   UNL     1      -1.474  12.109  17.932  0.00  0.00    +0.000 Cl
ENDBRANCH   8  13
BRANCH   1  22
ATOM     21  C   UNL     1       2.243   4.163  21.251  0.00  0.00    +0.000 C 
ATOM     22  O   UNL     1       2.832   4.881  20.163  0.00  0.00    +0.000 OA
ENDBRANCH   1  22
BRANCH  11  23
ATOM     23  O   UNL     1       3.341   6.357  17.704  0.00  0.00    +0.000 OA
BRANCH  23  24
ATOM     24  C   UNL     1       4.196   7.296  17.046  0.00  0.00    +0.000 C 
BRANCH  24  25
ATOM     25  C   UNL     1       5.068   6.526  16.045  0.00  0.00    +0.000 C 
BRANCH  25  26
ATOM     26  C   UNL     1       5.581   5.223  16.665  0.00  0.00    +0.000 C 
BRANCH  26  27
ATOM     27  C   UNL     1       7.100   5.178  16.806  0.00  0.00    +0.000 C 
BRANCH  27  28
ATOM     28  C   UNL     1       7.537   5.820  18.109  0.00  0.00    +0.000 C 
ATOM     29  O   UNL     1       7.818   7.008  18.244  0.00  0.00    +0.000 OA
ATOM     30  N   UNL     1       7.595   4.945  19.167  0.00  0.00    +0.000 N 
ATOM     31  H   UNL     1       7.135   4.042  19.183  0.00  0.00    +0.000 HD
BRANCH  30  32
ATOM     32  O   UNL     1       7.905   5.527  20.419  0.00  0.00    +0.000 OA
ATOM     33  H   UNL     1       7.512   6.426  20.334  0.00  0.00    +0.000 HD
ENDBRANCH  30  32
ENDBRANCH  27  28
ENDBRANCH  26  27
ENDBRANCH  25  26
ENDBRANCH  24  25
ENDBRANCH  23  24
ENDBRANCH  11  23
TORSDOF 9
ENDMDL
MODEL 4
REMARK VINA RESULT:      -7.6      2.176      2.861
REMARK  Name = 
REMARK  10 active torsions:
REMARK  status: ('A' for Active; 'I' for Inactive)
REMARK    1  A    between atoms: C_1  and  O_2
REMARK    2  A    between atoms: O_2  and  C_3
REMARK    3  A    between atoms: N_10  and  C_11
REMARK    4  A    between atoms: C_21  and  O_22
REMARK    5  A    between atoms: O_22  and  C_23
REMARK    6  A    between atoms: C_23  and  C_24
REMARK    7  A    between atoms: C_24  and  C_25
REMARK    8  A    between atoms: C_25  and  C_26
REMARK    9  A    between atoms: C_26  and  C_27
REMARK   10  A    between atoms: N_29  and  O_30
REMARK                            x       y       z     vdW  Elec       q    Type
REMARK                         _______ _______ _______ _____ _____    ______ ____
ROOT
ATOM      1  C   UNL     1       2.278   6.164  19.971  0.00  0.00    +0.000 A 
ATOM      2  C   UNL     1       1.524   6.808  20.961  0.00  0.00    +0.000 A 
ATOM      3  C   UNL     1       1.116   8.124  20.848  0.00  0.00    +0.000 A 
ATOM      4  N   UNL     1       0.477   8.658  21.890  0.00  0.00    +0.000 NA
ATOM      5  C   UNL     1       0.154   9.948  21.793  0.00  0.00    +0.000 A 
ATOM      6  N   UNL     1       0.394  10.731  20.744  0.00  0.00    +0.000 NA
ATOM      7  C   UNL     1       1.023  10.179  19.687  0.00  0.00    +0.000 A 
ATOM      8  N   UNL     1       1.284  11.008  18.563  0.00  0.00    +0.000 N 
ATOM      9  C   UNL     1       1.427   8.830  19.683  0.00  0.00    +0.000 A 
ATOM     10  C   UNL     1       2.131   8.171  18.646  0.00  0.00    +0.000 A 
ATOM     11  C   UNL     1       2.532   6.834  18.770  0.00  0.00    +0.000 A 
ATOM     12  H   UNL     1       0.803  10.630  17.749  0.00  0.00    +0.000 HD
ENDROOT
BRANCH   8  13
ATOM     13  C   UNL     1       1.168  12.425  18.615  0.00  0.00    +0.000 A 
ATOM     14  C   UNL     1       2.310  13.206  18.866  0.00  0.00    +0.000 A 
ATOM     15  C   UNL     1       2.214  14.587  19.031  0.00  0.00    +0.000 A 
ATOM     16  C   UNL     1       0.973  15.208  18.924  0.00  0.00    +0.000 A 
ATOM     17 CL   UNL     1       0.848  16.904  19.185  0.00  0.00    +0.000 Cl
ATOM     18  C   UNL     1      -0.167  14.467  18.619  0.00  0.00    +0.000 A 
ATOM     19  C   UNL     1      -0.065  13.081  18.459  0.00  0.00    +0.000 A 
ATOM     20 CL   UNL     1      -1.501  12.184  18.106  0.00  0.00    +0.000 Cl
ENDBRANCH   8  13
BRANCH   1  22
ATOM     21  C   UNL     1       2.106   4.133  21.162  0.00  0.00    +0.000 C 
ATOM     22  O   UNL     1       2.790   4.909  20.174  0.00  0.00    +0.000 OA
ENDBRANCH   1  22
BRANCH  11  23
ATOM     23  O   UNL     1       3.240   6.372  17.695  0.00  0.00    +0.000 OA
BRANCH  23  24
ATOM     24  C   UNL     1       4.386   7.120  17.284  0.00  0.00    +0.000 C 
BRANCH  24  25
ATOM     25  C   UNL     1       5.471   6.125  16.845  0.00  0.00    +0.000 C 
BRANCH  25  26
ATOM     26  C   UNL     1       5.073   5.433  15.538  0.00  0.00    +0.000 C 
BRANCH  26  27
ATOM     27  C   UNL     1       5.948   4.230  15.201  0.00  0.00    +0.000 C 
BRANCH  27  28
ATOM     28  C   UNL     1       6.830   4.526  14.002  0.00  0.00    +0.000 C 
ATOM     29  O   UNL     1       6.714   3.998  12.900  0.00  0.00    +0.000 OA
ATOM     30  N   UNL     1       7.804   5.465  14.249  0.00  0.00    +0.000 N 
ATOM     31  H   UNL     1       7.785   6.111  15.029  0.00  0.00    +0.000 HD
BRANCH  30  32
ATOM     32  O   UNL     1       8.583   5.838  13.128  0.00  0.00    +0.000 OA
ATOM     33  H   UNL     1       8.217   6.725  12.905  0.00  0.00    +0.000 HD
ENDBRANCH  30  32
ENDBRANCH  27  28
ENDBRANCH  26  27
ENDBRANCH  25  26
ENDBRANCH  24  25
ENDBRANCH  23  24
ENDBRANCH  11  23
TORSDOF 9
ENDMDL
MODEL 5
REMARK VINA RESULT:      -7.6      2.094      2.647
REMARK  Name = 
REMARK  10 active torsions:
REMARK  status: ('A' for Active; 'I' for Inactive)
REMARK    1  A    between atoms: C_1  and  O_2
REMARK    2  A    between atoms: O_2  and  C_3
REMARK    3  A    between atoms: N_10  and  C_11
REMARK    4  A    between atoms: C_21  and  O_22
REMARK    5  A    between atoms: O_22  and  C_23
REMARK    6  A    between atoms: C_23  and  C_24
REMARK    7  A    between atoms: C_24  and  C_25
REMARK    8  A    between atoms: C_25  and  C_26
REMARK    9  A    between atoms: C_26  and  C_27
REMARK   10  A    between atoms: N_29  and  O_30
REMARK                            x       y       z     vdW  Elec       q    Type
REMARK                         _______ _______ _______ _____ _____    ______ ____
ROOT
ATOM      1  C   UNL     1       2.296   6.263  19.878  0.00  0.00    +0.000 A 
ATOM      2  C   UNL     1       1.573   6.913  20.887  0.00  0.00    +0.000 A 
ATOM      3  C   UNL     1       1.184   8.236  20.789  0.00  0.00    +0.000 A 
ATOM      4  N   UNL     1       0.576   8.775  21.847  0.00  0.00    +0.000 NA
ATOM      5  C   UNL     1       0.272  10.070  21.763  0.00  0.00    +0.000 A 
ATOM      6  N   UNL     1       0.503  10.856  20.713  0.00  0.00    +0.000 NA
ATOM      7  C   UNL     1       1.101  10.299  19.641  0.00  0.00    +0.000 A 
ATOM      8  N   UNL     1       1.353  11.130  18.516  0.00  0.00    +0.000 N 
ATOM      9  C   UNL     1       1.483   8.944  19.622  0.00  0.00    +0.000 A 
ATOM     10  C   UNL     1       2.155   8.279  18.567  0.00  0.00    +0.000 A 
ATOM     11  C   UNL     1       2.537   6.935  18.676  0.00  0.00    +0.000 A 
ATOM     12  H   UNL     1       0.849  10.764  17.710  0.00  0.00    +0.000 HD
ENDROOT
BRANCH   8  13
ATOM     13  C   UNL     1       1.261  12.548  18.578  0.00  0.00    +0.000 A 
ATOM     14  C   UNL     1       2.413  13.307  18.843  0.00  0.00    +0.000 A 
ATOM     15  C   UNL     1       2.340  14.689  19.018  0.00  0.00    +0.000 A 
ATOM     16  C   UNL     1       1.111  15.332  18.906  0.00  0.00    +0.000 A 
ATOM     17 CL   UNL     1       1.014  17.028  19.179  0.00  0.00    +0.000 Cl
ATOM     18  C   UNL     1      -0.039  14.612  18.588  0.00  0.00    +0.000 A 
ATOM     19  C   UNL     1       0.040  13.227  18.418  0.00  0.00    +0.000 A 
ATOM     20 CL   UNL     1      -1.409  12.357  18.048  0.00  0.00    +0.000 Cl
ENDBRANCH   8  13
BRANCH   1  22
ATOM     21  C   UNL     1       2.248   4.299  21.186  0.00  0.00    +0.000 C 
ATOM     22  O   UNL     1       2.792   4.999  20.064  0.00  0.00    +0.000 OA
ENDBRANCH   1  22
BRANCH  11  23
ATOM     23  O   UNL     1       3.215   6.468  17.584  0.00  0.00    +0.000 OA
BRANCH  23  24
ATOM     24  C   UNL     1       4.545   5.986  17.785  0.00  0.00    +0.000 C 
BRANCH  24  25
ATOM     25  C   UNL     1       5.460   6.674  16.762  0.00  0.00    +0.000 C 
BRANCH  25  26
ATOM     26  C   UNL     1       6.921   6.270  16.985  0.00  0.00    +0.000 C 
BRANCH  26  27
ATOM     27  C   UNL     1       7.217   4.829  16.585  0.00  0.00    +0.000 C 
BRANCH  27  28
ATOM     28  C   UNL     1       7.116   4.657  15.081  0.00  0.00    +0.000 C 
ATOM     29  O   UNL     1       7.703   5.352  14.256  0.00  0.00    +0.000 OA
ATOM     30  N   UNL     1       6.291   3.628  14.694  0.00  0.00    +0.000 N 
ATOM     31  H   UNL     1       5.998   2.875  15.305  0.00  0.00    +0.000 HD
BRANCH  30  32
ATOM     32  O   UNL     1       6.248   3.376  13.303  0.00  0.00    +0.000 OA
ATOM     33  H   UNL     1       5.814   4.189  12.956  0.00  0.00    +0.000 HD
ENDBRANCH  30  32
ENDBRANCH  27  28
ENDBRANCH  26  27
ENDBRANCH  25  26
ENDBRANCH  24  25
ENDBRANCH  23  24
ENDBRANCH  11  23
TORSDOF 9
ENDMDL
MODEL 6
REMARK VINA RESULT:      -7.6      1.618      2.022
REMARK  Name = 
REMARK  10 active torsions:
REMARK  status: ('A' for Active; 'I' for Inactive)
REMARK    1  A    between atoms: C_1  and  O_2
REMARK    2  A    between atoms: O_2  and  C_3
REMARK    3  A    between atoms: N_10  and  C_11
REMARK    4  A    between atoms: C_21  and  O_22
REMARK    5  A    between atoms: O_22  and  C_23
REMARK    6  A    between atoms: C_23  and  C_24
REMARK    7  A    between atoms: C_24  and  C_25
REMARK    8  A    between atoms: C_25  and  C_26
REMARK    9  A    between atoms: C_26  and  C_27
REMARK   10  A    between atoms: N_29  and  O_30
REMARK                            x       y       z     vdW  Elec       q    Type
REMARK                         _______ _______ _______ _____ _____    ______ ____
ROOT
ATOM      1  C   UNL     1       2.370   6.070  19.942  0.00  0.00    +0.000 A 
ATOM      2  C   UNL     1       1.611   6.710  20.931  0.00  0.00    +0.000 A 
ATOM      3  C   UNL     1       1.198   8.024  20.817  0.00  0.00    +0.000 A 
ATOM      4  N   UNL     1       0.555   8.555  21.857  0.00  0.00    +0.000 NA
ATOM      5  C   UNL     1       0.226   9.844  21.759  0.00  0.00    +0.000 A 
ATOM      6  N   UNL     1       0.465  10.628  20.710  0.00  0.00    +0.000 NA
ATOM      7  C   UNL     1       1.098  10.078  19.655  0.00  0.00    +0.000 A 
ATOM      8  N   UNL     1       1.357  10.908  18.531  0.00  0.00    +0.000 N 
ATOM      9  C   UNL     1       1.508   8.732  19.653  0.00  0.00    +0.000 A 
ATOM     10  C   UNL     1       2.217   8.075  18.616  0.00  0.00    +0.000 A 
ATOM     11  C   UNL     1       2.624   6.740  18.742  0.00  0.00    +0.000 A 
ATOM     12  H   UNL     1       0.879  10.528  17.717  0.00  0.00    +0.000 HD
ENDROOT
BRANCH   8  13
ATOM     13  C   UNL     1       1.235  12.325  18.583  0.00  0.00    +0.000 A 
ATOM     14  C   UNL     1       2.370  13.110  18.844  0.00  0.00    +0.000 A 
ATOM     15  C   UNL     1       2.267  14.491  19.009  0.00  0.00    +0.000 A 
ATOM     16  C   UNL     1       1.025  15.107  18.891  0.00  0.00    +0.000 A 
ATOM     17 CL   UNL     1       0.890  16.802  19.151  0.00  0.00    +0.000 Cl
ATOM     18  C   UNL     1      -0.110  14.360  18.575  0.00  0.00    +0.000 A 
ATOM     19  C   UNL     1       0.000  12.976  18.416  0.00  0.00    +0.000 A 
ATOM     20 CL   UNL     1      -1.429  12.072  18.049  0.00  0.00    +0.000 Cl
ENDBRANCH   8  13
BRANCH   1  22
ATOM     21  C   UNL     1       2.224   4.049  21.155  0.00  0.00    +0.000 C 
ATOM     22  O   UNL     1       2.888   4.817  20.147  0.00  0.00    +0.000 OA
ENDBRANCH   1  22
BRANCH  11  23
ATOM     23  O   UNL     1       3.335   6.281  17.669  0.00  0.00    +0.000 OA
BRANCH  23  24
ATOM     24  C   UNL     1       4.103   7.230  16.925  0.00  0.00    +0.000 C 
BRANCH  24  25
ATOM     25  C   UNL     1       5.586   7.008  17.257  0.00  0.00    +0.000 C 
BRANCH  25  26
ATOM     26  C   UNL     1       6.276   6.213  16.144  0.00  0.00    +0.000 C 
BRANCH  26  27
ATOM     27  C   UNL     1       6.031   4.710  16.233  0.00  0.00    +0.000 C 
BRANCH  27  28
ATOM     28  C   UNL     1       6.252   4.213  17.650  0.00  0.00    +0.000 C 
ATOM     29  O   UNL     1       7.303   4.327  18.276  0.00  0.00    +0.000 OA
ATOM     30  N   UNL     1       5.150   3.607  18.204  0.00  0.00    +0.000 N 
ATOM     31  H   UNL     1       4.206   3.716  17.853  0.00  0.00    +0.000 HD
BRANCH  30  32
ATOM     32  O   UNL     1       5.288   3.218  19.557  0.00  0.00    +0.000 OA
ATOM     33  H   UNL     1       4.542   2.586  19.670  0.00  0.00    +0.000 HD
ENDBRANCH  30  32
ENDBRANCH  27  28
ENDBRANCH  26  27
ENDBRANCH  25  26
ENDBRANCH  24  25
ENDBRANCH  23  24
ENDBRANCH  11  23
TORSDOF 9
ENDMDL
MODEL 7
REMARK VINA RESULT:      -7.5      1.871      2.431
REMARK  Name = 
REMARK  10 active torsions:
REMARK  status: ('A' for Active; 'I' for Inactive)
REMARK    1  A    between atoms: C_1  and  O_2
REMARK    2  A    between atoms: O_2  and  C_3
REMARK    3  A    between atoms: N_10  and  C_11
REMARK    4  A    between atoms: C_21  and  O_22
REMARK    5  A    between atoms: O_22  and  C_23
REMARK    6  A    between atoms: C_23  and  C_24
REMARK    7  A    between atoms: C_24  and  C_25
REMARK    8  A    between atoms: C_25  and  C_26
REMARK    9  A    between atoms: C_26  and  C_27
REMARK   10  A    between atoms: N_29  and  O_30
REMARK                            x       y       z     vdW  Elec       q    Type
REMARK                         _______ _______ _______ _____ _____    ______ ____
ROOT
ATOM      1  C   UNL     1       1.952   6.366  20.206  0.00  0.00    +0.000 A 
ATOM      2  C   UNL     1       1.321   7.115  21.209  0.00  0.00    +0.000 A 
ATOM      3  C   UNL     1       1.007   8.452  21.054  0.00  0.00    +0.000 A 
ATOM      4  N   UNL     1       0.487   9.084  22.106  0.00  0.00    +0.000 NA
ATOM      5  C   UNL     1       0.256  10.389  21.961  0.00  0.00    +0.000 A 
ATOM      6  N   UNL     1       0.480  11.100  20.858  0.00  0.00    +0.000 NA
ATOM      7  C   UNL     1       0.988  10.449  19.792  0.00  0.00    +0.000 A 
ATOM      8  N   UNL     1       1.230  11.200  18.610  0.00  0.00    +0.000 N 
ATOM      9  C   UNL     1       1.287   9.074  19.834  0.00  0.00    +0.000 A 
ATOM     10  C   UNL     1       1.863   8.311  18.788  0.00  0.00    +0.000 A 
ATOM     11  C   UNL     1       2.170   6.954  18.957  0.00  0.00    +0.000 A 
ATOM     12  H   UNL     1       0.665  10.823  17.853  0.00  0.00    +0.000 HD
ENDROOT
BRANCH   8  13
ATOM     13  C   UNL     1       1.226  12.622  18.595  0.00  0.00    +0.000 A 
ATOM     14  C   UNL     1       2.440  13.321  18.709  0.00  0.00    +0.000 A 
ATOM     15  C   UNL     1       2.462  14.712  18.806  0.00  0.00    +0.000 A 
ATOM     16  C   UNL     1       1.267  15.424  18.765  0.00  0.00    +0.000 A 
ATOM     17 CL   UNL     1       1.293  17.135  18.943  0.00  0.00    +0.000 Cl
ATOM     18  C   UNL     1       0.053  14.761  18.595  0.00  0.00    +0.000 A 
ATOM     19  C   UNL     1       0.037  13.366  18.503  0.00  0.00    +0.000 A 
ATOM     20 CL   UNL     1      -1.488  12.570  18.316  0.00  0.00    +0.000 Cl
ENDBRANCH   8  13
BRANCH   1  22
ATOM     21  C   UNL     1       1.386   4.074  20.256  0.00  0.00    +0.000 C 
ATOM     22  O   UNL     1       2.381   5.086  20.442  0.00  0.00    +0.000 OA
ENDBRANCH   1  22
BRANCH  11  23
ATOM     23  O   UNL     1       2.762   6.387  17.863  0.00  0.00    +0.000 OA
BRANCH  23  24
ATOM     24  C   UNL     1       4.186   6.460  17.766  0.00  0.00    +0.000 C 
BRANCH  24  25
ATOM     25  C   UNL     1       4.760   5.090  18.156  0.00  0.00    +0.000 C 
BRANCH  25  26
ATOM     26  C   UNL     1       5.958   5.254  19.096  0.00  0.00    +0.000 C 
BRANCH  26  27
ATOM     27  C   UNL     1       7.127   6.002  18.461  0.00  0.00    +0.000 C 
BRANCH  27  28
ATOM     28  C   UNL     1       7.583   5.307  17.192  0.00  0.00    +0.000 C 
ATOM     29  O   UNL     1       8.081   4.185  17.148  0.00  0.00    +0.000 OA
ATOM     30  N   UNL     1       7.392   6.051  16.052  0.00  0.00    +0.000 N 
ATOM     31  H   UNL     1       6.764   6.845  15.991  0.00  0.00    +0.000 HD
BRANCH  30  32
ATOM     32  O   UNL     1       7.715   5.398  14.840  0.00  0.00    +0.000 OA
ATOM     33  H   UNL     1       7.200   5.915  14.179  0.00  0.00    +0.000 HD
ENDBRANCH  30  32
ENDBRANCH  27  28
ENDBRANCH  26  27
ENDBRANCH  25  26
ENDBRANCH  24  25
ENDBRANCH  23  24
ENDBRANCH  11  23
TORSDOF 9
ENDMDL
MODEL 8
REMARK VINA RESULT:      -7.4      2.545      4.386
REMARK  Name = 
REMARK  10 active torsions:
REMARK  status: ('A' for Active; 'I' for Inactive)
REMARK    1  A    between atoms: C_1  and  O_2
REMARK    2  A    between atoms: O_2  and  C_3
REMARK    3  A    between atoms: N_10  and  C_11
REMARK    4  A    between atoms: C_21  and  O_22
REMARK    5  A    between atoms: O_22  and  C_23
REMARK    6  A    between atoms: C_23  and  C_24
REMARK    7  A    between atoms: C_24  and  C_25
REMARK    8  A    between atoms: C_25  and  C_26
REMARK    9  A    between atoms: C_26  and  C_27
REMARK   10  A    between atoms: N_29  and  O_30
REMARK                            x       y       z     vdW  Elec       q    Type
REMARK                         _______ _______ _______ _____ _____    ______ ____
ROOT
ATOM      1  C   UNL     1       3.401   6.300  18.000  0.00  0.00    +0.000 A 
ATOM      2  C   UNL     1       3.330   7.581  17.437  0.00  0.00    +0.000 A 
ATOM      3  C   UNL     1       2.623   8.614  18.022  0.00  0.00    +0.000 A 
ATOM      4  N   UNL     1       2.554   9.766  17.354  0.00  0.00    +0.000 NA
ATOM      5  C   UNL     1       1.809  10.727  17.899  0.00  0.00    +0.000 A 
ATOM      6  N   UNL     1       1.153  10.641  19.054  0.00  0.00    +0.000 NA
ATOM      7  C   UNL     1       1.244   9.480  19.734  0.00  0.00    +0.000 A 
ATOM      8  N   UNL     1       0.547   9.378  20.968  0.00  0.00    +0.000 N 
ATOM      9  C   UNL     1       1.988   8.389  19.247  0.00  0.00    +0.000 A 
ATOM     10  C   UNL     1       2.108   7.117  19.860  0.00  0.00    +0.000 A 
ATOM     11  C   UNL     1       2.835   6.081  19.259  0.00  0.00    +0.000 A 
ATOM     12  H   UNL     1       1.215   9.208  21.717  0.00  0.00    +0.000 HD
ENDROOT
BRANCH   8  13
ATOM     13  C   UNL     1      -0.442  10.319  21.367  0.00  0.00    +0.000 A 
ATOM     14  C   UNL     1      -1.088  11.102  20.394  0.00  0.00    +0.000 A 
ATOM     15  C   UNL     1      -1.982  12.108  20.757  0.00  0.00    +0.000 A 
ATOM     16  C   UNL     1      -2.260  12.328  22.103  0.00  0.00    +0.000 A 
ATOM     17 CL   UNL     1      -3.319  13.607  22.551  0.00  0.00    +0.000 Cl
ATOM     18  C   UNL     1      -1.679  11.530  23.086  0.00  0.00    +0.000 A 
ATOM     19  C   UNL     1      -0.779  10.526  22.716  0.00  0.00    +0.000 A 
ATOM     20 CL   UNL     1      -0.055   9.567  23.960  0.00  0.00    +0.000 Cl
ENDBRANCH   8  13
BRANCH   1  22
ATOM     21  C   UNL     1       4.992   5.646  16.383  0.00  0.00    +0.000 C 
ATOM     22  O   UNL     1       3.987   5.261  17.325  0.00  0.00    +0.000 OA
ENDBRANCH   1  22
BRANCH  11  23
ATOM     23  O   UNL     1       2.807   4.911  19.965  0.00  0.00    +0.000 OA
BRANCH  23  24
ATOM     24  C   UNL     1       1.786   4.755  20.954  0.00  0.00    +0.000 C 
BRANCH  24  25
ATOM     25  C   UNL     1       1.270   3.311  20.882  0.00  0.00    +0.000 C 
BRANCH  25  26
ATOM     26  C   UNL     1       1.407   2.758  19.460  0.00  0.00    +0.000 C 
BRANCH  26  27
ATOM     27  C   UNL     1       2.463   1.664  19.337  0.00  0.00    +0.000 C 
BRANCH  27  28
ATOM     28  C   UNL     1       3.700   2.189  18.631  0.00  0.00    +0.000 C 
ATOM     29  O   UNL     1       3.908   2.099  17.424  0.00  0.00    +0.000 OA
ATOM     30  N   UNL     1       4.603   2.796  19.471  0.00  0.00    +0.000 N 
ATOM     31  H   UNL     1       4.377   3.129  20.401  0.00  0.00    +0.000 HD
BRANCH  30  32
ATOM     32  O   UNL     1       5.721   3.384  18.835  0.00  0.00    +0.000 OA
ATOM     33  H   UNL     1       6.234   3.738  19.598  0.00  0.00    +0.000 HD
ENDBRANCH  30  32
ENDBRANCH  27  28
ENDBRANCH  26  27
ENDBRANCH  25  26
ENDBRANCH  24  25
ENDBRANCH  23  24
ENDBRANCH  11  23
TORSDOF 9
ENDMDL
MODEL 9
REMARK VINA RESULT:      -7.3      2.475      3.244
REMARK  Name = 
REMARK  10 active torsions:
REMARK  status: ('A' for Active; 'I' for Inactive)
REMARK    1  A    between atoms: C_1  and  O_2
REMARK    2  A    between atoms: O_2  and  C_3
REMARK    3  A    between atoms: N_10  and  C_11
REMARK    4  A    between atoms: C_21  and  O_22
REMARK    5  A    between atoms: O_22  and  C_23
REMARK    6  A    between atoms: C_23  and  C_24
REMARK    7  A    between atoms: C_24  and  C_25
REMARK    8  A    between atoms: C_25  and  C_26
REMARK    9  A    between atoms: C_26  and  C_27
REMARK   10  A    between atoms: N_29  and  O_30
REMARK                            x       y       z     vdW  Elec       q    Type
REMARK                         _______ _______ _______ _____ _____    ______ ____
ROOT
ATOM      1  C   UNL     1       3.919   5.207  18.804  0.00  0.00    +0.000 A 
ATOM      2  C   UNL     1       3.043   5.512  19.854  0.00  0.00    +0.000 A 
ATOM      3  C   UNL     1       2.311   6.684  19.896  0.00  0.00    +0.000 A 
ATOM      4  N   UNL     1       1.575   6.907  20.985  0.00  0.00    +0.000 NA
ATOM      5  C   UNL     1       0.932   8.073  21.041  0.00  0.00    +0.000 A 
ATOM      6  N   UNL     1       0.947   9.014  20.099  0.00  0.00    +0.000 NA
ATOM      7  C   UNL     1       1.678   8.772  18.992  0.00  0.00    +0.000 A 
ATOM      8  N   UNL     1       1.701   9.771  17.981  0.00  0.00    +0.000 N 
ATOM      9  C   UNL     1       2.413   7.582  18.831  0.00  0.00    +0.000 A 
ATOM     10  C   UNL     1       3.244   7.255  17.731  0.00  0.00    +0.000 A 
ATOM     11  C   UNL     1       3.975   6.059  17.698  0.00  0.00    +0.000 A 
ATOM     12  H   UNL     1       1.318   9.384  17.120  0.00  0.00    +0.000 HD
ENDROOT
BRANCH   8  13
ATOM     13  C   UNL     1       1.228  11.094  18.204  0.00  0.00    +0.000 A 
ATOM     14  C   UNL     1       2.144  12.116  18.507  0.00  0.00    +0.000 A 
ATOM     15  C   UNL     1       1.707  13.398  18.837  0.00  0.00    +0.000 A 
ATOM     16  C   UNL     1       0.344  13.680  18.844  0.00  0.00    +0.000 A 
ATOM     17 CL   UNL     1      -0.195  15.247  19.307  0.00  0.00    +0.000 Cl
ATOM     18  C   UNL     1      -0.584  12.702  18.491  0.00  0.00    +0.000 A 
ATOM     19  C   UNL     1      -0.139  11.417  18.166  0.00  0.00    +0.000 A 
ATOM     20 CL   UNL     1      -1.316  10.216  17.756  0.00  0.00    +0.000 Cl
ENDBRANCH   8  13
BRANCH   1  22
ATOM     21  C   UNL     1       4.231   3.020  19.638  0.00  0.00    +0.000 C 
ATOM     22  O   UNL     1       4.738   4.109  18.861  0.00  0.00    +0.000 OA
ENDBRANCH   1  22
BRANCH  11  23
ATOM     23  O   UNL     1       4.758   5.927  16.585  0.00  0.00    +0.000 OA
BRANCH  23  24
ATOM     24  C   UNL     1       6.031   5.294  16.740  0.00  0.00    +0.000 C 
BRANCH  24  25
ATOM     25  C   UNL     1       6.184   4.254  15.621  0.00  0.00    +0.000 C 
BRANCH  25  26
ATOM     26  C   UNL     1       5.840   4.869  14.261  0.00  0.00    +0.000 C 
BRANCH  26  27
ATOM     27  C   UNL     1       5.256   3.863  13.274  0.00  0.00    +0.000 C 
BRANCH  27  28
ATOM     28  C   UNL     1       6.317   3.395  12.294  0.00  0.00    +0.000 C 
ATOM     29  O   UNL     1       7.219   4.100  11.849  0.00  0.00    +0.000 OA
ATOM     30  N   UNL     1       6.191   2.077  11.927  0.00  0.00    +0.000 N 
ATOM     31  H   UNL     1       5.650   1.393  12.444  0.00  0.00    +0.000 HD
BRANCH  30  32
ATOM     32  O   UNL     1       7.218   1.579  11.092  0.00  0.00    +0.000 OA
ATOM     33  H   UNL     1       6.770   0.833  10.631  0.00  0.00    +0.000 HD
ENDBRANCH  30  32
ENDBRANCH  27  28
ENDBRANCH  26  27
ENDBRANCH  25  26
ENDBRANCH  24  25
ENDBRANCH  23  24
ENDBRANCH  11  23
TORSDOF 9
ENDMDL
