MODEL 1
REMARK VINA RESULT:      -6.1      0.000      0.000
REMARK  Name = 
REMARK  8 active torsions:
REMARK  status: ('A' for Active; 'I' for Inactive)
REMARK    1  A    between atoms: C_1  and  N_2
REMARK    2  A    between atoms: C_6  and  C_7
REMARK    3  A    between atoms: C_7  and  C_8
REMARK    4  A    between atoms: C_8  and  N_9
REMARK    5  A    between atoms: C_10  and  C_12
REMARK    6  A    between atoms: C_12  and  O_13
REMARK    7  A    between atoms: O_13  and  C_14
REMARK    8  A    between atoms: C_14  and  C_15
REMARK                            x       y       z     vdW  Elec       q    Type
REMARK                         _______ _______ _______ _____ _____    ______ ____
ROOT
ATOM      1  N   UNL     1       5.176   5.026  17.190  0.00  0.00    +0.000 N 
ATOM      2  C   UNL     1       4.812   6.317  16.895  0.00  0.00    +0.000 C 
ATOM      3  O   UNL     1       5.362   6.994  16.021  0.00  0.00    +0.000 OA
ATOM      4  H   UNL     1       4.757   4.557  17.990  0.00  0.00    +0.000 HD
ENDROOT
BRANCH   1   5
ATOM      5  C   UNL     1       6.280   4.367  16.515  0.00  0.00    +0.000 C 
BRANCH   5   6
ATOM      6  C   UNL     1       5.912   3.723  15.166  0.00  0.00    +0.000 C 
BRANCH   6  12
ATOM      7  C   UNL     1       5.652   2.943  12.133  0.00  0.00    +0.000 C 
ATOM      8  N   UNL     1       6.534   3.940  12.690  0.00  0.00    +0.000 N 
ATOM      9  C   UNL     1       7.411   4.691  11.952  0.00  0.00    +0.000 A 
ATOM     10  C   UNL     1       8.055   5.490  12.860  0.00  0.00    +0.000 A 
ATOM     11  N   UNL     1       7.594   5.253  14.125  0.00  0.00    +0.000 NA
ATOM     12  C   UNL     1       6.669   4.317  14.011  0.00  0.00    +0.000 A 
ENDBRANCH   6  12
ENDBRANCH   5   6
ENDBRANCH   1   5
BRANCH   2  13
ATOM     13  C   UNL     1       3.668   6.874  17.746  0.00  0.00    +0.000 C 
BRANCH  13  14
ATOM     14  O   UNL     1       3.621   6.359  19.072  0.00  0.00    +0.000 OA
BRANCH  14  15
ATOM     15  C   UNL     1       2.344   5.790  19.375  0.00  0.00    +0.000 C 
BRANCH  15  16
ATOM     16  C   UNL     1       2.422   4.260  19.349  0.00  0.00    +0.000 C 
ATOM     17  C   UNL     1       1.920   3.709  18.009  0.00  0.00    +0.000 C 
ATOM     18  C   UNL     1       2.113   2.199  17.942  0.00  0.00    +0.000 C 
ATOM     19  C   UNL     1       3.555   1.836  18.274  0.00  0.00    +0.000 C 
ATOM     20  C   UNL     1       3.969   2.466  19.597  0.00  0.00    +0.000 C 
ATOM     21  O   UNL     1       3.791   3.882  19.560  0.00  0.00    +0.000 OA
ENDBRANCH  15  16
ENDBRANCH  14  15
ENDBRANCH  13  14
ENDBRANCH   2  13
TORSDOF 7
ENDMDL
MODEL 2
REMARK VINA RESULT:      -6.0      3.387      6.041
REMARK  Name = 
REMARK  8 active torsions:
REMARK  status: ('A' for Active; 'I' for Inactive)
REMARK    1  A    between atoms: C_1  and  N_2
REMARK    2  A    between atoms: C_6  and  C_7
REMARK    3  A    between atoms: C_7  and  C_8
REMARK    4  A    between atoms: C_8  and  N_9
REMARK    5  A    between atoms: C_10  and  C_12
REMARK    6  A    between atoms: C_12  and  O_13
REMARK    7  A    between atoms: O_13  and  C_14
REMARK    8  A    between atoms: C_14  and  C_15
REMARK                            x       y       z     vdW  Elec       q    Type
REMARK                         _______ _______ _______ _____ _____    ______ ____
ROOT
ATOM      1  N   UNL     1       2.159   5.635  19.391  0.00  0.00    +0.000 N 
ATOM      2  C   UNL     1       3.452   5.844  18.976  0.00  0.00    +0.000 C 
ATOM      3  O   UNL     1       4.436   5.626  19.689  0.00  0.00    +0.000 OA
ATOM      4  H   UNL     1       1.388   5.932  18.797  0.00  0.00    +0.000 HD
ENDROOT
BRANCH   1   5
ATOM      5  C   UNL     1       1.848   5.178  20.734  0.00  0.00    +0.000 C 
BRANCH   5   6
ATOM      6  C   UNL     1       1.696   3.653  20.870  0.00  0.00    +0.000 C 
BRANCH   6  12
ATOM      7  C   UNL     1       4.427   2.134  20.524  0.00  0.00    +0.000 C 
ATOM      8  N   UNL     1       3.383   2.261  19.535  0.00  0.00    +0.000 N 
ATOM      9  C   UNL     1       3.451   1.733  18.273  0.00  0.00    +0.000 A 
ATOM     10  C   UNL     1       2.276   2.093  17.666  0.00  0.00    +0.000 A 
ATOM     11  N   UNL     1       1.494   2.818  18.522  0.00  0.00    +0.000 NA
ATOM     12  C   UNL     1       2.170   2.909  19.653  0.00  0.00    +0.000 A 
ENDBRANCH   6  12
ENDBRANCH   5   6
ENDBRANCH   1   5
BRANCH   2  13
ATOM     13  C   UNL     1       3.592   6.385  17.552  0.00  0.00    +0.000 C 
BRANCH  13  14
ATOM     14  O   UNL     1       4.207   5.481  16.641  0.00  0.00    +0.000 OA
BRANCH  14  15
ATOM     15  C   UNL     1       5.238   6.116  15.879  0.00  0.00    +0.000 C 
BRANCH  15  16
ATOM     16  C   UNL     1       6.576   6.038  16.623  0.00  0.00    +0.000 C 
ATOM     17  C   UNL     1       6.776   7.265  17.520  0.00  0.00    +0.000 C 
ATOM     18  C   UNL     1       8.047   7.126  18.347  0.00  0.00    +0.000 C 
ATOM     19  C   UNL     1       8.051   5.795  19.088  0.00  0.00    +0.000 C 
ATOM     20  C   UNL     1       7.801   4.648  18.119  0.00  0.00    +0.000 C 
ATOM     21  O   UNL     1       6.575   4.840  17.413  0.00  0.00    +0.000 OA
ENDBRANCH  15  16
ENDBRANCH  14  15
ENDBRANCH  13  14
ENDBRANCH   2  13
TORSDOF 7
ENDMDL
MODEL 3
REMARK VINA RESULT:      -6.0      2.127      3.205
REMARK  Name = 
REMARK  8 active torsions:
REMARK  status: ('A' for Active; 'I' for Inactive)
REMARK    1  A    between atoms: C_1  and  N_2
REMARK    2  A    between atoms: C_6  and  C_7
REMARK    3  A    between atoms: C_7  and  C_8
REMARK    4  A    between atoms: C_8  and  N_9
REMARK    5  A    between atoms: C_10  and  C_12
REMARK    6  A    between atoms: C_12  and  O_13
REMARK    7  A    between atoms: O_13  and  C_14
REMARK    8  A    between atoms: C_14  and  C_15
REMARK                            x       y       z     vdW  Elec       q    Type
REMARK                         _______ _______ _______ _____ _____    ______ ____
ROOT
ATOM      1  N   UNL     1       3.208   6.180  18.781  0.00  0.00    +0.000 N 
ATOM      2  C   UNL     1       2.355   6.797  19.663  0.00  0.00    +0.000 C 
ATOM      3  O   UNL     1       1.991   7.972  19.544  0.00  0.00    +0.000 OA
ATOM      4  H   UNL     1       3.554   5.246  18.989  0.00  0.00    +0.000 HD
ENDROOT
BRANCH   1   5
ATOM      5  C   UNL     1       3.787   6.886  17.651  0.00  0.00    +0.000 C 
BRANCH   5   6
ATOM      6  C   UNL     1       5.324   6.832  17.584  0.00  0.00    +0.000 C 
BRANCH   6  12
ATOM      7  C   UNL     1       7.541   4.617  17.819  0.00  0.00    +0.000 C 
ATOM      8  N   UNL     1       6.813   4.980  16.627  0.00  0.00    +0.000 N 
ATOM      9  C   UNL     1       7.007   4.401  15.401  0.00  0.00    +0.000 A 
ATOM     10  C   UNL     1       6.136   5.040  14.557  0.00  0.00    +0.000 A 
ATOM     11  N   UNL     1       5.416   5.985  15.233  0.00  0.00    +0.000 NA
ATOM     12  C   UNL     1       5.828   5.937  16.487  0.00  0.00    +0.000 A 
ENDBRANCH   6  12
ENDBRANCH   5   6
ENDBRANCH   1   5
BRANCH   2  13
ATOM     13  C   UNL     1       1.889   5.923  20.828  0.00  0.00    +0.000 C 
BRANCH  13  14
ATOM     14  O   UNL     1       1.003   4.874  20.454  0.00  0.00    +0.000 OA
BRANCH  14  15
ATOM     15  C   UNL     1       1.413   3.615  20.997  0.00  0.00    +0.000 C 
BRANCH  15  16
ATOM     16  C   UNL     1       2.266   2.848  19.981  0.00  0.00    +0.000 C 
ATOM     17  C   UNL     1       1.641   2.911  18.583  0.00  0.00    +0.000 C 
ATOM     18  C   UNL     1       2.553   2.252  17.555  0.00  0.00    +0.000 C 
ATOM     19  C   UNL     1       3.957   2.835  17.646  0.00  0.00    +0.000 C 
ATOM     20  C   UNL     1       4.469   2.766  19.078  0.00  0.00    +0.000 C 
ATOM     21  O   UNL     1       3.575   3.437  19.967  0.00  0.00    +0.000 OA
ENDBRANCH  15  16
ENDBRANCH  14  15
ENDBRANCH  13  14
ENDBRANCH   2  13
TORSDOF 7
ENDMDL
MODEL 4
REMARK VINA RESULT:      -5.9      5.235      6.309
REMARK  Name = 
REMARK  8 active torsions:
REMARK  status: ('A' for Active; 'I' for Inactive)
REMARK    1  A    between atoms: C_1  and  N_2
REMARK    2  A    between atoms: C_6  and  C_7
REMARK    3  A    between atoms: C_7  and  C_8
REMARK    4  A    between atoms: C_8  and  N_9
REMARK    5  A    between atoms: C_10  and  C_12
REMARK    6  A    between atoms: C_12  and  O_13
REMARK    7  A    between atoms: O_13  and  C_14
REMARK    8  A    between atoms: C_14  and  C_15
REMARK                            x       y       z     vdW  Elec       q    Type
REMARK                         _______ _______ _______ _____ _____    ______ ____
ROOT
ATOM      1  N   UNL     1       8.438   7.918  18.682  0.00  0.00    +0.000 N 
ATOM      2  C   UNL     1       7.672   6.989  18.020  0.00  0.00    +0.000 C 
ATOM      3  O   UNL     1       7.072   7.230  16.968  0.00  0.00    +0.000 OA
ATOM      4  H   UNL     1       8.820   7.692  19.597  0.00  0.00    +0.000 HD
ENDROOT
BRANCH   1   5
ATOM      5  C   UNL     1       8.565   9.285  18.208  0.00  0.00    +0.000 C 
BRANCH   5   6
ATOM      6  C   UNL     1       9.204  10.254  19.218  0.00  0.00    +0.000 C 
BRANCH   6  12
ATOM      7  C   UNL     1       8.242  12.710  17.508  0.00  0.00    +0.000 C 
ATOM      8  N   UNL     1       9.609  12.355  17.808  0.00  0.00    +0.000 N 
ATOM      9  C   UNL     1      10.700  13.053  17.363  0.00  0.00    +0.000 A 
ATOM     10  C   UNL     1      11.787  12.378  17.856  0.00  0.00    +0.000 A 
ATOM     11  N   UNL     1      11.389  11.296  18.591  0.00  0.00    +0.000 NA
ATOM     12  C   UNL     1      10.069  11.294  18.561  0.00  0.00    +0.000 A 
ENDBRANCH   6  12
ENDBRANCH   5   6
ENDBRANCH   1   5
BRANCH   2  13
ATOM     13  C   UNL     1       7.600   5.617  18.693  0.00  0.00    +0.000 C 
BRANCH  13  14
ATOM     14  O   UNL     1       6.605   4.753  18.154  0.00  0.00    +0.000 OA
BRANCH  14  15
ATOM     15  C   UNL     1       5.514   4.570  19.061  0.00  0.00    +0.000 C 
BRANCH  15  16
ATOM     16  C   UNL     1       4.279   4.057  18.312  0.00  0.00    +0.000 C 
ATOM     17  C   UNL     1       3.835   2.694  18.857  0.00  0.00    +0.000 C 
ATOM     18  C   UNL     1       2.539   2.246  18.193  0.00  0.00    +0.000 C 
ATOM     19  C   UNL     1       1.486   3.341  18.298  0.00  0.00    +0.000 C 
ATOM     20  C   UNL     1       2.038   4.659  17.775  0.00  0.00    +0.000 C 
ATOM     21  O   UNL     1       3.229   5.022  18.474  0.00  0.00    +0.000 OA
ENDBRANCH  15  16
ENDBRANCH  14  15
ENDBRANCH  13  14
ENDBRANCH   2  13
TORSDOF 7
ENDMDL
MODEL 5
REMARK VINA RESULT:      -5.9      2.476      3.775
REMARK  Name = 
REMARK  8 active torsions:
REMARK  status: ('A' for Active; 'I' for Inactive)
REMARK    1  A    between atoms: C_1  and  N_2
REMARK    2  A    between atoms: C_6  and  C_7
REMARK    3  A    between atoms: C_7  and  C_8
REMARK    4  A    between atoms: C_8  and  N_9
REMARK    5  A    between atoms: C_10  and  C_12
REMARK    6  A    between atoms: C_12  and  O_13
REMARK    7  A    between atoms: O_13  and  C_14
REMARK    8  A    between atoms: C_14  and  C_15
REMARK                            x       y       z     vdW  Elec       q    Type
REMARK                         _______ _______ _______ _____ _____    ______ ____
ROOT
ATOM      1  N   UNL     1       2.817   6.057  18.926  0.00  0.00    +0.000 N 
ATOM      2  C   UNL     1       2.157   6.664  19.966  0.00  0.00    +0.000 C 
ATOM      3  O   UNL     1       2.016   7.887  20.058  0.00  0.00    +0.000 OA
ATOM      4  H   UNL     1       2.993   5.056  18.959  0.00  0.00    +0.000 HD
ENDROOT
BRANCH   1   5
ATOM      5  C   UNL     1       3.446   6.824  17.864  0.00  0.00    +0.000 C 
BRANCH   5   6
ATOM      6  C   UNL     1       4.395   6.012  16.966  0.00  0.00    +0.000 C 
BRANCH   6  12
ATOM      7  C   UNL     1       6.901   4.611  15.685  0.00  0.00    +0.000 C 
ATOM      8  N   UNL     1       6.753   5.013  17.063  0.00  0.00    +0.000 N 
ATOM      9  C   UNL     1       7.706   4.820  18.027  0.00  0.00    +0.000 A 
ATOM     10  C   UNL     1       7.163   5.327  19.180  0.00  0.00    +0.000 A 
ATOM     11  N   UNL     1       5.913   5.827  18.944  0.00  0.00    +0.000 NA
ATOM     12  C   UNL     1       5.676   5.638  17.659  0.00  0.00    +0.000 A 
ENDBRANCH   6  12
ENDBRANCH   5   6
ENDBRANCH   1   5
BRANCH   2  13
ATOM     13  C   UNL     1       1.610   5.708  21.027  0.00  0.00    +0.000 C 
BRANCH  13  14
ATOM     14  O   UNL     1       0.860   4.618  20.502  0.00  0.00    +0.000 OA
BRANCH  14  15
ATOM     15  C   UNL     1       1.275   3.369  21.063  0.00  0.00    +0.000 C 
BRANCH  15  16
ATOM     16  C   UNL     1       2.143   2.597  20.063  0.00  0.00    +0.000 C 
ATOM     17  C   UNL     1       1.542   2.661  18.654  0.00  0.00    +0.000 C 
ATOM     18  C   UNL     1       2.469   1.996  17.643  0.00  0.00    +0.000 C 
ATOM     19  C   UNL     1       3.874   2.572  17.758  0.00  0.00    +0.000 C 
ATOM     20  C   UNL     1       4.360   2.502  19.199  0.00  0.00    +0.000 C 
ATOM     21  O   UNL     1       3.455   3.179  20.071  0.00  0.00    +0.000 OA
ENDBRANCH  15  16
ENDBRANCH  14  15
ENDBRANCH  13  14
ENDBRANCH   2  13
TORSDOF 7
ENDMDL
MODEL 6
REMARK VINA RESULT:      -5.9      5.239      6.260
REMARK  Name = 
REMARK  8 active torsions:
REMARK  status: ('A' for Active; 'I' for Inactive)
REMARK    1  A    between atoms: C_1  and  N_2
REMARK    2  A    between atoms: C_6  and  C_7
REMARK    3  A    between atoms: C_7  and  C_8
REMARK    4  A    between atoms: C_8  and  N_9
REMARK    5  A    between atoms: C_10  and  C_12
REMARK    6  A    between atoms: C_12  and  O_13
REMARK    7  A    between atoms: O_13  and  C_14
REMARK    8  A    between atoms: C_14  and  C_15
REMARK                            x       y       z     vdW  Elec       q    Type
REMARK                         _______ _______ _______ _____ _____    ______ ____
ROOT
ATOM      1  N   UNL     1       8.335   7.971  18.690  0.00  0.00    +0.000 N 
ATOM      2  C   UNL     1       7.749   7.016  17.896  0.00  0.00    +0.000 C 
ATOM      3  O   UNL     1       7.460   7.203  16.710  0.00  0.00    +0.000 OA
ATOM      4  H   UNL     1       8.451   7.794  19.685  0.00  0.00    +0.000 HD
ENDROOT
BRANCH   1   5
ATOM      5  C   UNL     1       8.623   9.307  18.197  0.00  0.00    +0.000 C 
BRANCH   5   6
ATOM      6  C   UNL     1       9.209  10.263  19.251  0.00  0.00    +0.000 C 
BRANCH   6  12
ATOM      7  C   UNL     1       8.290  12.727  17.529  0.00  0.00    +0.000 C 
ATOM      8  N   UNL     1       9.646  12.389  17.889  0.00  0.00    +0.000 N 
ATOM      9  C   UNL     1      10.746  13.110  17.505  0.00  0.00    +0.000 A 
ATOM     10  C   UNL     1      11.819  12.445  18.041  0.00  0.00    +0.000 A 
ATOM     11  N   UNL     1      11.404  11.347  18.741  0.00  0.00    +0.000 NA
ATOM     12  C   UNL     1      10.088  11.325  18.649  0.00  0.00    +0.000 A 
ENDBRANCH   6  12
ENDBRANCH   5   6
ENDBRANCH   1   5
BRANCH   2  13
ATOM     13  C   UNL     1       7.460   5.686  18.595  0.00  0.00    +0.000 C 
BRANCH  13  14
ATOM     14  O   UNL     1       6.190   5.624  19.233  0.00  0.00    +0.000 OA
BRANCH  14  15
ATOM     15  C   UNL     1       5.117   5.702  18.289  0.00  0.00    +0.000 C 
BRANCH  15  16
ATOM     16  C   UNL     1       4.047   4.654  18.610  0.00  0.00    +0.000 C 
ATOM     17  C   UNL     1       2.737   4.967  17.878  0.00  0.00    +0.000 C 
ATOM     18  C   UNL     1       1.715   3.859  18.105  0.00  0.00    +0.000 C 
ATOM     19  C   UNL     1       2.322   2.505  17.763  0.00  0.00    +0.000 C 
ATOM     20  C   UNL     1       3.638   2.310  18.504  0.00  0.00    +0.000 C 
ATOM     21  O   UNL     1       4.547   3.370  18.208  0.00  0.00    +0.000 OA
ENDBRANCH  15  16
ENDBRANCH  14  15
ENDBRANCH  13  14
ENDBRANCH   2  13
TORSDOF 7
ENDMDL
MODEL 7
REMARK VINA RESULT:      -5.8      5.588      8.263
REMARK  Name = 
REMARK  8 active torsions:
REMARK  status: ('A' for Active; 'I' for Inactive)
REMARK    1  A    between atoms: C_1  and  N_2
REMARK    2  A    between atoms: C_6  and  C_7
REMARK    3  A    between atoms: C_7  and  C_8
REMARK    4  A    between atoms: C_8  and  N_9
REMARK    5  A    between atoms: C_10  and  C_12
REMARK    6  A    between atoms: C_12  and  O_13
REMARK    7  A    between atoms: O_13  and  C_14
REMARK    8  A    between atoms: C_14  and  C_15
REMARK                            x       y       z     vdW  Elec       q    Type
REMARK                         _______ _______ _______ _____ _____    ______ ____
ROOT
ATOM      1  N   UNL     1       7.232   7.120  16.693  0.00  0.00    +0.000 N 
ATOM      2  C   UNL     1       7.780   7.639  17.840  0.00  0.00    +0.000 C 
ATOM      3  O   UNL     1       8.158   6.942  18.787  0.00  0.00    +0.000 OA
ATOM      4  H   UNL     1       6.843   7.749  15.994  0.00  0.00    +0.000 HD
ENDROOT
BRANCH   1   5
ATOM      5  C   UNL     1       7.014   5.694  16.524  0.00  0.00    +0.000 C 
BRANCH   5   6
ATOM      6  C   UNL     1       5.623   5.321  15.981  0.00  0.00    +0.000 C 
BRANCH   6  12
ATOM      7  C   UNL     1       3.598   3.356  17.367  0.00  0.00    +0.000 C 
ATOM      8  N   UNL     1       3.635   4.792  17.509  0.00  0.00    +0.000 N 
ATOM      9  C   UNL     1       2.759   5.511  18.277  0.00  0.00    +0.000 A 
ATOM     10  C   UNL     1       3.132   6.821  18.121  0.00  0.00    +0.000 A 
ATOM     11  N   UNL     1       4.211   6.918  17.287  0.00  0.00    +0.000 NA
ATOM     12  C   UNL     1       4.512   5.685  16.926  0.00  0.00    +0.000 A 
ENDBRANCH   6  12
ENDBRANCH   5   6
ENDBRANCH   1   5
BRANCH   2  13
ATOM     13  C   UNL     1       7.880   9.166  17.873  0.00  0.00    +0.000 C 
BRANCH  13  14
ATOM     14  O   UNL     1       9.191   9.660  18.121  0.00  0.00    +0.000 OA
BRANCH  14  15
ATOM     15  C   UNL     1       9.252  10.418  19.333  0.00  0.00    +0.000 C 
BRANCH  15  16
ATOM     16  C   UNL     1       9.954  11.758  19.090  0.00  0.00    +0.000 C 
ATOM     17  C   UNL     1      11.234  11.866  19.927  0.00  0.00    +0.000 C 
ATOM     18  C   UNL     1      11.990  13.145  19.592  0.00  0.00    +0.000 C 
ATOM     19  C   UNL     1      12.209  13.250  18.088  0.00  0.00    +0.000 C 
ATOM     20  C   UNL     1      10.889  13.086  17.348  0.00  0.00    +0.000 C 
ATOM     21  O   UNL     1      10.266  11.848  17.692  0.00  0.00    +0.000 OA
ENDBRANCH  15  16
ENDBRANCH  14  15
ENDBRANCH  13  14
ENDBRANCH   2  13
TORSDOF 7
ENDMDL
MODEL 8
REMARK VINA RESULT:      -5.7      5.281      6.677
REMARK  Name = 
REMARK  8 active torsions:
REMARK  status: ('A' for Active; 'I' for Inactive)
REMARK    1  A    between atoms: C_1  and  N_2
REMARK    2  A    between atoms: C_6  and  C_7
REMARK    3  A    between atoms: C_7  and  C_8
REMARK    4  A    between atoms: C_8  and  N_9
REMARK    5  A    between atoms: C_10  and  C_12
REMARK    6  A    between atoms: C_12  and  O_13
REMARK    7  A    between atoms: O_13  and  C_14
REMARK    8  A    between atoms: C_14  and  C_15
REMARK                            x       y       z     vdW  Elec       q    Type
REMARK                         _______ _______ _______ _____ _____    ______ ____
ROOT
ATOM      1  N   UNL     1       8.414   8.109  18.656  0.00  0.00    +0.000 N 
ATOM      2  C   UNL     1       7.818   7.057  18.004  0.00  0.00    +0.000 C 
ATOM      3  O   UNL     1       7.274   7.164  16.900  0.00  0.00    +0.000 OA
ATOM      4  H   UNL     1       8.751   7.983  19.607  0.00  0.00    +0.000 HD
ENDROOT
BRANCH   1   5
ATOM      5  C   UNL     1       8.409   9.454  18.107  0.00  0.00    +0.000 C 
BRANCH   5   6
ATOM      6  C   UNL     1       9.608  10.321  18.531  0.00  0.00    +0.000 C 
BRANCH   6  12
ATOM      7  C   UNL     1       9.137  11.909  21.203  0.00  0.00    +0.000 C 
ATOM      8  N   UNL     1       9.047  12.437  19.862  0.00  0.00    +0.000 N 
ATOM      9  C   UNL     1       8.720  13.734  19.568  0.00  0.00    +0.000 A 
ATOM     10  C   UNL     1       8.733  13.807  18.198  0.00  0.00    +0.000 A 
ATOM     11  N   UNL     1       9.061  12.598  17.654  0.00  0.00    +0.000 NA
ATOM     12  C   UNL     1       9.256  11.776  18.668  0.00  0.00    +0.000 A 
ENDBRANCH   6  12
ENDBRANCH   5   6
ENDBRANCH   1   5
BRANCH   2  13
ATOM     13  C   UNL     1       7.863   5.725  18.754  0.00  0.00    +0.000 C 
BRANCH  13  14
ATOM     14  O   UNL     1       6.738   4.885  18.523  0.00  0.00    +0.000 OA
BRANCH  14  15
ATOM     15  C   UNL     1       5.600   5.302  19.284  0.00  0.00    +0.000 C 
BRANCH  15  16
ATOM     16  C   UNL     1       4.464   4.281  19.147  0.00  0.00    +0.000 C 
ATOM     17  C   UNL     1       4.027   4.141  17.685  0.00  0.00    +0.000 C 
ATOM     18  C   UNL     1       2.985   3.039  17.538  0.00  0.00    +0.000 C 
ATOM     19  C   UNL     1       3.487   1.750  18.174  0.00  0.00    +0.000 C 
ATOM     20  C   UNL     1       3.936   2.005  19.606  0.00  0.00    +0.000 C 
ATOM     21  O   UNL     1       4.937   3.022  19.648  0.00  0.00    +0.000 OA
ENDBRANCH  15  16
ENDBRANCH  14  15
ENDBRANCH  13  14
ENDBRANCH   2  13
TORSDOF 7
ENDMDL
MODEL 9
REMARK VINA RESULT:      -5.7      5.120      6.626
REMARK  Name = 
REMARK  8 active torsions:
REMARK  status: ('A' for Active; 'I' for Inactive)
REMARK    1  A    between atoms: C_1  and  N_2
REMARK    2  A    between atoms: C_6  and  C_7
REMARK    3  A    between atoms: C_7  and  C_8
REMARK    4  A    between atoms: C_8  and  N_9
REMARK    5  A    between atoms: C_10  and  C_12
REMARK    6  A    between atoms: C_12  and  O_13
REMARK    7  A    between atoms: O_13  and  C_14
REMARK    8  A    between atoms: C_14  and  C_15
REMARK                            x       y       z     vdW  Elec       q    Type
REMARK                         _______ _______ _______ _____ _____    ______ ____
ROOT
ATOM      1  N   UNL     1       8.235   7.678  18.449  0.00  0.00    +0.000 N 
ATOM      2  C   UNL     1       7.472   6.813  17.704  0.00  0.00    +0.000 C 
ATOM      3  O   UNL     1       6.839   7.158  16.702  0.00  0.00    +0.000 OA
ATOM      4  H   UNL     1       8.647   7.358  19.323  0.00  0.00    +0.000 HD
ENDROOT
BRANCH   1   5
ATOM      5  C   UNL     1       8.320   9.093  18.134  0.00  0.00    +0.000 C 
BRANCH   5   6
ATOM      6  C   UNL     1       9.278   9.892  19.035  0.00  0.00    +0.000 C 
BRANCH   6  12
ATOM      7  C   UNL     1       9.918  12.146  21.130  0.00  0.00    +0.000 C 
ATOM      8  N   UNL     1       9.453  12.338  19.778  0.00  0.00    +0.000 N 
ATOM      9  C   UNL     1       9.207  13.563  19.216  0.00  0.00    +0.000 A 
ATOM     10  C   UNL     1       8.773  13.296  17.943  0.00  0.00    +0.000 A 
ATOM     11  N   UNL     1       8.752  11.949  17.713  0.00  0.00    +0.000 NA
ATOM     12  C   UNL     1       9.171  11.377  18.827  0.00  0.00    +0.000 A 
ENDBRANCH   6  12
ENDBRANCH   5   6
ENDBRANCH   1   5
BRANCH   2  13
ATOM     13  C   UNL     1       7.447   5.371  18.215  0.00  0.00    +0.000 C 
BRANCH  13  14
ATOM     14  O   UNL     1       6.453   5.117  19.201  0.00  0.00    +0.000 OA
BRANCH  14  15
ATOM     15  C   UNL     1       5.203   4.749  18.611  0.00  0.00    +0.000 C 
BRANCH  15  16
ATOM     16  C   UNL     1       4.121   4.622  19.690  0.00  0.00    +0.000 C 
ATOM     17  C   UNL     1       3.050   5.705  19.521  0.00  0.00    +0.000 C 
ATOM     18  C   UNL     1       1.916   5.501  20.519  0.00  0.00    +0.000 C 
ATOM     19  C   UNL     1       1.391   4.074  20.435  0.00  0.00    +0.000 C 
ATOM     20  C   UNL     1       2.535   3.079  20.569  0.00  0.00    +0.000 C 
ATOM     21  O   UNL     1       3.532   3.318  19.576  0.00  0.00    +0.000 OA
ENDBRANCH  15  16
ENDBRANCH  14  15
ENDBRANCH  13  14
ENDBRANCH   2  13
TORSDOF 7
ENDMDL
