MODEL 1
REMARK VINA RESULT:      -8.2      0.000      0.000
REMARK  Name = 
REMARK  6 active torsions:
REMARK  status: ('A' for Active; 'I' for Inactive)
REMARK    1  A    between atoms: C_1  and  C_2
REMARK    2  A    between atoms: C_2  and  C_3
REMARK    3  A    between atoms: C_4  and  O_5
REMARK    4  A    between atoms: O_5  and  C_6
REMARK    5  A    between atoms: N_12  and  C_13
REMARK    6  A    between atoms: C_13  and  C_14
REMARK                            x       y       z     vdW  Elec       q    Type
REMARK                         _______ _______ _______ _____ _____    ______ ____
ROOT
ATOM      1  C   UNL     1       6.733   5.759  17.607  0.00  0.00    +0.000 A 
ATOM      2  C   UNL     1       5.722   5.090  16.994  0.00  0.00    +0.000 A 
ATOM      3  N   UNL     1       4.973   4.132  17.686  0.00  0.00    +0.000 N 
ATOM      4  C   UNL     1       5.240   3.827  19.017  0.00  0.00    +0.000 A 
ATOM      5  O   UNL     1       4.729   2.898  19.640  0.00  0.00    +0.000 OA
ATOM      6  N   UNL     1       6.137   4.626  19.646  0.00  0.00    +0.000 N 
ATOM      7  C   UNL     1       7.093   5.296  18.967  0.00  0.00    +0.000 A 
ATOM      8  O   UNL     1       8.197   5.493  19.456  0.00  0.00    +0.000 OA
ATOM      9  H   UNL     1       6.393   4.319  20.571  0.00  0.00    +0.000 HD
ENDROOT
BRANCH   1  11
ATOM     10  C   UNL     1       7.314   8.246  17.683  0.00  0.00    +0.000 C 
ATOM     11  C   UNL     1       7.615   6.876  17.090  0.00  0.00    +0.000 C 
ENDBRANCH   1  11
BRANCH   2  12
ATOM     12  O   UNL     1       5.293   5.322  15.686  0.00  0.00    +0.000 OA
BRANCH  12  13
ATOM     13  C   UNL     1       5.984   4.819  14.605  0.00  0.00    +0.000 A 
ATOM     14  C   UNL     1       7.240   5.271  14.188  0.00  0.00    +0.000 A 
ATOM     15  C   UNL     1       7.718   4.909  12.926  0.00  0.00    +0.000 A 
ATOM     16  C   UNL     1       6.995   4.020  12.134  0.00  0.00    +0.000 A 
ATOM     17  C   UNL     1       5.816   3.453  12.619  0.00  0.00    +0.000 A 
ATOM     18  C   UNL     1       5.312   3.849  13.857  0.00  0.00    +0.000 A 
ENDBRANCH  12  13
ENDBRANCH   2  12
BRANCH   3  19
ATOM     19  C   UNL     1       3.731   3.565  17.133  0.00  0.00    +0.000 C 
BRANCH  19  20
ATOM     20  C   UNL     1       2.406   4.274  17.466  0.00  0.00    +0.000 C 
ATOM     21  C   UNL     1       1.477   3.437  18.361  0.00  0.00    +0.000 C 
ATOM     22  C   UNL     1       1.440   4.183  19.653  0.00  0.00    +0.000 C 
ATOM     23  C   UNL     1       2.093   5.346  19.592  0.00  0.00    +0.000 C 
ATOM     24  C   UNL     1       2.680   5.586  18.240  0.00  0.00    +0.000 C 
ENDBRANCH  19  20
ENDBRANCH   3  19
TORSDOF 5
ENDMDL
MODEL 2
REMARK VINA RESULT:      -8.2      2.137      6.114
REMARK  Name = 
REMARK  6 active torsions:
REMARK  status: ('A' for Active; 'I' for Inactive)
REMARK    1  A    between atoms: C_1  and  C_2
REMARK    2  A    between atoms: C_2  and  C_3
REMARK    3  A    between atoms: C_4  and  O_5
REMARK    4  A    between atoms: O_5  and  C_6
REMARK    5  A    between atoms: N_12  and  C_13
REMARK    6  A    between atoms: C_13  and  C_14
REMARK                            x       y       z     vdW  Elec       q    Type
REMARK                         _______ _______ _______ _____ _____    ______ ____
ROOT
ATOM      1  C   UNL     1       2.949   3.982  19.067  0.00  0.00    +0.000 A 
ATOM      2  C   UNL     1       3.431   5.123  18.507  0.00  0.00    +0.000 A 
ATOM      3  N   UNL     1       4.808   5.360  18.436  0.00  0.00    +0.000 N 
ATOM      4  C   UNL     1       5.728   4.445  18.939  0.00  0.00    +0.000 A 
ATOM      5  O   UNL     1       6.935   4.650  19.048  0.00  0.00    +0.000 OA
ATOM      6  N   UNL     1       5.226   3.248  19.334  0.00  0.00    +0.000 N 
ATOM      7  C   UNL     1       3.943   3.111  19.733  0.00  0.00    +0.000 A 
ATOM      8  O   UNL     1       3.634   2.312  20.607  0.00  0.00    +0.000 OA
ATOM      9  H   UNL     1       5.893   2.647  19.792  0.00  0.00    +0.000 HD
ENDROOT
BRANCH   1  11
ATOM     10  C   UNL     1       0.792   3.942  20.436  0.00  0.00    +0.000 C 
ATOM     11  C   UNL     1       1.525   3.482  19.182  0.00  0.00    +0.000 C 
ENDBRANCH   1  11
BRANCH   2  12
ATOM     12  O   UNL     1       2.645   6.109  17.908  0.00  0.00    +0.000 OA
BRANCH  12  13
ATOM     13  C   UNL     1       2.268   7.242  18.596  0.00  0.00    +0.000 A 
ATOM     14  C   UNL     1       2.062   7.296  19.979  0.00  0.00    +0.000 A 
ATOM     15  C   UNL     1       1.403   8.395  20.534  0.00  0.00    +0.000 A 
ATOM     16  C   UNL     1       1.047   9.476  19.730  0.00  0.00    +0.000 A 
ATOM     17  C   UNL     1       1.391   9.483  18.378  0.00  0.00    +0.000 A 
ATOM     18  C   UNL     1       2.005   8.366  17.811  0.00  0.00    +0.000 A 
ENDBRANCH  12  13
ENDBRANCH   2  12
BRANCH   3  19
ATOM     19  C   UNL     1       5.369   6.461  17.633  0.00  0.00    +0.000 C 
BRANCH  19  20
ATOM     20  C   UNL     1       5.678   6.185  16.151  0.00  0.00    +0.000 C 
ATOM     21  C   UNL     1       7.156   5.854  15.888  0.00  0.00    +0.000 C 
ATOM     22  C   UNL     1       7.144   4.421  15.473  0.00  0.00    +0.000 C 
ATOM     23  C   UNL     1       5.908   3.934  15.347  0.00  0.00    +0.000 C 
ATOM     24  C   UNL     1       4.870   4.962  15.654  0.00  0.00    +0.000 C 
ENDBRANCH  19  20
ENDBRANCH   3  19
TORSDOF 5
ENDMDL
MODEL 3
REMARK VINA RESULT:      -8.1      2.608      6.449
REMARK  Name = 
REMARK  6 active torsions:
REMARK  status: ('A' for Active; 'I' for Inactive)
REMARK    1  A    between atoms: C_1  and  C_2
REMARK    2  A    between atoms: C_2  and  C_3
REMARK    3  A    between atoms: C_4  and  O_5
REMARK    4  A    between atoms: O_5  and  C_6
REMARK    5  A    between atoms: N_12  and  C_13
REMARK    6  A    between atoms: C_13  and  C_14
REMARK                            x       y       z     vdW  Elec       q    Type
REMARK                         _______ _______ _______ _____ _____    ______ ____
ROOT
ATOM      1  C   UNL     1       2.399   4.231  18.852  0.00  0.00    +0.000 A 
ATOM      2  C   UNL     1       3.321   5.203  18.625  0.00  0.00    +0.000 A 
ATOM      3  N   UNL     1       4.225   5.100  17.561  0.00  0.00    +0.000 N 
ATOM      4  C   UNL     1       4.216   4.002  16.707  0.00  0.00    +0.000 A 
ATOM      5  O   UNL     1       5.068   3.770  15.852  0.00  0.00    +0.000 OA
ATOM      6  N   UNL     1       3.181   3.137  16.855  0.00  0.00    +0.000 N 
ATOM      7  C   UNL     1       2.523   3.008  18.027  0.00  0.00    +0.000 A 
ATOM      8  O   UNL     1       2.068   1.929  18.382  0.00  0.00    +0.000 OA
ATOM      9  H   UNL     1       3.256   2.298  16.301  0.00  0.00    +0.000 HD
ENDROOT
BRANCH   1  11
ATOM     10  C   UNL     1       1.745   3.809  21.286  0.00  0.00    +0.000 C 
ATOM     11  C   UNL     1       1.288   4.165  19.877  0.00  0.00    +0.000 C 
ENDBRANCH   1  11
BRANCH   2  12
ATOM     12  O   UNL     1       3.421   6.390  19.353  0.00  0.00    +0.000 OA
BRANCH  12  13
ATOM     13  C   UNL     1       2.471   7.382  19.241  0.00  0.00    +0.000 A 
ATOM     14  C   UNL     1       2.190   8.079  18.061  0.00  0.00    +0.000 A 
ATOM     15  C   UNL     1       1.434   9.251  18.117  0.00  0.00    +0.000 A 
ATOM     16  C   UNL     1       0.876   9.666  19.325  0.00  0.00    +0.000 A 
ATOM     17  C   UNL     1       1.032   8.885  20.471  0.00  0.00    +0.000 A 
ATOM     18  C   UNL     1       1.828   7.740  20.428  0.00  0.00    +0.000 A 
ENDBRANCH  12  13
ENDBRANCH   2  12
BRANCH   3  19
ATOM     19  C   UNL     1       5.071   6.232  17.146  0.00  0.00    +0.000 C 
BRANCH  19  20
ATOM     20  C   UNL     1       6.594   6.016  17.111  0.00  0.00    +0.000 C 
ATOM     21  C   UNL     1       7.397   7.321  17.236  0.00  0.00    +0.000 C 
ATOM     22  C   UNL     1       8.073   7.212  18.563  0.00  0.00    +0.000 C 
ATOM     23  C   UNL     1       7.878   6.025  19.141  0.00  0.00    +0.000 C 
ATOM     24  C   UNL     1       7.036   5.125  18.297  0.00  0.00    +0.000 C 
ENDBRANCH  19  20
ENDBRANCH   3  19
TORSDOF 5
ENDMDL
MODEL 4
REMARK VINA RESULT:      -7.7      2.615      6.552
REMARK  Name = 
REMARK  6 active torsions:
REMARK  status: ('A' for Active; 'I' for Inactive)
REMARK    1  A    between atoms: C_1  and  C_2
REMARK    2  A    between atoms: C_2  and  C_3
REMARK    3  A    between atoms: C_4  and  O_5
REMARK    4  A    between atoms: O_5  and  C_6
REMARK    5  A    between atoms: N_12  and  C_13
REMARK    6  A    between atoms: C_13  and  C_14
REMARK                            x       y       z     vdW  Elec       q    Type
REMARK                         _______ _______ _______ _____ _____    ______ ____
ROOT
ATOM      1  C   UNL     1       2.114   4.233  19.227  0.00  0.00    +0.000 A 
ATOM      2  C   UNL     1       2.982   5.231  18.916  0.00  0.00    +0.000 A 
ATOM      3  N   UNL     1       3.770   5.162  17.761  0.00  0.00    +0.000 N 
ATOM      4  C   UNL     1       3.697   4.072  16.899  0.00  0.00    +0.000 A 
ATOM      5  O   UNL     1       4.458   3.871  15.955  0.00  0.00    +0.000 OA
ATOM      6  N   UNL     1       2.705   3.179  17.145  0.00  0.00    +0.000 N 
ATOM      7  C   UNL     1       2.179   3.022  18.379  0.00  0.00    +0.000 A 
ATOM      8  O   UNL     1       1.791   1.928  18.767  0.00  0.00    +0.000 OA
ATOM      9  H   UNL     1       2.741   2.348  16.576  0.00  0.00    +0.000 HD
ENDROOT
BRANCH   1  11
ATOM     10  C   UNL     1       1.669   3.480  21.628  0.00  0.00    +0.000 C 
ATOM     11  C   UNL     1       1.120   4.129  20.364  0.00  0.00    +0.000 C 
ENDBRANCH   1  11
BRANCH   2  12
ATOM     12  O   UNL     1       3.130   6.413  19.644  0.00  0.00    +0.000 OA
BRANCH  12  13
ATOM     13  C   UNL     1       2.216   7.439  19.538  0.00  0.00    +0.000 A 
ATOM     14  C   UNL     1       2.004   8.194  18.380  0.00  0.00    +0.000 A 
ATOM     15  C   UNL     1       1.281   9.387  18.458  0.00  0.00    +0.000 A 
ATOM     16  C   UNL     1       0.688   9.767  19.661  0.00  0.00    +0.000 A 
ATOM     17  C   UNL     1       0.775   8.933  20.776  0.00  0.00    +0.000 A 
ATOM     18  C   UNL     1       1.537   7.766  20.714  0.00  0.00    +0.000 A 
ENDBRANCH  12  13
ENDBRANCH   2  12
BRANCH   3  19
ATOM     19  C   UNL     1       4.539   6.319  17.271  0.00  0.00    +0.000 C 
BRANCH  19  20
ATOM     20  C   UNL     1       6.013   6.435  17.697  0.00  0.00    +0.000 C 
ATOM     21  C   UNL     1       6.388   5.494  18.855  0.00  0.00    +0.000 C 
ATOM     22  C   UNL     1       7.326   4.510  18.240  0.00  0.00    +0.000 C 
ATOM     23  C   UNL     1       7.627   4.809  16.974  0.00  0.00    +0.000 C 
ATOM     24  C   UNL     1       6.943   6.056  16.519  0.00  0.00    +0.000 C 
ENDBRANCH  19  20
ENDBRANCH   3  19
TORSDOF 5
ENDMDL
MODEL 5
REMARK VINA RESULT:      -7.6      2.643      4.752
REMARK  Name = 
REMARK  6 active torsions:
REMARK  status: ('A' for Active; 'I' for Inactive)
REMARK    1  A    between atoms: C_1  and  C_2
REMARK    2  A    between atoms: C_2  and  C_3
REMARK    3  A    between atoms: C_4  and  O_5
REMARK    4  A    between atoms: O_5  and  C_6
REMARK    5  A    between atoms: N_12  and  C_13
REMARK    6  A    between atoms: C_13  and  C_14
REMARK                            x       y       z     vdW  Elec       q    Type
REMARK                         _______ _______ _______ _____ _____    ______ ____
ROOT
ATOM      1  C   UNL     1       5.133   5.575  18.190  0.00  0.00    +0.000 A 
ATOM      2  C   UNL     1       3.819   5.273  18.016  0.00  0.00    +0.000 A 
ATOM      3  N   UNL     1       3.322   4.013  18.364  0.00  0.00    +0.000 N 
ATOM      4  C   UNL     1       4.150   3.027  18.891  0.00  0.00    +0.000 A 
ATOM      5  O   UNL     1       3.820   1.858  19.077  0.00  0.00    +0.000 OA
ATOM      6  N   UNL     1       5.411   3.412  19.210  0.00  0.00    +0.000 N 
ATOM      7  C   UNL     1       6.012   4.457  18.600  0.00  0.00    +0.000 A 
ATOM      8  O   UNL     1       7.218   4.461  18.393  0.00  0.00    +0.000 OA
ATOM      9  H   UNL     1       6.020   2.659  19.487  0.00  0.00    +0.000 HD
ENDROOT
BRANCH   1  11
ATOM     10  C   UNL     1       6.185   7.181  16.504  0.00  0.00    +0.000 C 
ATOM     11  C   UNL     1       5.869   6.878  17.963  0.00  0.00    +0.000 C 
ENDBRANCH   1  11
BRANCH   2  12
ATOM     12  O   UNL     1       2.852   6.168  17.555  0.00  0.00    +0.000 OA
BRANCH  12  13
ATOM     13  C   UNL     1       2.494   7.278  18.288  0.00  0.00    +0.000 A 
ATOM     14  C   UNL     1       2.259   7.274  19.667  0.00  0.00    +0.000 A 
ATOM     15  C   UNL     1       1.621   8.366  20.261  0.00  0.00    +0.000 A 
ATOM     16  C   UNL     1       1.317   9.494  19.501  0.00  0.00    +0.000 A 
ATOM     17  C   UNL     1       1.691   9.554  18.159  0.00  0.00    +0.000 A 
ATOM     18  C   UNL     1       2.284   8.446  17.552  0.00  0.00    +0.000 A 
ENDBRANCH  12  13
ENDBRANCH   2  12
BRANCH   3  19
ATOM     19  C   UNL     1       1.876   3.731  18.411  0.00  0.00    +0.000 C 
BRANCH  19  20
ATOM     20  C   UNL     1       1.146   3.938  19.749  0.00  0.00    +0.000 C 
ATOM     21  C   UNL     1       0.639   2.628  20.375  0.00  0.00    +0.000 C 
ATOM     22  C   UNL     1       1.468   2.462  21.604  0.00  0.00    +0.000 C 
ATOM     23  C   UNL     1       2.265   3.508  21.831  0.00  0.00    +0.000 C 
ATOM     24  C   UNL     1       2.104   4.567  20.790  0.00  0.00    +0.000 C 
ENDBRANCH  19  20
ENDBRANCH   3  19
TORSDOF 5
ENDMDL
MODEL 6
REMARK VINA RESULT:      -7.6      2.002      5.735
REMARK  Name = 
REMARK  6 active torsions:
REMARK  status: ('A' for Active; 'I' for Inactive)
REMARK    1  A    between atoms: C_1  and  C_2
REMARK    2  A    between atoms: C_2  and  C_3
REMARK    3  A    between atoms: C_4  and  O_5
REMARK    4  A    between atoms: O_5  and  C_6
REMARK    5  A    between atoms: N_12  and  C_13
REMARK    6  A    between atoms: C_13  and  C_14
REMARK                            x       y       z     vdW  Elec       q    Type
REMARK                         _______ _______ _______ _____ _____    ______ ____
ROOT
ATOM      1  C   UNL     1       5.147   5.976  17.193  0.00  0.00    +0.000 A 
ATOM      2  C   UNL     1       4.942   5.047  16.222  0.00  0.00    +0.000 A 
ATOM      3  N   UNL     1       5.936   4.765  15.278  0.00  0.00    +0.000 N 
ATOM      4  C   UNL     1       7.160   5.427  15.295  0.00  0.00    +0.000 A 
ATOM      5  O   UNL     1       8.015   5.343  14.417  0.00  0.00    +0.000 OA
ATOM      6  N   UNL     1       7.397   6.219  16.370  0.00  0.00    +0.000 N 
ATOM      7  C   UNL     1       6.391   6.771  17.084  0.00  0.00    +0.000 A 
ATOM      8  O   UNL     1       6.511   7.874  17.598  0.00  0.00    +0.000 OA
ATOM      9  H   UNL     1       8.239   6.768  16.306  0.00  0.00    +0.000 HD
ENDROOT
BRANCH   1  11
ATOM     10  C   UNL     1       3.115   7.314  17.972  0.00  0.00    +0.000 C 
ATOM     11  C   UNL     1       4.262   6.385  18.350  0.00  0.00    +0.000 C 
ENDBRANCH   1  11
BRANCH   2  12
ATOM     12  O   UNL     1       3.796   4.259  16.105  0.00  0.00    +0.000 OA
BRANCH  12  13
ATOM     13  C   UNL     1       3.288   3.567  17.183  0.00  0.00    +0.000 A 
ATOM     14  C   UNL     1       3.964   2.545  17.857  0.00  0.00    +0.000 A 
ATOM     15  C   UNL     1       3.262   1.714  18.733  0.00  0.00    +0.000 A 
ATOM     16  C   UNL     1       1.920   1.970  19.012  0.00  0.00    +0.000 A 
ATOM     17  C   UNL     1       1.290   3.083  18.454  0.00  0.00    +0.000 A 
ATOM     18  C   UNL     1       1.976   3.884  17.541  0.00  0.00    +0.000 A 
ENDBRANCH  12  13
ENDBRANCH   2  12
BRANCH   3  19
ATOM     19  C   UNL     1       5.841   3.611  14.368  0.00  0.00    +0.000 C 
BRANCH  19  20
ATOM     20  C   UNL     1       5.834   3.887  12.854  0.00  0.00    +0.000 C 
ATOM     21  C   UNL     1       7.007   3.227  12.110  0.00  0.00    +0.000 C 
ATOM     22  C   UNL     1       6.362   2.185  11.258  0.00  0.00    +0.000 C 
ATOM     23  C   UNL     1       5.029   2.230  11.312  0.00  0.00    +0.000 C 
ATOM     24  C   UNL     1       4.545   3.319  12.212  0.00  0.00    +0.000 C 
ENDBRANCH  19  20
ENDBRANCH   3  19
TORSDOF 5
ENDMDL
MODEL 7
REMARK VINA RESULT:      -7.6      2.542      5.238
REMARK  Name = 
REMARK  6 active torsions:
REMARK  status: ('A' for Active; 'I' for Inactive)
REMARK    1  A    between atoms: C_1  and  C_2
REMARK    2  A    between atoms: C_2  and  C_3
REMARK    3  A    between atoms: C_4  and  O_5
REMARK    4  A    between atoms: O_5  and  C_6
REMARK    5  A    between atoms: N_12  and  C_13
REMARK    6  A    between atoms: C_13  and  C_14
REMARK                            x       y       z     vdW  Elec       q    Type
REMARK                         _______ _______ _______ _____ _____    ______ ____
ROOT
ATOM      1  C   UNL     1       5.025   5.972  17.341  0.00  0.00    +0.000 A 
ATOM      2  C   UNL     1       3.893   5.811  18.075  0.00  0.00    +0.000 A 
ATOM      3  N   UNL     1       3.028   4.738  17.832  0.00  0.00    +0.000 N 
ATOM      4  C   UNL     1       3.291   3.808  16.831  0.00  0.00    +0.000 A 
ATOM      5  O   UNL     1       2.509   2.934  16.462  0.00  0.00    +0.000 OA
ATOM      6  N   UNL     1       4.505   3.899  16.234  0.00  0.00    +0.000 N 
ATOM      7  C   UNL     1       5.190   5.062  16.185  0.00  0.00    +0.000 A 
ATOM      8  O   UNL     1       5.896   5.341  15.226  0.00  0.00    +0.000 OA
ATOM      9  H   UNL     1       4.628   3.286  15.443  0.00  0.00    +0.000 HD
ENDROOT
BRANCH   1  11
ATOM     10  C   UNL     1       7.409   6.467  18.114  0.00  0.00    +0.000 C 
ATOM     11  C   UNL     1       6.132   6.995  17.473  0.00  0.00    +0.000 C 
ENDBRANCH   1  11
BRANCH   2  12
ATOM     12  O   UNL     1       3.518   6.621  19.148  0.00  0.00    +0.000 OA
BRANCH  12  13
ATOM     13  C   UNL     1       2.548   7.591  19.010  0.00  0.00    +0.000 A 
ATOM     14  C   UNL     1       2.319   8.320  17.839  0.00  0.00    +0.000 A 
ATOM     15  C   UNL     1       1.526   9.469  17.887  0.00  0.00    +0.000 A 
ATOM     16  C   UNL     1       0.884   9.826  19.072  0.00  0.00    +0.000 A 
ATOM     17  C   UNL     1       0.994   9.009  20.199  0.00  0.00    +0.000 A 
ATOM     18  C   UNL     1       1.824   7.889  20.167  0.00  0.00    +0.000 A 
ENDBRANCH  12  13
ENDBRANCH   2  12
BRANCH   3  19
ATOM     19  C   UNL     1       1.928   4.400  18.752  0.00  0.00    +0.000 C 
BRANCH  19  20
ATOM     20  C   UNL     1       1.951   3.015  19.423  0.00  0.00    +0.000 C 
ATOM     21  C   UNL     1       3.192   2.785  20.301  0.00  0.00    +0.000 C 
ATOM     22  C   UNL     1       2.653   2.722  21.691  0.00  0.00    +0.000 C 
ATOM     23  C   UNL     1       1.320   2.761  21.726  0.00  0.00    +0.000 C 
ATOM     24  C   UNL     1       0.728   2.852  20.358  0.00  0.00    +0.000 C 
ENDBRANCH  19  20
ENDBRANCH   3  19
TORSDOF 5
ENDMDL
MODEL 8
REMARK VINA RESULT:      -7.6      2.617      6.445
REMARK  Name = 
REMARK  6 active torsions:
REMARK  status: ('A' for Active; 'I' for Inactive)
REMARK    1  A    between atoms: C_1  and  C_2
REMARK    2  A    between atoms: C_2  and  C_3
REMARK    3  A    between atoms: C_4  and  O_5
REMARK    4  A    between atoms: O_5  and  C_6
REMARK    5  A    between atoms: N_12  and  C_13
REMARK    6  A    between atoms: C_13  and  C_14
REMARK                            x       y       z     vdW  Elec       q    Type
REMARK                         _______ _______ _______ _____ _____    ______ ____
ROOT
ATOM      1  C   UNL     1       2.287   4.331  18.896  0.00  0.00    +0.000 A 
ATOM      2  C   UNL     1       3.267   5.247  18.679  0.00  0.00    +0.000 A 
ATOM      3  N   UNL     1       4.115   5.141  17.571  0.00  0.00    +0.000 N 
ATOM      4  C   UNL     1       3.989   4.096  16.660  0.00  0.00    +0.000 A 
ATOM      5  O   UNL     1       4.786   3.854  15.756  0.00  0.00    +0.000 OA
ATOM      6  N   UNL     1       2.902   3.300  16.809  0.00  0.00    +0.000 N 
ATOM      7  C   UNL     1       2.286   3.151  18.002  0.00  0.00    +0.000 A 
ATOM      8  O   UNL     1       1.769   2.088  18.319  0.00  0.00    +0.000 OA
ATOM      9  H   UNL     1       2.891   2.491  16.208  0.00  0.00    +0.000 HD
ENDROOT
BRANCH   1  11
ATOM     10  C   UNL     1       1.689   3.748  21.311  0.00  0.00    +0.000 C 
ATOM     11  C   UNL     1       1.217   4.285  19.966  0.00  0.00    +0.000 C 
ENDBRANCH   1  11
BRANCH   2  12
ATOM     12  O   UNL     1       3.484   6.380  19.464  0.00  0.00    +0.000 OA
BRANCH  12  13
ATOM     13  C   UNL     1       2.632   7.462  19.413  0.00  0.00    +0.000 A 
ATOM     14  C   UNL     1       1.820   7.882  20.471  0.00  0.00    +0.000 A 
ATOM     15  C   UNL     1       0.788   8.792  20.229  0.00  0.00    +0.000 A 
ATOM     16  C   UNL     1       0.636   9.355  18.964  0.00  0.00    +0.000 A 
ATOM     17  C   UNL     1       1.543   9.048  17.949  0.00  0.00    +0.000 A 
ATOM     18  C   UNL     1       2.544   8.103  18.175  0.00  0.00    +0.000 A 
ENDBRANCH  12  13
ENDBRANCH   2  12
BRANCH   3  19
ATOM     19  C   UNL     1       5.023   6.231  17.178  0.00  0.00    +0.000 C 
BRANCH  19  20
ATOM     20  C   UNL     1       6.533   5.935  17.149  0.00  0.00    +0.000 C 
ATOM     21  C   UNL     1       7.403   7.196  17.276  0.00  0.00    +0.000 C 
ATOM     22  C   UNL     1       8.067   7.053  18.605  0.00  0.00    +0.000 C 
ATOM     23  C   UNL     1       7.807   5.879  19.184  0.00  0.00    +0.000 C 
ATOM     24  C   UNL     1       6.922   5.024  18.338  0.00  0.00    +0.000 C 
ENDBRANCH  19  20
ENDBRANCH   3  19
TORSDOF 5
ENDMDL
MODEL 9
REMARK VINA RESULT:      -7.5      1.968      5.751
REMARK  Name = 
REMARK  6 active torsions:
REMARK  status: ('A' for Active; 'I' for Inactive)
REMARK    1  A    between atoms: C_1  and  C_2
REMARK    2  A    between atoms: C_2  and  C_3
REMARK    3  A    between atoms: C_4  and  O_5
REMARK    4  A    between atoms: O_5  and  C_6
REMARK    5  A    between atoms: N_12  and  C_13
REMARK    6  A    between atoms: C_13  and  C_14
REMARK                            x       y       z     vdW  Elec       q    Type
REMARK                         _______ _______ _______ _____ _____    ______ ____
ROOT
ATOM      1  C   UNL     1       5.117   5.887  17.213  0.00  0.00    +0.000 A 
ATOM      2  C   UNL     1       4.911   4.974  16.228  0.00  0.00    +0.000 A 
ATOM      3  N   UNL     1       5.910   4.697  15.288  0.00  0.00    +0.000 N 
ATOM      4  C   UNL     1       7.139   5.348  15.324  0.00  0.00    +0.000 A 
ATOM      5  O   UNL     1       8.001   5.269  14.451  0.00  0.00    +0.000 OA
ATOM      6  N   UNL     1       7.374   6.123  16.412  0.00  0.00    +0.000 N 
ATOM      7  C   UNL     1       6.368   6.672  17.126  0.00  0.00    +0.000 A 
ATOM      8  O   UNL     1       6.493   7.768  17.657  0.00  0.00    +0.000 OA
ATOM      9  H   UNL     1       8.222   6.665  16.363  0.00  0.00    +0.000 HD
ENDROOT
BRANCH   1  11
ATOM     10  C   UNL     1       3.050   7.176  17.985  0.00  0.00    +0.000 C 
ATOM     11  C   UNL     1       4.225   6.287  18.370  0.00  0.00    +0.000 C 
ENDBRANCH   1  11
BRANCH   2  12
ATOM     12  O   UNL     1       3.759   4.197  16.091  0.00  0.00    +0.000 OA
BRANCH  12  13
ATOM     13  C   UNL     1       3.211   3.531  17.166  0.00  0.00    +0.000 A 
ATOM     14  C   UNL     1       1.910   3.727  17.639  0.00  0.00    +0.000 A 
ATOM     15  C   UNL     1       1.552   3.232  18.895  0.00  0.00    +0.000 A 
ATOM     16  C   UNL     1       2.454   2.459  19.624  0.00  0.00    +0.000 A 
ATOM     17  C   UNL     1       3.698   2.138  19.079  0.00  0.00    +0.000 A 
ATOM     18  C   UNL     1       4.076   2.671  17.847  0.00  0.00    +0.000 A 
ENDBRANCH  12  13
ENDBRANCH   2  12
BRANCH   3  19
ATOM     19  C   UNL     1       5.813   3.556  14.361  0.00  0.00    +0.000 C 
BRANCH  19  20
ATOM     20  C   UNL     1       5.855   3.851  12.851  0.00  0.00    +0.000 C 
ATOM     21  C   UNL     1       6.857   2.970  12.087  0.00  0.00    +0.000 C 
ATOM     22  C   UNL     1       6.001   2.101  11.226  0.00  0.00    +0.000 C 
ATOM     23  C   UNL     1       4.709   2.426  11.294  0.00  0.00    +0.000 C 
ATOM     24  C   UNL     1       4.471   3.579  12.213  0.00  0.00    +0.000 C 
ENDBRANCH  19  20
ENDBRANCH   3  19
TORSDOF 5
ENDMDL
