MODEL 1
REMARK VINA RESULT:      -6.1      0.000      0.000
REMARK  Name = 
REMARK  11 active torsions:
REMARK  status: ('A' for Active; 'I' for Inactive)
REMARK    1  A    between atoms: N_10  and  C_11
REMARK    2  A    between atoms: C_11  and  C_12
REMARK    3  A    between atoms: C_12  and  N_13
REMARK    4  A    between atoms: N_13  and  C_14
REMARK    5  A    between atoms: N_13  and  C_17
REMARK    6  A    between atoms: C_14  and  C_15
REMARK    7  A    between atoms: C_15  and  O_16
REMARK    8  A    between atoms: C_17  and  C_18
REMARK    9  A    between atoms: C_18  and  P_19
REMARK   10  A    between atoms: P_19  and  O_21
REMARK   11  A    between atoms: P_19  and  O_22
REMARK                            x       y       z     vdW  Elec       q    Type
REMARK                         _______ _______ _______ _____ _____    ______ ____
ROOT
ATOM      1  C   UNL     1       4.469   7.111  17.573  0.00  0.00    +0.000 C 
ENDROOT
BRANCH   1   2
ATOM      2  C   UNL     1       3.059   6.496  17.528  0.00  0.00    +0.000 C 
BRANCH   2  12
ATOM      3  O   UNL     1       2.734   2.542  21.987  0.00  0.00    +0.000 OA
ATOM      4  C   UNL     1       2.947   2.886  20.829  0.00  0.00    +0.000 A 
ATOM      5  N   UNL     1       3.503   2.018  19.899  0.00  0.00    +0.000 N 
ATOM      6  C   UNL     1       3.781   2.369  18.589  0.00  0.00    +0.000 A 
ATOM      7  N   UNL     1       3.566   3.539  18.065  0.00  0.00    +0.000 NA
ATOM      8  C   UNL     1       3.020   4.411  18.948  0.00  0.00    +0.000 A 
ATOM      9  C   UNL     1       2.682   4.193  20.265  0.00  0.00    +0.000 A 
ATOM     10  N   UNL     1       2.152   5.321  20.837  0.00  0.00    +0.000 NA
ATOM     11  C   UNL     1       2.201   6.229  19.881  0.00  0.00    +0.000 A 
ATOM     12  N   UNL     1       2.734   5.729  18.719  0.00  0.00    +0.000 N 
ATOM     13  H   UNL     1       3.721   1.095  20.244  0.00  0.00    +0.000 HD
ENDBRANCH   2  12
ENDBRANCH   1   2
BRANCH   1  14
ATOM     14  N   UNL     1       5.577   6.254  17.042  0.00  0.00    +0.000 NA
BRANCH  14  15
ATOM     15  C   UNL     1       5.241   5.789  15.664  0.00  0.00    +0.000 C 
BRANCH  15  16
ATOM     16  C   UNL     1       5.991   4.543  15.148  0.00  0.00    +0.000 C 
BRANCH  16  17
ATOM     17  O   UNL     1       5.988   3.497  16.112  0.00  0.00    +0.000 OA
ATOM     18  H   UNL     1       6.896   3.448  16.460  0.00  0.00    +0.000 HD
ENDBRANCH  16  17
ENDBRANCH  15  16
ENDBRANCH  14  15
BRANCH  14  19
ATOM     19  C   UNL     1       6.853   7.020  17.035  0.00  0.00    +0.000 C 
BRANCH  19  20
ATOM     20  C   UNL     1       7.690   6.831  18.301  0.00  0.00    +0.000 C 
BRANCH  20  21
ATOM     21  P   UNL     1       7.784   5.133  18.834  0.00  0.00    +0.000 P 
ATOM     22  O   UNL     1       8.331   4.164  17.844  0.00  0.00    +0.000 OA
BRANCH  21  23
ATOM     23  O   UNL     1       8.600   5.195  20.211  0.00  0.00    +0.000 OA
ATOM     24  H   UNL     1       8.069   5.164  21.029  0.00  0.00    +0.000 HD
ENDBRANCH  21  23
BRANCH  21  25
ATOM     25  O   UNL     1       6.321   4.774  19.369  0.00  0.00    +0.000 OA
ATOM     26  H   UNL     1       5.740   5.560  19.345  0.00  0.00    +0.000 HD
ENDBRANCH  21  25
ENDBRANCH  20  21
ENDBRANCH  19  20
ENDBRANCH  14  19
ENDBRANCH   1  14
TORSDOF 11
ENDMDL
MODEL 2
REMARK VINA RESULT:      -6.0      2.750      5.799
REMARK  Name = 
REMARK  11 active torsions:
REMARK  status: ('A' for Active; 'I' for Inactive)
REMARK    1  A    between atoms: N_10  and  C_11
REMARK    2  A    between atoms: C_11  and  C_12
REMARK    3  A    between atoms: C_12  and  N_13
REMARK    4  A    between atoms: N_13  and  C_14
REMARK    5  A    between atoms: N_13  and  C_17
REMARK    6  A    between atoms: C_14  and  C_15
REMARK    7  A    between atoms: C_15  and  O_16
REMARK    8  A    between atoms: C_17  and  C_18
REMARK    9  A    between atoms: C_18  and  P_19
REMARK   10  A    between atoms: P_19  and  O_21
REMARK   11  A    between atoms: P_19  and  O_22
REMARK                            x       y       z     vdW  Elec       q    Type
REMARK                         _______ _______ _______ _____ _____    ______ ____
ROOT
ATOM      1  C   UNL     1       3.270   3.524  17.099  0.00  0.00    +0.000 C 
ENDROOT
BRANCH   1   2
ATOM      2  C   UNL     1       4.802   3.557  17.241  0.00  0.00    +0.000 C 
BRANCH   2  12
ATOM      3  O   UNL     1       8.127   8.514  17.285  0.00  0.00    +0.000 OA
ATOM      4  C   UNL     1       7.699   7.467  17.759  0.00  0.00    +0.000 A 
ATOM      5  N   UNL     1       8.219   6.927  18.928  0.00  0.00    +0.000 N 
ATOM      6  C   UNL     1       7.782   5.738  19.488  0.00  0.00    +0.000 A 
ATOM      7  N   UNL     1       6.846   4.979  18.999  0.00  0.00    +0.000 NA
ATOM      8  C   UNL     1       6.316   5.480  17.856  0.00  0.00    +0.000 A 
ATOM      9  C   UNL     1       6.642   6.648  17.203  0.00  0.00    +0.000 A 
ATOM     10  N   UNL     1       5.884   6.816  16.073  0.00  0.00    +0.000 NA
ATOM     11  C   UNL     1       5.125   5.737  16.021  0.00  0.00    +0.000 A 
ATOM     12  N   UNL     1       5.361   4.889  17.074  0.00  0.00    +0.000 N 
ATOM     13  H   UNL     1       8.969   7.452  19.351  0.00  0.00    +0.000 HD
ENDBRANCH   2  12
ENDBRANCH   1   2
BRANCH   1  14
ATOM     14  N   UNL     1       2.491   4.051  18.264  0.00  0.00    +0.000 NA
BRANCH  14  15
ATOM     15  C   UNL     1       2.117   5.475  18.021  0.00  0.00    +0.000 C 
BRANCH  15  16
ATOM     16  C   UNL     1       2.721   6.526  18.976  0.00  0.00    +0.000 C 
BRANCH  16  17
ATOM     17  O   UNL     1       3.776   5.975  19.756  0.00  0.00    +0.000 OA
ATOM     18  H   UNL     1       3.830   6.520  20.561  0.00  0.00    +0.000 HD
ENDBRANCH  16  17
ENDBRANCH  15  16
ENDBRANCH  14  15
BRANCH  14  19
ATOM     19  C   UNL     1       1.273   3.222  18.478  0.00  0.00    +0.000 C 
BRANCH  19  20
ATOM     20  C   UNL     1       0.741   3.269  19.911  0.00  0.00    +0.000 C 
BRANCH  20  21
ATOM     21  P   UNL     1       2.032   3.254  21.140  0.00  0.00    +0.000 P 
ATOM     22  O   UNL     1       2.446   4.581  21.673  0.00  0.00    +0.000 OA
BRANCH  21  23
ATOM     23  O   UNL     1       1.503   2.235  22.257  0.00  0.00    +0.000 OA
ATOM     24  H   UNL     1       2.000   1.401  22.350  0.00  0.00    +0.000 HD
ENDBRANCH  21  23
BRANCH  21  25
ATOM     25  O   UNL     1       3.221   2.402  20.496  0.00  0.00    +0.000 OA
ATOM     26  H   UNL     1       4.023   2.952  20.386  0.00  0.00    +0.000 HD
ENDBRANCH  21  25
ENDBRANCH  20  21
ENDBRANCH  19  20
ENDBRANCH  14  19
ENDBRANCH   1  14
TORSDOF 11
ENDMDL
MODEL 3
REMARK VINA RESULT:      -5.6      2.674      5.624
REMARK  Name = 
REMARK  11 active torsions:
REMARK  status: ('A' for Active; 'I' for Inactive)
REMARK    1  A    between atoms: N_10  and  C_11
REMARK    2  A    between atoms: C_11  and  C_12
REMARK    3  A    between atoms: C_12  and  N_13
REMARK    4  A    between atoms: N_13  and  C_14
REMARK    5  A    between atoms: N_13  and  C_17
REMARK    6  A    between atoms: C_14  and  C_15
REMARK    7  A    between atoms: C_15  and  O_16
REMARK    8  A    between atoms: C_17  and  C_18
REMARK    9  A    between atoms: C_18  and  P_19
REMARK   10  A    between atoms: P_19  and  O_21
REMARK   11  A    between atoms: P_19  and  O_22
REMARK                            x       y       z     vdW  Elec       q    Type
REMARK                         _______ _______ _______ _____ _____    ______ ____
ROOT
ATOM      1  C   UNL     1       2.950   3.401  17.452  0.00  0.00    +0.000 C 
ENDROOT
BRANCH   1   2
ATOM      2  C   UNL     1       4.310   2.813  17.868  0.00  0.00    +0.000 C 
BRANCH   2  12
ATOM      3  O   UNL     1       8.047   7.456  18.192  0.00  0.00    +0.000 OA
ATOM      4  C   UNL     1       7.460   6.550  17.612  0.00  0.00    +0.000 A 
ATOM      5  N   UNL     1       7.509   6.414  16.230  0.00  0.00    +0.000 N 
ATOM      6  C   UNL     1       6.844   5.421  15.530  0.00  0.00    +0.000 A 
ATOM      7  N   UNL     1       6.094   4.502  16.064  0.00  0.00    +0.000 NA
ATOM      8  C   UNL     1       6.027   4.606  17.414  0.00  0.00    +0.000 A 
ATOM      9  C   UNL     1       6.643   5.527  18.231  0.00  0.00    +0.000 A 
ATOM     10  N   UNL     1       6.333   5.310  19.550  0.00  0.00    +0.000 NA
ATOM     11  C   UNL     1       5.504   4.284  19.529  0.00  0.00    +0.000 A 
ATOM     12  N   UNL     1       5.275   3.830  18.254  0.00  0.00    +0.000 N 
ATOM     13  H   UNL     1       8.054   7.110  15.746  0.00  0.00    +0.000 HD
ENDBRANCH   2  12
ENDBRANCH   1   2
BRANCH   1  14
ATOM     14  N   UNL     1       2.268   4.264  18.469  0.00  0.00    +0.000 NA
BRANCH  14  15
ATOM     15  C   UNL     1       2.108   5.648  17.934  0.00  0.00    +0.000 C 
BRANCH  15  16
ATOM     16  C   UNL     1       2.830   6.777  18.698  0.00  0.00    +0.000 C 
BRANCH  16  17
ATOM     17  O   UNL     1       3.280   6.337  19.974  0.00  0.00    +0.000 OA
ATOM     18  H   UNL     1       3.948   5.649  19.803  0.00  0.00    +0.000 HD
ENDBRANCH  16  17
ENDBRANCH  15  16
ENDBRANCH  14  15
BRANCH  14  19
ATOM     19  C   UNL     1       0.943   3.685  18.820  0.00  0.00    +0.000 C 
BRANCH  19  20
ATOM     20  C   UNL     1       1.027   2.476  19.753  0.00  0.00    +0.000 C 
BRANCH  20  21
ATOM     21  P   UNL     1       1.803   2.847  21.314  0.00  0.00    +0.000 P 
ATOM     22  O   UNL     1       1.165   2.253  22.522  0.00  0.00    +0.000 OA
BRANCH  21  23
ATOM     23  O   UNL     1       3.334   2.424  21.106  0.00  0.00    +0.000 OA
ATOM     24  H   UNL     1       3.557   1.497  21.308  0.00  0.00    +0.000 HD
ENDBRANCH  21  23
BRANCH  21  25
ATOM     25  O   UNL     1       1.935   4.440  21.355  0.00  0.00    +0.000 OA
ATOM     26  H   UNL     1       2.205   4.744  22.244  0.00  0.00    +0.000 HD
ENDBRANCH  21  25
ENDBRANCH  20  21
ENDBRANCH  19  20
ENDBRANCH  14  19
ENDBRANCH   1  14
TORSDOF 11
ENDMDL
MODEL 4
REMARK VINA RESULT:      -5.6      1.786      2.898
REMARK  Name = 
REMARK  11 active torsions:
REMARK  status: ('A' for Active; 'I' for Inactive)
REMARK    1  A    between atoms: N_10  and  C_11
REMARK    2  A    between atoms: C_11  and  C_12
REMARK    3  A    between atoms: C_12  and  N_13
REMARK    4  A    between atoms: N_13  and  C_14
REMARK    5  A    between atoms: N_13  and  C_17
REMARK    6  A    between atoms: C_14  and  C_15
REMARK    7  A    between atoms: C_15  and  O_16
REMARK    8  A    between atoms: C_17  and  C_18
REMARK    9  A    between atoms: C_18  and  P_19
REMARK   10  A    between atoms: P_19  and  O_21
REMARK   11  A    between atoms: P_19  and  O_22
REMARK                            x       y       z     vdW  Elec       q    Type
REMARK                         _______ _______ _______ _____ _____    ______ ____
ROOT
ATOM      1  C   UNL     1       4.122   5.667  17.384  0.00  0.00    +0.000 C 
ENDROOT
BRANCH   1   2
ATOM      2  C   UNL     1       2.777   6.239  17.866  0.00  0.00    +0.000 C 
BRANCH   2  12
ATOM      3  O   UNL     1       1.184   2.480  22.220  0.00  0.00    +0.000 OA
ATOM      4  C   UNL     1       1.372   2.799  21.052  0.00  0.00    +0.000 A 
ATOM      5  N   UNL     1       1.292   1.875  20.018  0.00  0.00    +0.000 N 
ATOM      6  C   UNL     1       1.518   2.186  18.688  0.00  0.00    +0.000 A 
ATOM      7  N   UNL     1       1.834   3.364  18.237  0.00  0.00    +0.000 NA
ATOM      8  C   UNL     1       1.919   4.292  19.223  0.00  0.00    +0.000 A 
ATOM      9  C   UNL     1       1.708   4.124  20.573  0.00  0.00    +0.000 A 
ATOM     10  N   UNL     1       1.888   5.301  21.255  0.00  0.00    +0.000 NA
ATOM     11  C   UNL     1       2.242   6.169  20.327  0.00  0.00    +0.000 A 
ATOM     12  N   UNL     1       2.289   5.601  19.078  0.00  0.00    +0.000 N 
ATOM     13  H   UNL     1       1.074   0.931  20.298  0.00  0.00    +0.000 HD
ENDBRANCH   2  12
ENDBRANCH   1   2
BRANCH   1  14
ATOM     14  N   UNL     1       5.350   6.358  17.893  0.00  0.00    +0.000 NA
BRANCH  14  15
ATOM     15  C   UNL     1       6.034   5.498  18.902  0.00  0.00    +0.000 C 
BRANCH  15  16
ATOM     16  C   UNL     1       7.534   5.769  19.144  0.00  0.00    +0.000 C 
BRANCH  16  17
ATOM     17  O   UNL     1       7.914   5.436  20.474  0.00  0.00    +0.000 OA
ATOM     18  H   UNL     1       7.333   4.703  20.746  0.00  0.00    +0.000 HD
ENDBRANCH  16  17
ENDBRANCH  15  16
ENDBRANCH  14  15
BRANCH  14  19
ATOM     19  C   UNL     1       6.267   6.663  16.761  0.00  0.00    +0.000 C 
BRANCH  19  20
ATOM     20  C   UNL     1       5.804   6.088  15.422  0.00  0.00    +0.000 C 
BRANCH  20  21
ATOM     21  P   UNL     1       6.864   4.792  14.810  0.00  0.00    +0.000 P 
ATOM     22  O   UNL     1       6.184   3.648  14.141  0.00  0.00    +0.000 OA
BRANCH  21  23
ATOM     23  O   UNL     1       7.927   5.554  13.885  0.00  0.00    +0.000 OA
ATOM     24  H   UNL     1       8.835   5.197  13.887  0.00  0.00    +0.000 HD
ENDBRANCH  21  23
BRANCH  21  25
ATOM     25  O   UNL     1       7.786   4.378  16.048  0.00  0.00    +0.000 OA
ATOM     26  H   UNL     1       7.254   3.958  16.753  0.00  0.00    +0.000 HD
ENDBRANCH  21  25
ENDBRANCH  20  21
ENDBRANCH  19  20
ENDBRANCH  14  19
ENDBRANCH   1  14
TORSDOF 11
ENDMDL
MODEL 5
REMARK VINA RESULT:      -5.6      1.816      2.835
REMARK  Name = 
REMARK  11 active torsions:
REMARK  status: ('A' for Active; 'I' for Inactive)
REMARK    1  A    between atoms: N_10  and  C_11
REMARK    2  A    between atoms: C_11  and  C_12
REMARK    3  A    between atoms: C_12  and  N_13
REMARK    4  A    between atoms: N_13  and  C_14
REMARK    5  A    between atoms: N_13  and  C_17
REMARK    6  A    between atoms: C_14  and  C_15
REMARK    7  A    between atoms: C_15  and  O_16
REMARK    8  A    between atoms: C_17  and  C_18
REMARK    9  A    between atoms: C_18  and  P_19
REMARK   10  A    between atoms: P_19  and  O_21
REMARK   11  A    between atoms: P_19  and  O_22
REMARK                            x       y       z     vdW  Elec       q    Type
REMARK                         _______ _______ _______ _____ _____    ______ ____
ROOT
ATOM      1  C   UNL     1       5.451   3.205  16.115  0.00  0.00    +0.000 C 
ENDROOT
BRANCH   1   2
ATOM      2  C   UNL     1       4.309   4.056  16.698  0.00  0.00    +0.000 C 
BRANCH   2  12
ATOM      3  O   UNL     1       1.086   2.755  21.550  0.00  0.00    +0.000 OA
ATOM      4  C   UNL     1       1.700   3.507  20.802  0.00  0.00    +0.000 A 
ATOM      5  N   UNL     1       1.691   4.884  20.981  0.00  0.00    +0.000 N 
ATOM      6  C   UNL     1       2.352   5.773  20.149  0.00  0.00    +0.000 A 
ATOM      7  N   UNL     1       3.053   5.442  19.105  0.00  0.00    +0.000 NA
ATOM      8  C   UNL     1       3.083   4.101  18.903  0.00  0.00    +0.000 A 
ATOM      9  C   UNL     1       2.489   3.112  19.653  0.00  0.00    +0.000 A 
ATOM     10  N   UNL     1       2.746   1.869  19.133  0.00  0.00    +0.000 NA
ATOM     11  C   UNL     1       3.463   2.107  18.051  0.00  0.00    +0.000 A 
ATOM     12  N   UNL     1       3.683   3.449  17.861  0.00  0.00    +0.000 N 
ATOM     13  H   UNL     1       1.144   5.216  21.760  0.00  0.00    +0.000 HD
ENDBRANCH   2  12
ENDBRANCH   1   2
BRANCH   1  14
ATOM     14  N   UNL     1       6.561   3.961  15.452  0.00  0.00    +0.000 NA
BRANCH  14  15
ATOM     15  C   UNL     1       6.091   4.508  14.145  0.00  0.00    +0.000 C 
BRANCH  15  16
ATOM     16  C   UNL     1       6.765   3.950  12.875  0.00  0.00    +0.000 C 
BRANCH  16  17
ATOM     17  O   UNL     1       6.088   2.796  12.391  0.00  0.00    +0.000 OA
ATOM     18  H   UNL     1       5.980   2.205  13.157  0.00  0.00    +0.000 HD
ENDBRANCH  16  17
ENDBRANCH  15  16
ENDBRANCH  14  15
BRANCH  14  19
ATOM     19  C   UNL     1       7.028   5.061  16.339  0.00  0.00    +0.000 C 
BRANCH  19  20
ATOM     20  C   UNL     1       7.670   4.573  17.638  0.00  0.00    +0.000 C 
BRANCH  20  21
ATOM     21  P   UNL     1       7.645   5.794  18.936  0.00  0.00    +0.000 P 
ATOM     22  O   UNL     1       8.005   7.183  18.538  0.00  0.00    +0.000 OA
BRANCH  21  23
ATOM     23  O   UNL     1       6.186   5.655  19.583  0.00  0.00    +0.000 OA
ATOM     24  H   UNL     1       6.143   5.665  20.557  0.00  0.00    +0.000 HD
ENDBRANCH  21  23
BRANCH  21  25
ATOM     25  O   UNL     1       8.550   5.189  20.106  0.00  0.00    +0.000 OA
ATOM     26  H   UNL     1       9.344   4.749  19.740  0.00  0.00    +0.000 HD
ENDBRANCH  21  25
ENDBRANCH  20  21
ENDBRANCH  19  20
ENDBRANCH  14  19
ENDBRANCH   1  14
TORSDOF 11
ENDMDL
MODEL 6
REMARK VINA RESULT:      -5.6      2.598      5.583
REMARK  Name = 
REMARK  11 active torsions:
REMARK  status: ('A' for Active; 'I' for Inactive)
REMARK    1  A    between atoms: N_10  and  C_11
REMARK    2  A    between atoms: C_11  and  C_12
REMARK    3  A    between atoms: C_12  and  N_13
REMARK    4  A    between atoms: N_13  and  C_14
REMARK    5  A    between atoms: N_13  and  C_17
REMARK    6  A    between atoms: C_14  and  C_15
REMARK    7  A    between atoms: C_15  and  O_16
REMARK    8  A    between atoms: C_17  and  C_18
REMARK    9  A    between atoms: C_18  and  P_19
REMARK   10  A    between atoms: P_19  and  O_21
REMARK   11  A    between atoms: P_19  and  O_22
REMARK                            x       y       z     vdW  Elec       q    Type
REMARK                         _______ _______ _______ _____ _____    ______ ____
ROOT
ATOM      1  C   UNL     1       2.877   3.580  17.099  0.00  0.00    +0.000 C 
ENDROOT
BRANCH   1   2
ATOM      2  C   UNL     1       4.401   3.426  16.946  0.00  0.00    +0.000 C 
BRANCH   2  12
ATOM      3  O   UNL     1       8.121   8.081  17.293  0.00  0.00    +0.000 OA
ATOM      4  C   UNL     1       7.546   7.092  17.734  0.00  0.00    +0.000 A 
ATOM      5  N   UNL     1       7.865   6.552  18.973  0.00  0.00    +0.000 N 
ATOM      6  C   UNL     1       7.258   5.425  19.501  0.00  0.00    +0.000 A 
ATOM      7  N   UNL     1       6.327   4.731  18.915  0.00  0.00    +0.000 NA
ATOM      8  C   UNL     1       5.990   5.235  17.702  0.00  0.00    +0.000 A 
ATOM      9  C   UNL     1       6.498   6.346  17.068  0.00  0.00    +0.000 A 
ATOM     10  N   UNL     1       5.905   6.538  15.846  0.00  0.00    +0.000 NA
ATOM     11  C   UNL     1       5.066   5.527  15.725  0.00  0.00    +0.000 A 
ATOM     12  N   UNL     1       5.092   4.699  16.820  0.00  0.00    +0.000 N 
ATOM     13  H   UNL     1       8.600   7.026  19.475  0.00  0.00    +0.000 HD
ENDBRANCH   2  12
ENDBRANCH   1   2
BRANCH   1  14
ATOM     14  N   UNL     1       2.413   4.408  18.258  0.00  0.00    +0.000 NA
BRANCH  14  15
ATOM     15  C   UNL     1       2.176   5.813  17.814  0.00  0.00    +0.000 C 
BRANCH  15  16
ATOM     16  C   UNL     1       2.834   6.927  18.653  0.00  0.00    +0.000 C 
BRANCH  16  17
ATOM     17  O   UNL     1       2.198   8.182  18.443  0.00  0.00    +0.000 OA
ATOM     18  H   UNL     1       2.171   8.621  19.312  0.00  0.00    +0.000 HD
ENDBRANCH  16  17
ENDBRANCH  15  16
ENDBRANCH  14  15
BRANCH  14  19
ATOM     19  C   UNL     1       1.169   3.826  18.832  0.00  0.00    +0.000 C 
BRANCH  19  20
ATOM     20  C   UNL     1       1.423   2.696  19.831  0.00  0.00    +0.000 C 
BRANCH  20  21
ATOM     21  P   UNL     1       2.631   3.116  21.073  0.00  0.00    +0.000 P 
ATOM     22  O   UNL     1       2.573   2.330  22.337  0.00  0.00    +0.000 OA
BRANCH  21  23
ATOM     23  O   UNL     1       4.035   3.023  20.306  0.00  0.00    +0.000 OA
ATOM     24  H   UNL     1       4.276   2.146  19.954  0.00  0.00    +0.000 HD
ENDBRANCH  21  23
BRANCH  21  25
ATOM     25  O   UNL     1       2.503   4.696  21.273  0.00  0.00    +0.000 OA
ATOM     26  H   UNL     1       1.691   4.919  21.770  0.00  0.00    +0.000 HD
ENDBRANCH  21  25
ENDBRANCH  20  21
ENDBRANCH  19  20
ENDBRANCH  14  19
ENDBRANCH   1  14
TORSDOF 11
ENDMDL
MODEL 7
REMARK VINA RESULT:      -5.6      2.426      3.816
REMARK  Name = 
REMARK  11 active torsions:
REMARK  status: ('A' for Active; 'I' for Inactive)
REMARK    1  A    between atoms: N_10  and  C_11
REMARK    2  A    between atoms: C_11  and  C_12
REMARK    3  A    between atoms: C_12  and  N_13
REMARK    4  A    between atoms: N_13  and  C_14
REMARK    5  A    between atoms: N_13  and  C_17
REMARK    6  A    between atoms: C_14  and  C_15
REMARK    7  A    between atoms: C_15  and  O_16
REMARK    8  A    between atoms: C_17  and  C_18
REMARK    9  A    between atoms: C_18  and  P_19
REMARK   10  A    between atoms: P_19  and  O_21
REMARK   11  A    between atoms: P_19  and  O_22
REMARK                            x       y       z     vdW  Elec       q    Type
REMARK                         _______ _______ _______ _____ _____    ______ ____
ROOT
ATOM      1  C   UNL     1       5.102   5.976  18.914  0.00  0.00    +0.000 C 
ENDROOT
BRANCH   1   2
ATOM      2  C   UNL     1       5.381   4.476  19.112  0.00  0.00    +0.000 C 
BRANCH   2  12
ATOM      3  O   UNL     1       0.032   1.918  18.425  0.00  0.00    +0.000 OA
ATOM      4  C   UNL     1       0.881   2.552  19.040  0.00  0.00    +0.000 A 
ATOM      5  N   UNL     1       0.598   3.168  20.252  0.00  0.00    +0.000 N 
ATOM      6  C   UNL     1       1.520   3.912  20.971  0.00  0.00    +0.000 A 
ATOM      7  N   UNL     1       2.750   4.132  20.611  0.00  0.00    +0.000 NA
ATOM      8  C   UNL     1       3.059   3.540  19.431  0.00  0.00    +0.000 A 
ATOM      9  C   UNL     1       2.252   2.769  18.626  0.00  0.00    +0.000 A 
ATOM     10  N   UNL     1       2.923   2.345  17.507  0.00  0.00    +0.000 NA
ATOM     11  C   UNL     1       4.121   2.888  17.616  0.00  0.00    +0.000 A 
ATOM     12  N   UNL     1       4.248   3.635  18.760  0.00  0.00    +0.000 N 
ATOM     13  H   UNL     1      -0.348   3.061  20.582  0.00  0.00    +0.000 HD
ENDBRANCH   2  12
ENDBRANCH   1   2
BRANCH   1  14
ATOM     14  N   UNL     1       4.487   6.363  17.604  0.00  0.00    +0.000 NA
BRANCH  14  15
ATOM     15  C   UNL     1       3.527   7.487  17.807  0.00  0.00    +0.000 C 
BRANCH  15  16
ATOM     16  C   UNL     1       2.473   7.309  18.919  0.00  0.00    +0.000 C 
BRANCH  16  17
ATOM     17  O   UNL     1       1.730   8.504  19.127  0.00  0.00    +0.000 OA
ATOM     18  H   UNL     1       0.942   8.247  19.640  0.00  0.00    +0.000 HD
ENDBRANCH  16  17
ENDBRANCH  15  16
ENDBRANCH  14  15
BRANCH  14  19
ATOM     19  C   UNL     1       5.552   6.755  16.640  0.00  0.00    +0.000 C 
BRANCH  19  20
ATOM     20  C   UNL     1       5.462   6.030  15.296  0.00  0.00    +0.000 C 
BRANCH  20  21
ATOM     21  P   UNL     1       6.715   4.779  15.089  0.00  0.00    +0.000 P 
ATOM     22  O   UNL     1       6.238   3.440  14.643  0.00  0.00    +0.000 OA
BRANCH  21  23
ATOM     23  O   UNL     1       7.789   5.452  14.110  0.00  0.00    +0.000 OA
ATOM     24  H   UNL     1       8.216   6.267  14.433  0.00  0.00    +0.000 HD
ENDBRANCH  21  23
BRANCH  21  25
ATOM     25  O   UNL     1       7.531   4.764  16.464  0.00  0.00    +0.000 OA
ATOM     26  H   UNL     1       8.495   4.770  16.296  0.00  0.00    +0.000 HD
ENDBRANCH  21  25
ENDBRANCH  20  21
ENDBRANCH  19  20
ENDBRANCH  14  19
ENDBRANCH   1  14
TORSDOF 11
ENDMDL
MODEL 8
REMARK VINA RESULT:      -5.6      2.393      5.319
REMARK  Name = 
REMARK  11 active torsions:
REMARK  status: ('A' for Active; 'I' for Inactive)
REMARK    1  A    between atoms: N_10  and  C_11
REMARK    2  A    between atoms: C_11  and  C_12
REMARK    3  A    between atoms: C_12  and  N_13
REMARK    4  A    between atoms: N_13  and  C_14
REMARK    5  A    between atoms: N_13  and  C_17
REMARK    6  A    between atoms: C_14  and  C_15
REMARK    7  A    between atoms: C_15  and  O_16
REMARK    8  A    between atoms: C_17  and  C_18
REMARK    9  A    between atoms: C_18  and  P_19
REMARK   10  A    between atoms: P_19  and  O_21
REMARK   11  A    between atoms: P_19  and  O_22
REMARK                            x       y       z     vdW  Elec       q    Type
REMARK                         _______ _______ _______ _____ _____    ______ ____
ROOT
ATOM      1  C   UNL     1       2.200   6.631  18.250  0.00  0.00    +0.000 C 
ENDROOT
BRANCH   1   2
ATOM      2  C   UNL     1       3.399   7.582  18.091  0.00  0.00    +0.000 C 
BRANCH   2  12
ATOM      3  O   UNL     1       7.910   4.265  16.024  0.00  0.00    +0.000 OA
ATOM      4  C   UNL     1       7.224   4.769  16.906  0.00  0.00    +0.000 A 
ATOM      5  N   UNL     1       7.396   4.439  18.245  0.00  0.00    +0.000 N 
ATOM      6  C   UNL     1       6.630   4.965  19.272  0.00  0.00    +0.000 A 
ATOM      7  N   UNL     1       5.663   5.821  19.122  0.00  0.00    +0.000 NA
ATOM      8  C   UNL     1       5.471   6.166  17.825  0.00  0.00    +0.000 A 
ATOM      9  C   UNL     1       6.162   5.734  16.715  0.00  0.00    +0.000 A 
ATOM     10  N   UNL     1       5.674   6.309  15.569  0.00  0.00    +0.000 NA
ATOM     11  C   UNL     1       4.669   7.059  15.979  0.00  0.00    +0.000 A 
ATOM     12  N   UNL     1       4.496   6.995  17.339  0.00  0.00    +0.000 N 
ATOM     13  H   UNL     1       8.116   3.758  18.433  0.00  0.00    +0.000 HD
ENDBRANCH   2  12
ENDBRANCH   1   2
BRANCH   1  14
ATOM     14  N   UNL     1       2.498   5.294  18.856  0.00  0.00    +0.000 NA
BRANCH  14  15
ATOM     15  C   UNL     1       1.789   5.161  20.162  0.00  0.00    +0.000 C 
BRANCH  15  16
ATOM     16  C   UNL     1       0.699   4.073  20.254  0.00  0.00    +0.000 C 
BRANCH  16  17
ATOM     17  O   UNL     1       1.053   3.058  21.186  0.00  0.00    +0.000 OA
ATOM     18  H   UNL     1       0.263   2.908  21.736  0.00  0.00    +0.000 HD
ENDBRANCH  16  17
ENDBRANCH  15  16
ENDBRANCH  14  15
BRANCH  14  19
ATOM     19  C   UNL     1       2.081   4.210  17.924  0.00  0.00    +0.000 C 
BRANCH  19  20
ATOM     20  C   UNL     1       3.207   3.240  17.566  0.00  0.00    +0.000 C 
BRANCH  20  21
ATOM     21  P   UNL     1       3.421   1.939  18.767  0.00  0.00    +0.000 P 
ATOM     22  O   UNL     1       3.971   2.351  20.089  0.00  0.00    +0.000 OA
BRANCH  21  23
ATOM     23  O   UNL     1       1.985   1.232  18.845  0.00  0.00    +0.000 OA
ATOM     24  H   UNL     1       1.556   1.223  19.721  0.00  0.00    +0.000 HD
ENDBRANCH  21  23
BRANCH  21  25
ATOM     25  O   UNL     1       4.271   0.810  18.022  0.00  0.00    +0.000 OA
ATOM     26  H   UNL     1       4.890   1.208  17.378  0.00  0.00    +0.000 HD
ENDBRANCH  21  25
ENDBRANCH  20  21
ENDBRANCH  19  20
ENDBRANCH  14  19
ENDBRANCH   1  14
TORSDOF 11
ENDMDL
MODEL 9
REMARK VINA RESULT:      -5.6      2.428      3.444
REMARK  Name = 
REMARK  11 active torsions:
REMARK  status: ('A' for Active; 'I' for Inactive)
REMARK    1  A    between atoms: N_10  and  C_11
REMARK    2  A    between atoms: C_11  and  C_12
REMARK    3  A    between atoms: C_12  and  N_13
REMARK    4  A    between atoms: N_13  and  C_14
REMARK    5  A    between atoms: N_13  and  C_17
REMARK    6  A    between atoms: C_14  and  C_15
REMARK    7  A    between atoms: C_15  and  O_16
REMARK    8  A    between atoms: C_17  and  C_18
REMARK    9  A    between atoms: C_18  and  P_19
REMARK   10  A    between atoms: P_19  and  O_21
REMARK   11  A    between atoms: P_19  and  O_22
REMARK                            x       y       z     vdW  Elec       q    Type
REMARK                         _______ _______ _______ _____ _____    ______ ____
ROOT
ATOM      1  C   UNL     1       5.699   6.466  18.492  0.00  0.00    +0.000 C 
ENDROOT
BRANCH   1   2
ATOM      2  C   UNL     1       5.341   5.247  19.361  0.00  0.00    +0.000 C 
BRANCH   2  12
ATOM      3  O   UNL     1       0.069   2.455  19.154  0.00  0.00    +0.000 OA
ATOM      4  C   UNL     1       1.278   2.547  18.969  0.00  0.00    +0.000 A 
ATOM      5  N   UNL     1       2.039   1.463  18.549  0.00  0.00    +0.000 N 
ATOM      6  C   UNL     1       3.408   1.515  18.350  0.00  0.00    +0.000 A 
ATOM      7  N   UNL     1       4.152   2.566  18.529  0.00  0.00    +0.000 NA
ATOM      8  C   UNL     1       3.438   3.644  18.938  0.00  0.00    +0.000 A 
ATOM      9  C   UNL     1       2.083   3.736  19.161  0.00  0.00    +0.000 A 
ATOM     10  N   UNL     1       1.729   4.997  19.569  0.00  0.00    +0.000 NA
ATOM     11  C   UNL     1       2.870   5.656  19.628  0.00  0.00    +0.000 A 
ATOM     12  N   UNL     1       3.939   4.874  19.268  0.00  0.00    +0.000 N 
ATOM     13  H   UNL     1       1.529   0.604  18.414  0.00  0.00    +0.000 HD
ENDBRANCH   2  12
ENDBRANCH   1   2
BRANCH   1  14
ATOM     14  N   UNL     1       6.799   6.264  17.497  0.00  0.00    +0.000 NA
BRANCH  14  15
ATOM     15  C   UNL     1       7.976   7.104  17.864  0.00  0.00    +0.000 C 
BRANCH  15  16
ATOM     16  C   UNL     1       7.835   8.627  17.659  0.00  0.00    +0.000 C 
BRANCH  16  17
ATOM     17  O   UNL     1       8.650   9.353  18.571  0.00  0.00    +0.000 OA
ATOM     18  H   UNL     1       8.647  10.276  18.260  0.00  0.00    +0.000 HD
ENDBRANCH  16  17
ENDBRANCH  15  16
ENDBRANCH  14  15
BRANCH  14  19
ATOM     19  C   UNL     1       7.182   4.826  17.448  0.00  0.00    +0.000 C 
BRANCH  19  20
ATOM     20  C   UNL     1       6.449   4.032  16.365  0.00  0.00    +0.000 C 
BRANCH  20  21
ATOM     21  P   UNL     1       6.468   4.832  14.773  0.00  0.00    +0.000 P 
ATOM     22  O   UNL     1       6.117   3.978  13.605  0.00  0.00    +0.000 OA
BRANCH  21  23
ATOM     23  O   UNL     1       5.519   6.109  14.961  0.00  0.00    +0.000 OA
ATOM     24  H   UNL     1       4.559   5.945  14.898  0.00  0.00    +0.000 HD
ENDBRANCH  21  23
BRANCH  21  25
ATOM     25  O   UNL     1       7.899   5.536  14.669  0.00  0.00    +0.000 OA
ATOM     26  H   UNL     1       8.497   5.026  14.087  0.00  0.00    +0.000 HD
ENDBRANCH  21  25
ENDBRANCH  20  21
ENDBRANCH  19  20
ENDBRANCH  14  19
ENDBRANCH   1  14
TORSDOF 11
ENDMDL
