MODEL 1
REMARK VINA RESULT:      -7.9      0.000      0.000
REMARK  Name = 
REMARK  10 active torsions:
REMARK  status: ('A' for Active; 'I' for Inactive)
REMARK    1  A    between atoms: C_1  and  O_2
REMARK    2  A    between atoms: O_2  and  C_3
REMARK    3  A    between atoms: C_6  and  C_7
REMARK    4  A    between atoms: C_7  and  C_8
REMARK    5  A    between atoms: C_8  and  C_9
REMARK    6  A    between atoms: C_18  and  C_19
REMARK    7  A    between atoms: C_20  and  P_22
REMARK    8  A    between atoms: P_22  and  O_24
REMARK    9  A    between atoms: P_22  and  O_25
REMARK   10  A    between atoms: C_31  and  C_32
REMARK                            x       y       z     vdW  Elec       q    Type
REMARK                         _______ _______ _______ _____ _____    ______ ____
ROOT
ATOM      1  C   UNL     1       0.039  11.653  21.512  0.00  0.00    +0.000 A 
ATOM      2  C   UNL     1       0.123  11.771  20.177  0.00  0.00    +0.000 A 
ATOM      3  N   UNL     1       0.480  10.623  19.603  0.00  0.00    +0.000 NA
ATOM      4  C   UNL     1       0.739   9.249  20.244  0.00  0.00    +0.000 A 
ATOM      5  C   UNL     1       1.382   8.616  19.352  0.00  0.00    +0.000 A 
ATOM      6  N   UNL     1       1.069   8.520  18.032  0.00  0.00    +0.000 N 
ATOM      7  N   UNL     1       2.390   8.054  19.885  0.00  0.00    +0.000 NA
ATOM      8  C   UNL     1       2.156   6.863  19.873  0.00  0.00    +0.000 A 
ATOM      9  C   UNL     1       3.013   6.401  18.822  0.00  0.00    +0.000 A 
ATOM     10  C   UNL     1       3.334   5.240  18.211  0.00  0.00    +0.000 A 
ATOM     11  C   UNL     1       2.637   4.352  18.957  0.00  0.00    +0.000 A 
ATOM     12  C   UNL     1       1.656   4.937  20.241  0.00  0.00    +0.000 A 
ATOM     13  C   UNL     1       1.235   6.640  20.773  0.00  0.00    +0.000 A 
ATOM     14  C   UNL     1       0.770   8.440  21.371  0.00  0.00    +0.000 A 
ATOM     15  C   UNL     1       0.317  10.047  22.070  0.00  0.00    +0.000 A 
ATOM     16  H   UNL     1       1.040   9.435  17.599  0.00  0.00    +0.000 HD
ATOM     17  H   UNL     1       1.595   7.788  17.580  0.00  0.00    +0.000 HD
ENDROOT
BRANCH  10  18
ATOM     18  C   UNL     1       4.287   5.277  17.059  0.00  0.00    +0.000 C 
ATOM     19  C   UNL     1       5.644   5.248  17.201  0.00  0.00    +0.000 C 
ATOM     20  F   UNL     1       6.272   5.148  18.394  0.00  0.00    +0.000 F 
BRANCH  19  21
ATOM     21  P   UNL     1       6.842   5.312  15.819  0.00  0.00    +0.000 P 
ATOM     22  O   UNL     1       7.441   6.635  16.306  0.00  0.00    +0.000 OA
BRANCH  21  23
ATOM     23  O   UNL     1       7.641   4.008  16.404  0.00  0.00    +0.000 OA
ATOM     24  H   UNL     1       8.611   4.035  16.281  0.00  0.00    +0.000 HD
ENDBRANCH  21  23
BRANCH  21  25
ATOM     25  O   UNL     1       7.975   5.373  14.513  0.00  0.00    +0.000 OA
ATOM     26  H   UNL     1       8.834   5.668  14.861  0.00  0.00    +0.000 HD
ENDBRANCH  21  25
ENDBRANCH  19  21
ENDBRANCH  10  18
BRANCH   1  27
ATOM     27  C   UNL     1      -0.338  13.147  22.134  0.00  0.00    +0.000 C 
BRANCH  27  28
ATOM     28  C   UNL     1      -1.649  13.751  21.636  0.00  0.00    +0.000 C 
BRANCH  28  32
ATOM     29  C   UNL     1      -5.404  12.738  23.650  0.00  0.00    +0.000 A 
ATOM     30  C   UNL     1      -4.267  13.028  24.389  0.00  0.00    +0.000 A 
ATOM     31  C   UNL     1      -3.068  13.354  23.745  0.00  0.00    +0.000 A 
ATOM     32  C   UNL     1      -2.956  13.385  22.347  0.00  0.00    +0.000 A 
ATOM     33  C   UNL     1      -4.109  13.066  21.596  0.00  0.00    +0.000 A 
ATOM     34  C   UNL     1      -4.091  13.082  20.091  0.00  0.00    +0.000 C 
ATOM     35  C   UNL     1      -5.315  12.732  22.255  0.00  0.00    +0.000 A 
BRANCH  29  37
ATOM     36  C   UNL     1      -7.575  13.434  24.261  0.00  0.00    +0.000 C 
ATOM     37  O   UNL     1      -6.599  12.389  24.217  0.00  0.00    +0.000 OA
ENDBRANCH  29  37
ENDBRANCH  28  32
ENDBRANCH  27  28
ENDBRANCH   1  27
TORSDOF 8
ENDMDL
MODEL 2
REMARK VINA RESULT:      -7.9      1.054      1.065
REMARK  Name = 
REMARK  10 active torsions:
REMARK  status: ('A' for Active; 'I' for Inactive)
REMARK    1  A    between atoms: C_1  and  O_2
REMARK    2  A    between atoms: O_2  and  C_3
REMARK    3  A    between atoms: C_6  and  C_7
REMARK    4  A    between atoms: C_7  and  C_8
REMARK    5  A    between atoms: C_8  and  C_9
REMARK    6  A    between atoms: C_18  and  C_19
REMARK    7  A    between atoms: C_20  and  P_22
REMARK    8  A    between atoms: P_22  and  O_24
REMARK    9  A    between atoms: P_22  and  O_25
REMARK   10  A    between atoms: C_31  and  C_32
REMARK                            x       y       z     vdW  Elec       q    Type
REMARK                         _______ _______ _______ _____ _____    ______ ____
ROOT
ATOM      1  C   UNL     1      -0.344  10.806  21.804  0.00  0.00    +0.000 A 
ATOM      2  C   UNL     1      -0.022  11.152  20.547  0.00  0.00    +0.000 A 
ATOM      3  N   UNL     1       0.517  10.134  19.878  0.00  0.00    +0.000 NA
ATOM      4  C   UNL     1       0.752   8.682  20.331  0.00  0.00    +0.000 A 
ATOM      5  C   UNL     1       1.592   8.236  19.493  0.00  0.00    +0.000 A 
ATOM      6  N   UNL     1       1.539   8.353  18.139  0.00  0.00    +0.000 N 
ATOM      7  N   UNL     1       2.522   7.632  20.116  0.00  0.00    +0.000 NA
ATOM      8  C   UNL     1       2.380   6.452  19.871  0.00  0.00    +0.000 A 
ATOM      9  C   UNL     1       3.448   6.210  18.947  0.00  0.00    +0.000 A 
ATOM     10  C   UNL     1       3.961   5.184  18.235  0.00  0.00    +0.000 A 
ATOM     11  C   UNL     1       3.202   4.154  18.679  0.00  0.00    +0.000 A 
ATOM     12  C   UNL     1       1.960   4.473  19.823  0.00  0.00    +0.000 A 
ATOM     13  C   UNL     1       1.327   6.043  20.526  0.00  0.00    +0.000 A 
ATOM     14  C   UNL     1       0.630   7.696  21.300  0.00  0.00    +0.000 A 
ATOM     15  C   UNL     1      -0.059   9.141  22.143  0.00  0.00    +0.000 A 
ATOM     16  H   UNL     1       1.524   9.326  17.860  0.00  0.00    +0.000 HD
ATOM     17  H   UNL     1       2.190   7.729  17.689  0.00  0.00    +0.000 HD
ENDROOT
BRANCH  10  18
ATOM     18  C   UNL     1       5.106   5.454  17.311  0.00  0.00    +0.000 C 
ATOM     19  C   UNL     1       5.202   4.928  16.055  0.00  0.00    +0.000 C 
ATOM     20  F   UNL     1       4.259   4.137  15.498  0.00  0.00    +0.000 F 
BRANCH  19  21
ATOM     21  P   UNL     1       6.596   5.218  14.905  0.00  0.00    +0.000 P 
ATOM     22  O   UNL     1       7.569   5.524  16.048  0.00  0.00    +0.000 OA
BRANCH  21  23
ATOM     23  O   UNL     1       6.613   3.638  14.472  0.00  0.00    +0.000 OA
ATOM     24  H   UNL     1       7.369   3.127  14.826  0.00  0.00    +0.000 HD
ENDBRANCH  21  23
BRANCH  21  25
ATOM     25  O   UNL     1       7.914   5.491  13.817  0.00  0.00    +0.000 OA
ATOM     26  H   UNL     1       7.644   6.160  13.165  0.00  0.00    +0.000 HD
ENDBRANCH  21  25
ENDBRANCH  19  21
ENDBRANCH  10  18
BRANCH   1  27
ATOM     27  C   UNL     1      -0.937  12.156  22.570  0.00  0.00    +0.000 C 
BRANCH  27  28
ATOM     28  C   UNL     1      -2.037  12.903  21.819  0.00  0.00    +0.000 C 
BRANCH  28  32
ATOM     29  C   UNL     1      -6.145  12.799  23.334  0.00  0.00    +0.000 A 
ATOM     30  C   UNL     1      -5.073  12.819  24.213  0.00  0.00    +0.000 A 
ATOM     31  C   UNL     1      -3.760  12.856  23.729  0.00  0.00    +0.000 A 
ATOM     32  C   UNL     1      -3.471  12.854  22.356  0.00  0.00    +0.000 A 
ATOM     33  C   UNL     1      -4.564  12.809  21.463  0.00  0.00    +0.000 A 
ATOM     34  C   UNL     1      -4.355  12.813  19.972  0.00  0.00    +0.000 C 
ATOM     35  C   UNL     1      -5.887  12.766  21.961  0.00  0.00    +0.000 A 
BRANCH  29  37
ATOM     36  C   UNL     1      -7.903  13.876  24.482  0.00  0.00    +0.000 C 
ATOM     37  O   UNL     1      -7.449  12.739  23.743  0.00  0.00    +0.000 OA
ENDBRANCH  29  37
ENDBRANCH  28  32
ENDBRANCH  27  28
ENDBRANCH   1  27
TORSDOF 8
ENDMDL
MODEL 3
REMARK VINA RESULT:      -7.8      0.963      1.621
REMARK  Name = 
REMARK  10 active torsions:
REMARK  status: ('A' for Active; 'I' for Inactive)
REMARK    1  A    between atoms: C_1  and  O_2
REMARK    2  A    between atoms: O_2  and  C_3
REMARK    3  A    between atoms: C_6  and  C_7
REMARK    4  A    between atoms: C_7  and  C_8
REMARK    5  A    between atoms: C_8  and  C_9
REMARK    6  A    between atoms: C_18  and  C_19
REMARK    7  A    between atoms: C_20  and  P_22
REMARK    8  A    between atoms: P_22  and  O_24
REMARK    9  A    between atoms: P_22  and  O_25
REMARK   10  A    between atoms: C_31  and  C_32
REMARK                            x       y       z     vdW  Elec       q    Type
REMARK                         _______ _______ _______ _____ _____    ______ ____
ROOT
ATOM      1  C   UNL     1       0.128  11.701  21.328  0.00  0.00    +0.000 A 
ATOM      2  C   UNL     1       0.211  11.746  19.989  0.00  0.00    +0.000 A 
ATOM      3  N   UNL     1       0.552  10.566  19.475  0.00  0.00    +0.000 NA
ATOM      4  C   UNL     1       0.797   9.224  20.188  0.00  0.00    +0.000 A 
ATOM      5  C   UNL     1       1.430   8.538  19.329  0.00  0.00    +0.000 A 
ATOM      6  N   UNL     1       1.114   8.375  18.017  0.00  0.00    +0.000 N 
ATOM      7  N   UNL     1       2.433   7.992  19.890  0.00  0.00    +0.000 NA
ATOM      8  C   UNL     1       2.184   6.806  19.942  0.00  0.00    +0.000 A 
ATOM      9  C   UNL     1       3.033   6.278  18.916  0.00  0.00    +0.000 A 
ATOM     10  C   UNL     1       3.340   5.083  18.367  0.00  0.00    +0.000 A 
ATOM     11  C   UNL     1       2.633   4.244  19.160  0.00  0.00    +0.000 A 
ATOM     12  C   UNL     1       1.662   4.907  20.412  0.00  0.00    +0.000 A 
ATOM     13  C   UNL     1       1.263   6.641  20.854  0.00  0.00    +0.000 A 
ATOM     14  C   UNL     1       0.821   8.476  21.356  0.00  0.00    +0.000 A 
ATOM     15  C   UNL     1       0.389  10.123  21.969  0.00  0.00    +0.000 A 
ATOM     16  H   UNL     1       1.094   9.267  17.536  0.00  0.00    +0.000 HD
ATOM     17  H   UNL     1       1.630   7.613  17.604  0.00  0.00    +0.000 HD
ENDROOT
BRANCH  10  18
ATOM     18  C   UNL     1       4.291   5.047  17.213  0.00  0.00    +0.000 C 
ATOM     19  C   UNL     1       5.614   5.363  17.316  0.00  0.00    +0.000 C 
ATOM     20  F   UNL     1       6.216   5.709  18.475  0.00  0.00    +0.000 F 
BRANCH  19  21
ATOM     21  P   UNL     1       6.804   5.352  15.924  0.00  0.00    +0.000 P 
ATOM     22  O   UNL     1       7.421   6.688  16.349  0.00  0.00    +0.000 OA
BRANCH  21  23
ATOM     23  O   UNL     1       7.591   4.065  16.561  0.00  0.00    +0.000 OA
ATOM     24  H   UNL     1       8.336   4.295  17.153  0.00  0.00    +0.000 HD
ENDBRANCH  21  23
BRANCH  21  25
ATOM     25  O   UNL     1       7.929   5.341  14.610  0.00  0.00    +0.000 OA
ATOM     26  H   UNL     1       8.709   4.824  14.874  0.00  0.00    +0.000 HD
ENDBRANCH  21  25
ENDBRANCH  19  21
ENDBRANCH  10  18
BRANCH   1  27
ATOM     27  C   UNL     1      -0.230  13.229  21.871  0.00  0.00    +0.000 C 
BRANCH  27  28
ATOM     28  C   UNL     1      -1.458  13.332  22.773  0.00  0.00    +0.000 C 
BRANCH  28  32
ATOM     29  C   UNL     1      -5.442  12.817  21.029  0.00  0.00    +0.000 A 
ATOM     30  C   UNL     1      -4.343  13.037  20.214  0.00  0.00    +0.000 A 
ATOM     31  C   UNL     1      -3.069  13.199  20.771  0.00  0.00    +0.000 A 
ATOM     32  C   UNL     1      -2.851  13.165  22.156  0.00  0.00    +0.000 A 
ATOM     33  C   UNL     1      -3.976  12.965  22.986  0.00  0.00    +0.000 A 
ATOM     34  C   UNL     1      -3.842  12.904  24.484  0.00  0.00    +0.000 C 
ATOM     35  C   UNL     1      -5.260  12.808  22.414  0.00  0.00    +0.000 A 
BRANCH  29  37
ATOM     36  C   UNL     1      -7.403  13.902  20.288  0.00  0.00    +0.000 C 
ATOM     37  O   UNL     1      -6.716  12.675  20.549  0.00  0.00    +0.000 OA
ENDBRANCH  29  37
ENDBRANCH  28  32
ENDBRANCH  27  28
ENDBRANCH   1  27
TORSDOF 8
ENDMDL
MODEL 4
REMARK VINA RESULT:      -7.7      2.517      3.718
REMARK  Name = 
REMARK  10 active torsions:
REMARK  status: ('A' for Active; 'I' for Inactive)
REMARK    1  A    between atoms: C_1  and  O_2
REMARK    2  A    between atoms: O_2  and  C_3
REMARK    3  A    between atoms: C_6  and  C_7
REMARK    4  A    between atoms: C_7  and  C_8
REMARK    5  A    between atoms: C_8  and  C_9
REMARK    6  A    between atoms: C_18  and  C_19
REMARK    7  A    between atoms: C_20  and  P_22
REMARK    8  A    between atoms: P_22  and  O_24
REMARK    9  A    between atoms: P_22  and  O_25
REMARK   10  A    between atoms: C_31  and  C_32
REMARK                            x       y       z     vdW  Elec       q    Type
REMARK                         _______ _______ _______ _____ _____    ______ ____
ROOT
ATOM      1  C   UNL     1      -1.769  11.608  22.694  0.00  0.00    +0.000 A 
ATOM      2  C   UNL     1      -1.067  10.754  23.455  0.00  0.00    +0.000 A 
ATOM      3  N   UNL     1      -0.140  10.110  22.748  0.00  0.00    +0.000 NA
ATOM      4  C   UNL     1       0.235  10.260  21.263  0.00  0.00    +0.000 A 
ATOM      5  C   UNL     1       0.893   9.205  21.010  0.00  0.00    +0.000 A 
ATOM      6  N   UNL     1       1.906   8.676  21.748  0.00  0.00    +0.000 N 
ATOM      7  N   UNL     1       0.467   8.699  19.924  0.00  0.00    +0.000 NA
ATOM      8  C   UNL     1       1.349   8.864  19.108  0.00  0.00    +0.000 A 
ATOM      9  C   UNL     1       1.896   7.545  18.989  0.00  0.00    +0.000 A 
ATOM     10  C   UNL     1       2.870   6.908  18.304  0.00  0.00    +0.000 A 
ATOM     11  C   UNL     1       3.307   7.899  17.492  0.00  0.00    +0.000 A 
ATOM     12  C   UNL     1       2.596   9.458  17.628  0.00  0.00    +0.000 A 
ATOM     13  C   UNL     1       1.366  10.135  18.806  0.00  0.00    +0.000 A 
ATOM     14  C   UNL     1       0.053  10.889  20.040  0.00  0.00    +0.000 A 
ATOM     15  C   UNL     1      -1.202  11.690  21.069  0.00  0.00    +0.000 A 
ATOM     16  H   UNL     1       1.594   8.457  22.686  0.00  0.00    +0.000 HD
ATOM     17  H   UNL     1       2.412   7.975  21.230  0.00  0.00    +0.000 HD
ENDROOT
BRANCH  10  18
ATOM     18  C   UNL     1       3.113   5.460  18.584  0.00  0.00    +0.000 C 
ATOM     19  C   UNL     1       4.263   4.982  19.142  0.00  0.00    +0.000 C 
ATOM     20  F   UNL     1       5.291   5.768  19.534  0.00  0.00    +0.000 F 
BRANCH  19  21
ATOM     21  P   UNL     1       4.607   3.216  19.481  0.00  0.00    +0.000 P 
ATOM     22  O   UNL     1       3.296   3.036  20.253  0.00  0.00    +0.000 OA
BRANCH  21  23
ATOM     23  O   UNL     1       4.457   2.846  17.893  0.00  0.00    +0.000 OA
ATOM     24  H   UNL     1       5.179   3.183  17.326  0.00  0.00    +0.000 HD
ENDBRANCH  21  23
BRANCH  21  25
ATOM     25  O   UNL     1       4.931   1.547  19.801  0.00  0.00    +0.000 OA
ATOM     26  H   UNL     1       5.438   1.483  20.630  0.00  0.00    +0.000 HD
ENDBRANCH  21  25
ENDBRANCH  19  21
ENDBRANCH  10  18
BRANCH   1  27
ATOM     27  C   UNL     1      -2.939  12.302  23.648  0.00  0.00    +0.000 C 
BRANCH  27  28
ATOM     28  C   UNL     1      -3.717  13.445  23.001  0.00  0.00    +0.000 C 
BRANCH  28  32
ATOM     29  C   UNL     1      -6.597  12.497  19.840  0.00  0.00    +0.000 A 
ATOM     30  C   UNL     1      -5.283  12.807  19.523  0.00  0.00    +0.000 A 
ATOM     31  C   UNL     1      -4.363  13.107  20.533  0.00  0.00    +0.000 A 
ATOM     32  C   UNL     1      -4.723  13.127  21.889  0.00  0.00    +0.000 A 
ATOM     33  C   UNL     1      -6.067  12.834  22.208  0.00  0.00    +0.000 A 
ATOM     34  C   UNL     1      -6.546  12.821  23.634  0.00  0.00    +0.000 C 
ATOM     35  C   UNL     1      -6.992  12.539  21.179  0.00  0.00    +0.000 A 
BRANCH  29  37
ATOM     36  C   UNL     1      -7.341  12.837  17.626  0.00  0.00    +0.000 C 
ATOM     37  O   UNL     1      -7.551  12.219  18.899  0.00  0.00    +0.000 OA
ENDBRANCH  29  37
ENDBRANCH  28  32
ENDBRANCH  27  28
ENDBRANCH   1  27
TORSDOF 8
ENDMDL
MODEL 5
REMARK VINA RESULT:      -7.7      1.345      2.029
REMARK  Name = 
REMARK  10 active torsions:
REMARK  status: ('A' for Active; 'I' for Inactive)
REMARK    1  A    between atoms: C_1  and  O_2
REMARK    2  A    between atoms: O_2  and  C_3
REMARK    3  A    between atoms: C_6  and  C_7
REMARK    4  A    between atoms: C_7  and  C_8
REMARK    5  A    between atoms: C_8  and  C_9
REMARK    6  A    between atoms: C_18  and  C_19
REMARK    7  A    between atoms: C_20  and  P_22
REMARK    8  A    between atoms: P_22  and  O_24
REMARK    9  A    between atoms: P_22  and  O_25
REMARK   10  A    between atoms: C_31  and  C_32
REMARK                            x       y       z     vdW  Elec       q    Type
REMARK                         _______ _______ _______ _____ _____    ______ ____
ROOT
ATOM      1  C   UNL     1      -0.391  11.338  21.979  0.00  0.00    +0.000 A 
ATOM      2  C   UNL     1      -0.007  11.676  20.738  0.00  0.00    +0.000 A 
ATOM      3  N   UNL     1       0.474  10.631  20.068  0.00  0.00    +0.000 NA
ATOM      4  C   UNL     1       0.587   9.159  20.504  0.00  0.00    +0.000 A 
ATOM      5  C   UNL     1       1.417   8.664  19.682  0.00  0.00    +0.000 A 
ATOM      6  N   UNL     1       1.412   8.803  18.330  0.00  0.00    +0.000 N 
ATOM      7  N   UNL     1       2.280   7.984  20.322  0.00  0.00    +0.000 NA
ATOM      8  C   UNL     1       2.059   6.821  20.053  0.00  0.00    +0.000 A 
ATOM      9  C   UNL     1       3.134   6.514  19.157  0.00  0.00    +0.000 A 
ATOM     10  C   UNL     1       3.590   5.462  18.443  0.00  0.00    +0.000 A 
ATOM     11  C   UNL     1       2.744   4.486  18.848  0.00  0.00    +0.000 A 
ATOM     12  C   UNL     1       1.495   4.880  19.961  0.00  0.00    +0.000 A 
ATOM     13  C   UNL     1       0.959   6.482  20.672  0.00  0.00    +0.000 A 
ATOM     14  C   UNL     1       0.364   8.171  21.452  0.00  0.00    +0.000 A 
ATOM     15  C   UNL     1      -0.241   9.651  22.299  0.00  0.00    +0.000 A 
ATOM     16  H   UNL     1       1.478   9.779  18.066  0.00  0.00    +0.000 HD
ATOM     17  H   UNL     1       2.029   8.139  17.888  0.00  0.00    +0.000 HD
ENDROOT
BRANCH  10  18
ATOM     18  C   UNL     1       4.779   5.659  17.557  0.00  0.00    +0.000 C 
ATOM     19  C   UNL     1       5.107   4.815  16.536  0.00  0.00    +0.000 C 
ATOM     20  F   UNL     1       4.376   3.731  16.194  0.00  0.00    +0.000 F 
BRANCH  19  21
ATOM     21  P   UNL     1       6.564   5.010  15.445  0.00  0.00    +0.000 P 
ATOM     22  O   UNL     1       7.546   4.807  16.603  0.00  0.00    +0.000 OA
BRANCH  21  23
ATOM     23  O   UNL     1       6.213   3.612  14.668  0.00  0.00    +0.000 OA
ATOM     24  H   UNL     1       5.877   2.898  15.245  0.00  0.00    +0.000 HD
ENDBRANCH  21  23
BRANCH  21  25
ATOM     25  O   UNL     1       7.941   5.193  14.414  0.00  0.00    +0.000 OA
ATOM     26  H   UNL     1       7.644   5.561  13.564  0.00  0.00    +0.000 HD
ENDBRANCH  21  25
ENDBRANCH  19  21
ENDBRANCH  10  18
BRANCH   1  27
ATOM     27  C   UNL     1      -0.905  12.717  22.749  0.00  0.00    +0.000 C 
BRANCH  27  28
ATOM     28  C   UNL     1      -1.770  13.652  21.908  0.00  0.00    +0.000 C 
BRANCH  28  32
ATOM     29  C   UNL     1      -5.704  12.249  20.590  0.00  0.00    +0.000 A 
ATOM     30  C   UNL     1      -4.628  12.243  19.716  0.00  0.00    +0.000 A 
ATOM     31  C   UNL     1      -3.371  12.689  20.138  0.00  0.00    +0.000 A 
ATOM     32  C   UNL     1      -3.147  13.172  21.436  0.00  0.00    +0.000 A 
ATOM     33  C   UNL     1      -4.250  13.199  22.318  0.00  0.00    +0.000 A 
ATOM     34  C   UNL     1      -4.107  13.690  23.733  0.00  0.00    +0.000 C 
ATOM     35  C   UNL     1      -5.519  12.752  21.881  0.00  0.00    +0.000 A 
BRANCH  29  37
ATOM     36  C   UNL     1      -7.061  11.247  18.940  0.00  0.00    +0.000 C 
ATOM     37  O   UNL     1      -6.964  11.849  20.233  0.00  0.00    +0.000 OA
ENDBRANCH  29  37
ENDBRANCH  28  32
ENDBRANCH  27  28
ENDBRANCH   1  27
TORSDOF 8
ENDMDL
MODEL 6
REMARK VINA RESULT:      -7.6      4.529     11.862
REMARK  Name = 
REMARK  10 active torsions:
REMARK  status: ('A' for Active; 'I' for Inactive)
REMARK    1  A    between atoms: C_1  and  O_2
REMARK    2  A    between atoms: O_2  and  C_3
REMARK    3  A    between atoms: C_6  and  C_7
REMARK    4  A    between atoms: C_7  and  C_8
REMARK    5  A    between atoms: C_8  and  C_9
REMARK    6  A    between atoms: C_18  and  C_19
REMARK    7  A    between atoms: C_20  and  P_22
REMARK    8  A    between atoms: P_22  and  O_24
REMARK    9  A    between atoms: P_22  and  O_25
REMARK   10  A    between atoms: C_31  and  C_32
REMARK                            x       y       z     vdW  Elec       q    Type
REMARK                         _______ _______ _______ _____ _____    ______ ____
ROOT
ATOM      1  C   UNL     1       2.568   6.687  19.494  0.00  0.00    +0.000 A 
ATOM      2  C   UNL     1       1.908   6.681  20.663  0.00  0.00    +0.000 A 
ATOM      3  N   UNL     1       1.219   7.805  20.847  0.00  0.00    +0.000 NA
ATOM      4  C   UNL     1       1.057   9.016  19.911  0.00  0.00    +0.000 A 
ATOM      5  C   UNL     1       0.629   9.933  20.675  0.00  0.00    +0.000 A 
ATOM      6  N   UNL     1      -0.383   9.839  21.579  0.00  0.00    +0.000 N 
ATOM      7  N   UNL     1       1.294  10.996  20.464  0.00  0.00    +0.000 NA
ATOM      8  C   UNL     1       0.533  11.765  19.915  0.00  0.00    +0.000 A 
ATOM      9  C   UNL     1       0.236  12.691  20.968  0.00  0.00    +0.000 A 
ATOM     10  C   UNL     1      -0.503  13.805  21.161  0.00  0.00    +0.000 A 
ATOM     11  C   UNL     1      -0.968  14.029  19.909  0.00  0.00    +0.000 A 
ATOM     12  C   UNL     1      -0.553  12.924  18.660  0.00  0.00    +0.000 A 
ATOM     13  C   UNL     1       0.353  11.331  18.696  0.00  0.00    +0.000 A 
ATOM     14  C   UNL     1       1.318   9.633  18.696  0.00  0.00    +0.000 A 
ATOM     15  C   UNL     1       2.251   8.090  18.545  0.00  0.00    +0.000 A 
ATOM     16  H   UNL     1      -0.187   9.125  22.269  0.00  0.00    +0.000 HD
ATOM     17  H   UNL     1      -0.682  10.749  21.895  0.00  0.00    +0.000 HD
ENDROOT
BRANCH  10  18
ATOM     18  C   UNL     1      -0.544  14.410  22.528  0.00  0.00    +0.000 C 
ATOM     19  C   UNL     1      -1.545  15.230  22.960  0.00  0.00    +0.000 C 
ATOM     20  F   UNL     1      -2.623  15.557  22.214  0.00  0.00    +0.000 F 
BRANCH  19  21
ATOM     21  P   UNL     1      -1.620  16.006  24.617  0.00  0.00    +0.000 P 
ATOM     22  O   UNL     1      -2.402  14.829  25.210  0.00  0.00    +0.000 OA
BRANCH  21  23
ATOM     23  O   UNL     1      -0.001  15.843  24.806  0.00  0.00    +0.000 OA
ATOM     24  H   UNL     1       0.384  16.399  25.512  0.00  0.00    +0.000 HD
ENDBRANCH  21  23
BRANCH  21  25
ATOM     25  O   UNL     1      -1.691  16.738  26.183  0.00  0.00    +0.000 OA
ATOM     26  H   UNL     1      -1.101  16.248  26.781  0.00  0.00    +0.000 HD
ENDBRANCH  21  25
ENDBRANCH  19  21
ENDBRANCH  10  18
BRANCH   1  27
ATOM     27  C   UNL     1       3.446   5.281  19.395  0.00  0.00    +0.000 C 
BRANCH  27  28
ATOM     28  C   UNL     1       4.935   5.459  19.104  0.00  0.00    +0.000 C 
BRANCH  28  32
ATOM     29  C   UNL     1       6.443   4.609  15.081  0.00  0.00    +0.000 A 
ATOM     30  C   UNL     1       5.255   4.044  15.519  0.00  0.00    +0.000 A 
ATOM     31  C   UNL     1       4.772   4.318  16.804  0.00  0.00    +0.000 A 
ATOM     32  C   UNL     1       5.463   5.147  17.700  0.00  0.00    +0.000 A 
ATOM     33  C   UNL     1       6.685   5.702  17.261  0.00  0.00    +0.000 A 
ATOM     34  C   UNL     1       7.494   6.610  18.146  0.00  0.00    +0.000 C 
ATOM     35  C   UNL     1       7.169   5.414  15.963  0.00  0.00    +0.000 A 
BRANCH  29  37
ATOM     36  C   UNL     1       6.128   3.648  12.949  0.00  0.00    +0.000 C 
ATOM     37  O   UNL     1       6.981   4.362  13.848  0.00  0.00    +0.000 OA
ENDBRANCH  29  37
ENDBRANCH  28  32
ENDBRANCH  27  28
ENDBRANCH   1  27
TORSDOF 8
ENDMDL
MODEL 7
REMARK VINA RESULT:      -7.5      4.370     11.809
REMARK  Name = 
REMARK  10 active torsions:
REMARK  status: ('A' for Active; 'I' for Inactive)
REMARK    1  A    between atoms: C_1  and  O_2
REMARK    2  A    between atoms: O_2  and  C_3
REMARK    3  A    between atoms: C_6  and  C_7
REMARK    4  A    between atoms: C_7  and  C_8
REMARK    5  A    between atoms: C_8  and  C_9
REMARK    6  A    between atoms: C_18  and  C_19
REMARK    7  A    between atoms: C_20  and  P_22
REMARK    8  A    between atoms: P_22  and  O_24
REMARK    9  A    between atoms: P_22  and  O_25
REMARK   10  A    between atoms: C_31  and  C_32
REMARK                            x       y       z     vdW  Elec       q    Type
REMARK                         _______ _______ _______ _____ _____    ______ ____
ROOT
ATOM      1  C   UNL     1       2.824   5.859  19.648  0.00  0.00    +0.000 A 
ATOM      2  C   UNL     1       2.009   5.742  20.708  0.00  0.00    +0.000 A 
ATOM      3  N   UNL     1       1.271   6.836  20.887  0.00  0.00    +0.000 NA
ATOM      4  C   UNL     1       1.207   8.120  20.041  0.00  0.00    +0.000 A 
ATOM      5  C   UNL     1       0.652   8.961  20.811  0.00  0.00    +0.000 A 
ATOM      6  N   UNL     1      -0.473   8.774  21.551  0.00  0.00    +0.000 N 
ATOM      7  N   UNL     1       1.311  10.048  20.784  0.00  0.00    +0.000 NA
ATOM      8  C   UNL     1       0.613  10.851  20.200  0.00  0.00    +0.000 A 
ATOM      9  C   UNL     1       0.147  11.677  21.274  0.00  0.00    +0.000 A 
ATOM     10  C   UNL     1      -0.641  12.759  21.453  0.00  0.00    +0.000 A 
ATOM     11  C   UNL     1      -0.934  13.083  20.171  0.00  0.00    +0.000 A 
ATOM     12  C   UNL     1      -0.319  12.097  18.906  0.00  0.00    +0.000 A 
ATOM     13  C   UNL     1       0.616  10.521  18.936  0.00  0.00    +0.000 A 
ATOM     14  C   UNL     1       1.618   8.844  18.931  0.00  0.00    +0.000 A 
ATOM     15  C   UNL     1       2.604   7.334  18.785  0.00  0.00    +0.000 A 
ATOM     16  H   UNL     1      -0.356   8.006  22.201  0.00  0.00    +0.000 HD
ATOM     17  H   UNL     1      -0.838   9.649  21.897  0.00  0.00    +0.000 HD
ENDROOT
BRANCH  10  18
ATOM     18  C   UNL     1      -0.889  13.243  22.846  0.00  0.00    +0.000 C 
ATOM     19  C   UNL     1      -1.193  14.537  23.153  0.00  0.00    +0.000 C 
ATOM     20  F   UNL     1      -1.338  15.513  22.229  0.00  0.00    +0.000 F 
BRANCH  19  21
ATOM     21  P   UNL     1      -1.482  15.171  24.846  0.00  0.00    +0.000 P 
ATOM     22  O   UNL     1      -1.425  16.631  24.384  0.00  0.00    +0.000 OA
BRANCH  21  23
ATOM     23  O   UNL     1      -3.006  14.573  24.848  0.00  0.00    +0.000 OA
ATOM     24  H   UNL     1      -3.455  14.607  25.716  0.00  0.00    +0.000 HD
ENDBRANCH  21  23
BRANCH  21  25
ATOM     25  O   UNL     1      -1.755  15.771  26.445  0.00  0.00    +0.000 OA
ATOM     26  H   UNL     1      -2.708  15.933  26.557  0.00  0.00    +0.000 HD
ENDBRANCH  21  25
ENDBRANCH  19  21
ENDBRANCH  10  18
BRANCH   1  27
ATOM     27  C   UNL     1       3.746   4.480  19.557  0.00  0.00    +0.000 C 
BRANCH  27  28
ATOM     28  C   UNL     1       5.228   4.703  19.259  0.00  0.00    +0.000 C 
BRANCH  28  32
ATOM     29  C   UNL     1       6.555   4.918  15.091  0.00  0.00    +0.000 A 
ATOM     30  C   UNL     1       5.433   4.178  15.433  0.00  0.00    +0.000 A 
ATOM     31  C   UNL     1       5.007   4.112  16.764  0.00  0.00    +0.000 A 
ATOM     32  C   UNL     1       5.693   4.763  17.800  0.00  0.00    +0.000 A 
ATOM     33  C   UNL     1       6.849   5.497  17.453  0.00  0.00    +0.000 A 
ATOM     34  C   UNL     1       7.647   6.237  18.492  0.00  0.00    +0.000 C 
ATOM     35  C   UNL     1       7.275   5.552  16.105  0.00  0.00    +0.000 A 
BRANCH  29  37
ATOM     36  C   UNL     1       6.609   3.957  12.935  0.00  0.00    +0.000 C 
ATOM     37  O   UNL     1       7.036   5.003  13.813  0.00  0.00    +0.000 OA
ENDBRANCH  29  37
ENDBRANCH  28  32
ENDBRANCH  27  28
ENDBRANCH   1  27
TORSDOF 8
ENDMDL
MODEL 8
REMARK VINA RESULT:      -7.5      4.991     10.852
REMARK  Name = 
REMARK  10 active torsions:
REMARK  status: ('A' for Active; 'I' for Inactive)
REMARK    1  A    between atoms: C_1  and  O_2
REMARK    2  A    between atoms: O_2  and  C_3
REMARK    3  A    between atoms: C_6  and  C_7
REMARK    4  A    between atoms: C_7  and  C_8
REMARK    5  A    between atoms: C_8  and  C_9
REMARK    6  A    between atoms: C_18  and  C_19
REMARK    7  A    between atoms: C_20  and  P_22
REMARK    8  A    between atoms: P_22  and  O_24
REMARK    9  A    between atoms: P_22  and  O_25
REMARK   10  A    between atoms: C_31  and  C_32
REMARK                            x       y       z     vdW  Elec       q    Type
REMARK                         _______ _______ _______ _____ _____    ______ ____
ROOT
ATOM      1  C   UNL     1       2.991   7.860  17.935  0.00  0.00    +0.000 A 
ATOM      2  C   UNL     1       2.884   7.543  19.235  0.00  0.00    +0.000 A 
ATOM      3  N   UNL     1       1.907   8.224  19.831  0.00  0.00    +0.000 NA
ATOM      4  C   UNL     1       0.912   9.233  19.230  0.00  0.00    +0.000 A 
ATOM      5  C   UNL     1       0.454   9.845  20.242  0.00  0.00    +0.000 A 
ATOM      6  N   UNL     1      -0.005   9.290  21.395  0.00  0.00    +0.000 N 
ATOM      7  N   UNL     1       0.475  11.096  20.016  0.00  0.00    +0.000 NA
ATOM      8  C   UNL     1      -0.684  11.434  19.893  0.00  0.00    +0.000 A 
ATOM      9  C   UNL     1      -0.929  12.112  21.131  0.00  0.00    +0.000 A 
ATOM     10  C   UNL     1      -1.939  12.761  21.750  0.00  0.00    +0.000 A 
ATOM     11  C   UNL     1      -2.884  12.757  20.781  0.00  0.00    +0.000 A 
ATOM     12  C   UNL     1      -2.538  11.975  19.290  0.00  0.00    +0.000 A 
ATOM     13  C   UNL     1      -1.102  10.976  18.744  0.00  0.00    +0.000 A 
ATOM     14  C   UNL     1       0.414   9.910  18.126  0.00  0.00    +0.000 A 
ATOM     15  C   UNL     1       1.782   8.968  17.407  0.00  0.00    +0.000 A 
ATOM     16  H   UNL     1       0.716   8.739  21.845  0.00  0.00    +0.000 HD
ATOM     17  H   UNL     1      -0.519   9.958  21.948  0.00  0.00    +0.000 HD
ENDROOT
BRANCH  10  18
ATOM     18  C   UNL     1      -1.720  13.269  23.140  0.00  0.00    +0.000 C 
ATOM     19  C   UNL     1      -1.955  14.559  23.517  0.00  0.00    +0.000 C 
ATOM     20  F   UNL     1      -2.443  15.507  22.688  0.00  0.00    +0.000 F 
BRANCH  19  21
ATOM     21  P   UNL     1      -1.679  15.223  25.201  0.00  0.00    +0.000 P 
ATOM     22  O   UNL     1      -1.536  16.659  24.687  0.00  0.00    +0.000 OA
BRANCH  21  23
ATOM     23  O   UNL     1      -3.217  14.861  25.634  0.00  0.00    +0.000 OA
ATOM     24  H   UNL     1      -3.890  15.491  25.309  0.00  0.00    +0.000 HD
ENDBRANCH  21  23
BRANCH  21  25
ATOM     25  O   UNL     1      -1.419  15.851  26.792  0.00  0.00    +0.000 OA
ATOM     26  H   UNL     1      -1.466  16.822  26.753  0.00  0.00    +0.000 HD
ENDBRANCH  21  25
ENDBRANCH  19  21
ENDBRANCH  10  18
BRANCH   1  27
ATOM     27  C   UNL     1       4.275   7.015  17.306  0.00  0.00    +0.000 C 
BRANCH  27  28
ATOM     28  C   UNL     1       3.979   5.568  16.917  0.00  0.00    +0.000 C 
BRANCH  28  32
ATOM     29  C   UNL     1       1.834   2.978  19.723  0.00  0.00    +0.000 A 
ATOM     30  C   UNL     1       1.178   3.524  18.631  0.00  0.00    +0.000 A 
ATOM     31  C   UNL     1       1.864   4.349  17.733  0.00  0.00    +0.000 A 
ATOM     32  C   UNL     1       3.219   4.673  17.902  0.00  0.00    +0.000 A 
ATOM     33  C   UNL     1       3.879   4.135  19.029  0.00  0.00    +0.000 A 
ATOM     34  C   UNL     1       5.333   4.417  19.291  0.00  0.00    +0.000 C 
ATOM     35  C   UNL     1       3.175   3.307  19.935  0.00  0.00    +0.000 A 
BRANCH  29  37
ATOM     36  C   UNL     1       1.636   2.394  22.002  0.00  0.00    +0.000 C 
ATOM     37  O   UNL     1       1.215   2.184  20.651  0.00  0.00    +0.000 OA
ENDBRANCH  29  37
ENDBRANCH  28  32
ENDBRANCH  27  28
ENDBRANCH   1  27
TORSDOF 8
ENDMDL
MODEL 9
REMARK VINA RESULT:      -7.5      1.165      1.671
REMARK  Name = 
REMARK  10 active torsions:
REMARK  status: ('A' for Active; 'I' for Inactive)
REMARK    1  A    between atoms: C_1  and  O_2
REMARK    2  A    between atoms: O_2  and  C_3
REMARK    3  A    between atoms: C_6  and  C_7
REMARK    4  A    between atoms: C_7  and  C_8
REMARK    5  A    between atoms: C_8  and  C_9
REMARK    6  A    between atoms: C_18  and  C_19
REMARK    7  A    between atoms: C_20  and  P_22
REMARK    8  A    between atoms: P_22  and  O_24
REMARK    9  A    between atoms: P_22  and  O_25
REMARK   10  A    between atoms: C_31  and  C_32
REMARK                            x       y       z     vdW  Elec       q    Type
REMARK                         _______ _______ _______ _____ _____    ______ ____
ROOT
ATOM      1  C   UNL     1      -0.311  11.938  21.503  0.00  0.00    +0.000 A 
ATOM      2  C   UNL     1      -0.183  12.093  20.176  0.00  0.00    +0.000 A 
ATOM      3  N   UNL     1       0.260  10.982  19.590  0.00  0.00    +0.000 NA
ATOM      4  C   UNL     1       0.573   9.608  20.209  0.00  0.00    +0.000 A 
ATOM      5  C   UNL     1       1.284   9.035  19.329  0.00  0.00    +0.000 A 
ATOM      6  N   UNL     1       1.028   8.954  17.996  0.00  0.00    +0.000 N 
ATOM      7  N   UNL     1       2.301   8.517  19.889  0.00  0.00    +0.000 NA
ATOM      8  C   UNL     1       2.136   7.316  19.841  0.00  0.00    +0.000 A 
ATOM      9  C   UNL     1       3.057   6.929  18.814  0.00  0.00    +0.000 A 
ATOM     10  C   UNL     1       3.468   5.803  18.191  0.00  0.00    +0.000 A 
ATOM     11  C   UNL     1       2.794   4.859  18.888  0.00  0.00    +0.000 A 
ATOM     12  C   UNL     1       1.733   5.356  20.145  0.00  0.00    +0.000 A 
ATOM     13  C   UNL     1       1.196   7.019  20.699  0.00  0.00    +0.000 A 
ATOM     14  C   UNL     1       0.607   8.775  21.318  0.00  0.00    +0.000 A 
ATOM     15  C   UNL     1       0.037  10.336  22.035  0.00  0.00    +0.000 A 
ATOM     16  H   UNL     1       0.963   9.877  17.583  0.00  0.00    +0.000 HD
ATOM     17  H   UNL     1       1.612   8.264  17.549  0.00  0.00    +0.000 HD
ENDROOT
BRANCH  10  18
ATOM     18  C   UNL     1       4.460   5.922  17.078  0.00  0.00    +0.000 C 
ATOM     19  C   UNL     1       5.375   4.955  16.777  0.00  0.00    +0.000 C 
ATOM     20  F   UNL     1       5.460   3.774  17.427  0.00  0.00    +0.000 F 
BRANCH  19  21
ATOM     21  P   UNL     1       6.618   5.071  15.438  0.00  0.00    +0.000 P 
ATOM     22  O   UNL     1       7.749   4.583  16.350  0.00  0.00    +0.000 OA
BRANCH  21  23
ATOM     23  O   UNL     1       5.901   3.849  14.617  0.00  0.00    +0.000 OA
ATOM     24  H   UNL     1       6.472   3.070  14.466  0.00  0.00    +0.000 HD
ENDBRANCH  21  23
BRANCH  21  25
ATOM     25  O   UNL     1       7.793   5.181  14.173  0.00  0.00    +0.000 OA
ATOM     26  H   UNL     1       7.865   6.111  13.897  0.00  0.00    +0.000 HD
ENDBRANCH  21  25
ENDBRANCH  19  21
ENDBRANCH  10  18
BRANCH   1  27
ATOM     27  C   UNL     1      -0.796  13.392  22.144  0.00  0.00    +0.000 C 
BRANCH  27  28
ATOM     28  C   UNL     1      -1.726  13.297  23.351  0.00  0.00    +0.000 C 
BRANCH  28  32
ATOM     29  C   UNL     1      -6.044  13.779  22.801  0.00  0.00    +0.000 A 
ATOM     30  C   UNL     1      -5.331  12.891  22.010  0.00  0.00    +0.000 A 
ATOM     31  C   UNL     1      -3.952  12.735  22.188  0.00  0.00    +0.000 A 
ATOM     32  C   UNL     1      -3.235  13.470  23.144  0.00  0.00    +0.000 A 
ATOM     33  C   UNL     1      -3.959  14.391  23.933  0.00  0.00    +0.000 A 
ATOM     34  C   UNL     1      -3.280  15.217  24.991  0.00  0.00    +0.000 C 
ATOM     35  C   UNL     1      -5.352  14.546  23.741  0.00  0.00    +0.000 A 
BRANCH  29  37
ATOM     36  C   UNL     1      -7.767  14.692  21.471  0.00  0.00    +0.000 C 
ATOM     37  O   UNL     1      -7.389  13.996  22.662  0.00  0.00    +0.000 OA
ENDBRANCH  29  37
ENDBRANCH  28  32
ENDBRANCH  27  28
ENDBRANCH   1  27
TORSDOF 8
ENDMDL
