MODEL 1
REMARK VINA RESULT:      -7.5      0.000      0.000
REMARK  Name = 
REMARK  12 active torsions:
REMARK  status: ('A' for Active; 'I' for Inactive)
REMARK    1  A    between atoms: C_1  and  C_2
REMARK    2  A    between atoms: C_2  and  C_3
REMARK    3  A    between atoms: C_8  and  N_9
REMARK    4  A    between atoms: N_9  and  C_10
REMARK    5  A    between atoms: N_9  and  S_23
REMARK    6  A    between atoms: C_10  and  C_11
REMARK    7  A    between atoms: N_13  and  C_14
REMARK    8  A    between atoms: C_14  and  C_15
REMARK    9  A    between atoms: C_20  and  O_21
REMARK   10  A    between atoms: O_21  and  C_22
REMARK   11  A    between atoms: S_23  and  C_26
REMARK   12  A    between atoms: C_29  and  C_30
REMARK                            x       y       z     vdW  Elec       q    Type
REMARK                         _______ _______ _______ _____ _____    ______ ____
ROOT
ATOM      1  N   UNL     1       3.983   5.159  19.415  0.00  0.00    +0.000 N 
ENDROOT
BRANCH   1   7
ATOM      2  C   UNL     1       1.999   3.623  19.059  0.00  0.00    +0.000 A 
ATOM      3  C   UNL     1       1.034   2.780  19.661  0.00  0.00    +0.000 A 
ATOM      4  C   UNL     1       0.956   2.625  21.039  0.00  0.00    +0.000 A 
ATOM      5  C   UNL     1       1.797   3.371  21.850  0.00  0.00    +0.000 A 
ATOM      6  C   UNL     1       2.726   4.251  21.277  0.00  0.00    +0.000 A 
ATOM      7  C   UNL     1       2.876   4.358  19.882  0.00  0.00    +0.000 A 
BRANCH   2   9
ATOM      8  C   UNL     1       1.006   4.670  17.001  0.00  0.00    +0.000 C 
ATOM      9  C   UNL     1       1.996   3.644  17.550  0.00  0.00    +0.000 C 
ENDBRANCH   2   9
ENDBRANCH   1   7
BRANCH   1  10
ATOM     10  S   UNL     1       5.525   4.465  19.155  0.00  0.00    +0.000 S 
ATOM     11  O   UNL     1       6.510   5.286  19.828  0.00  0.00    +0.000 OA
ATOM     12  O   UNL     1       5.435   3.051  19.450  0.00  0.00    +0.000 OA
BRANCH  10  13
ATOM     13  C   UNL     1       5.875   4.567  17.394  0.00  0.00    +0.000 A 
ATOM     14  C   UNL     1       6.990   5.290  16.944  0.00  0.00    +0.000 A 
ATOM     15  C   UNL     1       7.331   5.293  15.583  0.00  0.00    +0.000 A 
ATOM     16  C   UNL     1       6.559   4.582  14.655  0.00  0.00    +0.000 A 
ATOM     17  C   UNL     1       6.896   4.605  13.187  0.00  0.00    +0.000 C 
ATOM     18  C   UNL     1       5.472   3.837  15.109  0.00  0.00    +0.000 A 
ATOM     19  C   UNL     1       5.138   3.807  16.479  0.00  0.00    +0.000 A 
ENDBRANCH  10  13
ENDBRANCH   1  10
BRANCH   1  20
ATOM     20  C   UNL     1       3.886   6.648  19.374  0.00  0.00    +0.000 C 
BRANCH  20  21
ATOM     21  C   UNL     1       3.059   7.366  18.314  0.00  0.00    +0.000 C 
ATOM     22  O   UNL     1       3.366   7.244  17.125  0.00  0.00    +0.000 OA
ATOM     23  N   UNL     1       2.067   8.233  18.706  0.00  0.00    +0.000 N 
ATOM     24  H   UNL     1       1.833   8.321  19.684  0.00  0.00    +0.000 HD
BRANCH  23  25
ATOM     25  C   UNL     1       1.353   9.071  17.751  0.00  0.00    +0.000 C 
BRANCH  25  26
ATOM     26  C   UNL     1       0.397  10.030  18.427  0.00  0.00    +0.000 A 
ATOM     27  C   UNL     1       0.900  10.694  19.574  0.00  0.00    +0.000 A 
ATOM     28  C   UNL     1       0.103  11.530  20.357  0.00  0.00    +0.000 A 
ATOM     29  C   UNL     1      -1.227  11.723  20.017  0.00  0.00    +0.000 A 
ATOM     30  C   UNL     1      -1.740  11.091  18.885  0.00  0.00    +0.000 A 
ATOM     31  C   UNL     1      -0.945  10.257  18.076  0.00  0.00    +0.000 A 
BRANCH  31  32
ATOM     32  O   UNL     1      -1.666   9.672  17.072  0.00  0.00    +0.000 OA
ATOM     33  C   UNL     1      -2.458  10.501  16.238  0.00  0.00    +0.000 C 
ENDBRANCH  31  32
ENDBRANCH  25  26
ENDBRANCH  23  25
ENDBRANCH  20  21
ENDBRANCH   1  20
TORSDOF 9
ENDMDL
MODEL 2
REMARK VINA RESULT:      -7.3      1.432      1.951
REMARK  Name = 
REMARK  12 active torsions:
REMARK  status: ('A' for Active; 'I' for Inactive)
REMARK    1  A    between atoms: C_1  and  C_2
REMARK    2  A    between atoms: C_2  and  C_3
REMARK    3  A    between atoms: C_8  and  N_9
REMARK    4  A    between atoms: N_9  and  C_10
REMARK    5  A    between atoms: N_9  and  S_23
REMARK    6  A    between atoms: C_10  and  C_11
REMARK    7  A    between atoms: N_13  and  C_14
REMARK    8  A    between atoms: C_14  and  C_15
REMARK    9  A    between atoms: C_20  and  O_21
REMARK   10  A    between atoms: O_21  and  C_22
REMARK   11  A    between atoms: S_23  and  C_26
REMARK   12  A    between atoms: C_29  and  C_30
REMARK                            x       y       z     vdW  Elec       q    Type
REMARK                         _______ _______ _______ _____ _____    ______ ____
ROOT
ATOM      1  N   UNL     1       3.999   5.141  19.295  0.00  0.00    +0.000 N 
ENDROOT
BRANCH   1   7
ATOM      2  C   UNL     1       1.976   3.643  18.999  0.00  0.00    +0.000 A 
ATOM      3  C   UNL     1       0.982   2.860  19.634  0.00  0.00    +0.000 A 
ATOM      4  C   UNL     1       0.886   2.781  21.016  0.00  0.00    +0.000 A 
ATOM      5  C   UNL     1       1.740   3.545  21.797  0.00  0.00    +0.000 A 
ATOM      6  C   UNL     1       2.698   4.369  21.188  0.00  0.00    +0.000 A 
ATOM      7  C   UNL     1       2.866   4.396  19.791  0.00  0.00    +0.000 A 
BRANCH   2   9
ATOM      8  C   UNL     1       0.916   4.482  16.880  0.00  0.00    +0.000 C 
ATOM      9  C   UNL     1       1.989   3.583  17.491  0.00  0.00    +0.000 C 
ENDBRANCH   2   9
ENDBRANCH   1   7
BRANCH   1  10
ATOM     10  S   UNL     1       5.530   4.399  19.118  0.00  0.00    +0.000 S 
ATOM     11  O   UNL     1       6.517   5.238  19.767  0.00  0.00    +0.000 OA
ATOM     12  O   UNL     1       5.401   3.008  19.493  0.00  0.00    +0.000 OA
BRANCH  10  13
ATOM     13  C   UNL     1       5.927   4.389  17.363  0.00  0.00    +0.000 A 
ATOM     14  C   UNL     1       4.919   4.142  16.420  0.00  0.00    +0.000 A 
ATOM     15  C   UNL     1       5.194   4.231  15.047  0.00  0.00    +0.000 A 
ATOM     16  C   UNL     1       6.481   4.561  14.601  0.00  0.00    +0.000 A 
ATOM     17  C   UNL     1       6.796   4.628  13.129  0.00  0.00    +0.000 C 
ATOM     18  C   UNL     1       7.472   4.840  15.540  0.00  0.00    +0.000 A 
ATOM     19  C   UNL     1       7.197   4.778  16.921  0.00  0.00    +0.000 A 
ENDBRANCH  10  13
ENDBRANCH   1  10
BRANCH   1  20
ATOM     20  C   UNL     1       3.935   6.625  19.150  0.00  0.00    +0.000 C 
BRANCH  20  21
ATOM     21  C   UNL     1       2.636   7.338  18.795  0.00  0.00    +0.000 C 
ATOM     22  O   UNL     1       2.288   7.403  17.613  0.00  0.00    +0.000 OA
ATOM     23  N   UNL     1       1.941   8.002  19.777  0.00  0.00    +0.000 N 
ATOM     24  H   UNL     1       2.244   7.940  20.738  0.00  0.00    +0.000 HD
BRANCH  23  25
ATOM     25  C   UNL     1       0.785   8.837  19.475  0.00  0.00    +0.000 C 
BRANCH  25  26
ATOM     26  C   UNL     1       0.295   9.604  20.683  0.00  0.00    +0.000 A 
ATOM     27  C   UNL     1       0.152   8.849  21.875  0.00  0.00    +0.000 A 
ATOM     28  C   UNL     1      -0.383   9.397  23.042  0.00  0.00    +0.000 A 
ATOM     29  C   UNL     1      -0.797  10.721  23.048  0.00  0.00    +0.000 A 
ATOM     30  C   UNL     1      -0.652  11.487  21.893  0.00  0.00    +0.000 A 
ATOM     31  C   UNL     1      -0.100  10.952  20.712  0.00  0.00    +0.000 A 
BRANCH  31  32
ATOM     32  O   UNL     1      -0.131  11.846  19.678  0.00  0.00    +0.000 OA
ATOM     33  C   UNL     1      -0.710  13.121  19.903  0.00  0.00    +0.000 C 
ENDBRANCH  31  32
ENDBRANCH  25  26
ENDBRANCH  23  25
ENDBRANCH  20  21
ENDBRANCH   1  20
TORSDOF 9
ENDMDL
MODEL 3
REMARK VINA RESULT:      -7.2      1.527      2.084
REMARK  Name = 
REMARK  12 active torsions:
REMARK  status: ('A' for Active; 'I' for Inactive)
REMARK    1  A    between atoms: C_1  and  C_2
REMARK    2  A    between atoms: C_2  and  C_3
REMARK    3  A    between atoms: C_8  and  N_9
REMARK    4  A    between atoms: N_9  and  C_10
REMARK    5  A    between atoms: N_9  and  S_23
REMARK    6  A    between atoms: C_10  and  C_11
REMARK    7  A    between atoms: N_13  and  C_14
REMARK    8  A    between atoms: C_14  and  C_15
REMARK    9  A    between atoms: C_20  and  O_21
REMARK   10  A    between atoms: O_21  and  C_22
REMARK   11  A    between atoms: S_23  and  C_26
REMARK   12  A    between atoms: C_29  and  C_30
REMARK                            x       y       z     vdW  Elec       q    Type
REMARK                         _______ _______ _______ _____ _____    ______ ____
ROOT
ATOM      1  N   UNL     1       3.661   5.105  18.219  0.00  0.00    +0.000 N 
ENDROOT
BRANCH   1   7
ATOM      2  C   UNL     1       2.362   3.126  19.126  0.00  0.00    +0.000 A 
ATOM      3  C   UNL     1       1.707   2.554  20.243  0.00  0.00    +0.000 A 
ATOM      4  C   UNL     1       1.589   3.233  21.448  0.00  0.00    +0.000 A 
ATOM      5  C   UNL     1       2.059   4.534  21.538  0.00  0.00    +0.000 A 
ATOM      6  C   UNL     1       2.664   5.140  20.427  0.00  0.00    +0.000 A 
ATOM      7  C   UNL     1       2.869   4.438  19.226  0.00  0.00    +0.000 A 
BRANCH   2   9
ATOM      8  C   UNL     1       3.639   1.277  18.001  0.00  0.00    +0.000 C 
ATOM      9  C   UNL     1       2.460   2.244  17.906  0.00  0.00    +0.000 C 
ENDBRANCH   2   9
ENDBRANCH   1   7
BRANCH   1  10
ATOM     10  S   UNL     1       5.366   4.975  18.211  0.00  0.00    +0.000 S 
ATOM     11  O   UNL     1       5.919   6.266  18.567  0.00  0.00    +0.000 OA
ATOM     12  O   UNL     1       5.729   3.796  18.968  0.00  0.00    +0.000 OA
BRANCH  10  13
ATOM     13  C   UNL     1       5.876   4.637  16.520  0.00  0.00    +0.000 A 
ATOM     14  C   UNL     1       5.059   3.859  15.686  0.00  0.00    +0.000 A 
ATOM     15  C   UNL     1       5.395   3.673  14.336  0.00  0.00    +0.000 A 
ATOM     16  C   UNL     1       6.555   4.254  13.807  0.00  0.00    +0.000 A 
ATOM     17  C   UNL     1       6.944   4.035  12.367  0.00  0.00    +0.000 C 
ATOM     18  C   UNL     1       7.347   5.055  14.628  0.00  0.00    +0.000 A 
ATOM     19  C   UNL     1       7.002   5.268  15.979  0.00  0.00    +0.000 A 
ENDBRANCH  10  13
ENDBRANCH   1  10
BRANCH   1  20
ATOM     20  C   UNL     1       3.045   6.113  17.306  0.00  0.00    +0.000 C 
BRANCH  20  21
ATOM     21  C   UNL     1       2.988   7.592  17.670  0.00  0.00    +0.000 C 
ATOM     22  O   UNL     1       4.042   8.212  17.839  0.00  0.00    +0.000 OA
ATOM     23  N   UNL     1       1.772   8.178  17.923  0.00  0.00    +0.000 N 
ATOM     24  H   UNL     1       0.921   7.653  17.782  0.00  0.00    +0.000 HD
BRANCH  23  25
ATOM     25  C   UNL     1       1.661   9.539  18.433  0.00  0.00    +0.000 C 
BRANCH  25  26
ATOM     26  C   UNL     1       1.002   9.595  19.793  0.00  0.00    +0.000 A 
ATOM     27  C   UNL     1       1.293   8.514  20.663  0.00  0.00    +0.000 A 
ATOM     28  C   UNL     1       0.681   8.379  21.910  0.00  0.00    +0.000 A 
ATOM     29  C   UNL     1      -0.248   9.322  22.322  0.00  0.00    +0.000 A 
ATOM     30  C   UNL     1      -0.540  10.402  21.489  0.00  0.00    +0.000 A 
ATOM     31  C   UNL     1       0.081  10.560  20.235  0.00  0.00    +0.000 A 
BRANCH  31  32
ATOM     32  O   UNL     1      -0.413  11.635  19.548  0.00  0.00    +0.000 OA
ATOM     33  C   UNL     1      -1.518  11.434  18.682  0.00  0.00    +0.000 C 
ENDBRANCH  31  32
ENDBRANCH  25  26
ENDBRANCH  23  25
ENDBRANCH  20  21
ENDBRANCH   1  20
TORSDOF 9
ENDMDL
MODEL 4
REMARK VINA RESULT:      -7.2      1.563      2.324
REMARK  Name = 
REMARK  12 active torsions:
REMARK  status: ('A' for Active; 'I' for Inactive)
REMARK    1  A    between atoms: C_1  and  C_2
REMARK    2  A    between atoms: C_2  and  C_3
REMARK    3  A    between atoms: C_8  and  N_9
REMARK    4  A    between atoms: N_9  and  C_10
REMARK    5  A    between atoms: N_9  and  S_23
REMARK    6  A    between atoms: C_10  and  C_11
REMARK    7  A    between atoms: N_13  and  C_14
REMARK    8  A    between atoms: C_14  and  C_15
REMARK    9  A    between atoms: C_20  and  O_21
REMARK   10  A    between atoms: O_21  and  C_22
REMARK   11  A    between atoms: S_23  and  C_26
REMARK   12  A    between atoms: C_29  and  C_30
REMARK                            x       y       z     vdW  Elec       q    Type
REMARK                         _______ _______ _______ _____ _____    ______ ____
ROOT
ATOM      1  N   UNL     1       3.174   5.759  18.498  0.00  0.00    +0.000 N 
ENDROOT
BRANCH   1   7
ATOM      2  C   UNL     1       2.394   3.383  18.913  0.00  0.00    +0.000 A 
ATOM      3  C   UNL     1       1.976   2.427  19.869  0.00  0.00    +0.000 A 
ATOM      4  C   UNL     1       1.834   2.749  21.212  0.00  0.00    +0.000 A 
ATOM      5  C   UNL     1       2.036   4.060  21.616  0.00  0.00    +0.000 A 
ATOM      6  C   UNL     1       2.400   5.035  20.677  0.00  0.00    +0.000 A 
ATOM      7  C   UNL     1       2.631   4.709  19.328  0.00  0.00    +0.000 A 
BRANCH   2   9
ATOM      8  C   UNL     1       3.436   1.620  17.456  0.00  0.00    +0.000 C 
ATOM      9  C   UNL     1       2.557   2.868  17.504  0.00  0.00    +0.000 C 
ENDBRANCH   2   9
ENDBRANCH   1   7
BRANCH   1  10
ATOM     10  S   UNL     1       4.864   5.980  18.351  0.00  0.00    +0.000 S 
ATOM     11  O   UNL     1       5.132   7.404  18.319  0.00  0.00    +0.000 OA
ATOM     12  O   UNL     1       5.513   5.142  19.336  0.00  0.00    +0.000 OA
BRANCH  10  13
ATOM     13  C   UNL     1       5.360   5.320  16.754  0.00  0.00    +0.000 A 
ATOM     14  C   UNL     1       5.828   4.001  16.657  0.00  0.00    +0.000 A 
ATOM     15  C   UNL     1       6.122   3.442  15.404  0.00  0.00    +0.000 A 
ATOM     16  C   UNL     1       5.959   4.196  14.235  0.00  0.00    +0.000 A 
ATOM     17  C   UNL     1       6.302   3.617  12.886  0.00  0.00    +0.000 C 
ATOM     18  C   UNL     1       5.460   5.494  14.330  0.00  0.00    +0.000 A 
ATOM     19  C   UNL     1       5.138   6.054  15.583  0.00  0.00    +0.000 A 
ENDBRANCH  10  13
ENDBRANCH   1  10
BRANCH   1  20
ATOM     20  C   UNL     1       2.291   6.824  17.937  0.00  0.00    +0.000 C 
BRANCH  20  21
ATOM     21  C   UNL     1       2.024   8.121  18.692  0.00  0.00    +0.000 C 
ATOM     22  O   UNL     1       2.024   8.111  19.926  0.00  0.00    +0.000 OA
ATOM     23  N   UNL     1       1.665   9.247  17.991  0.00  0.00    +0.000 N 
ATOM     24  H   UNL     1       1.667   9.234  16.981  0.00  0.00    +0.000 HD
BRANCH  23  25
ATOM     25  C   UNL     1       1.239  10.470  18.660  0.00  0.00    +0.000 C 
BRANCH  25  26
ATOM     26  C   UNL     1      -0.258  10.676  18.587  0.00  0.00    +0.000 A 
ATOM     27  C   UNL     1      -0.941   9.896  17.620  0.00  0.00    +0.000 A 
ATOM     28  C   UNL     1      -2.305  10.051  17.371  0.00  0.00    +0.000 A 
ATOM     29  C   UNL     1      -3.028  10.996  18.082  0.00  0.00    +0.000 A 
ATOM     30  C   UNL     1      -2.381  11.764  19.049  0.00  0.00    +0.000 A 
ATOM     31  C   UNL     1      -1.009  11.610  19.322  0.00  0.00    +0.000 A 
BRANCH  31  32
ATOM     32  O   UNL     1      -0.561  12.519  20.241  0.00  0.00    +0.000 OA
ATOM     33  C   UNL     1      -0.522  12.138  21.606  0.00  0.00    +0.000 C 
ENDBRANCH  31  32
ENDBRANCH  25  26
ENDBRANCH  23  25
ENDBRANCH  20  21
ENDBRANCH   1  20
TORSDOF 9
ENDMDL
MODEL 5
REMARK VINA RESULT:      -7.2      1.138      1.901
REMARK  Name = 
REMARK  12 active torsions:
REMARK  status: ('A' for Active; 'I' for Inactive)
REMARK    1  A    between atoms: C_1  and  C_2
REMARK    2  A    between atoms: C_2  and  C_3
REMARK    3  A    between atoms: C_8  and  N_9
REMARK    4  A    between atoms: N_9  and  C_10
REMARK    5  A    between atoms: N_9  and  S_23
REMARK    6  A    between atoms: C_10  and  C_11
REMARK    7  A    between atoms: N_13  and  C_14
REMARK    8  A    between atoms: C_14  and  C_15
REMARK    9  A    between atoms: C_20  and  O_21
REMARK   10  A    between atoms: O_21  and  C_22
REMARK   11  A    between atoms: S_23  and  C_26
REMARK   12  A    between atoms: C_29  and  C_30
REMARK                            x       y       z     vdW  Elec       q    Type
REMARK                         _______ _______ _______ _____ _____    ______ ____
ROOT
ATOM      1  N   UNL     1       3.758   5.452  19.412  0.00  0.00    +0.000 N 
ENDROOT
BRANCH   1   7
ATOM      2  C   UNL     1       1.824   3.870  18.990  0.00  0.00    +0.000 A 
ATOM      3  C   UNL     1       0.919   2.935  19.549  0.00  0.00    +0.000 A 
ATOM      4  C   UNL     1       0.903   2.654  20.908  0.00  0.00    +0.000 A 
ATOM      5  C   UNL     1       1.747   3.359  21.752  0.00  0.00    +0.000 A 
ATOM      6  C   UNL     1       2.615   4.327  21.228  0.00  0.00    +0.000 A 
ATOM      7  C   UNL     1       2.704   4.565  19.844  0.00  0.00    +0.000 A 
BRANCH   2   9
ATOM      8  C   UNL     1       2.488   2.892  16.772  0.00  0.00    +0.000 C 
ATOM      9  C   UNL     1       1.758   4.025  17.491  0.00  0.00    +0.000 C 
ENDBRANCH   2   9
ENDBRANCH   1   7
BRANCH   1  10
ATOM     10  S   UNL     1       5.342   4.869  19.135  0.00  0.00    +0.000 S 
ATOM     11  O   UNL     1       6.280   5.861  19.618  0.00  0.00    +0.000 OA
ATOM     12  O   UNL     1       5.410   3.508  19.622  0.00  0.00    +0.000 OA
BRANCH  10  13
ATOM     13  C   UNL     1       5.575   4.755  17.354  0.00  0.00    +0.000 A 
ATOM     14  C   UNL     1       5.807   3.507  16.758  0.00  0.00    +0.000 A 
ATOM     15  C   UNL     1       5.889   3.392  15.362  0.00  0.00    +0.000 A 
ATOM     16  C   UNL     1       5.747   4.523  14.547  0.00  0.00    +0.000 A 
ATOM     17  C   UNL     1       5.865   4.416  13.048  0.00  0.00    +0.000 C 
ATOM     18  C   UNL     1       5.481   5.756  15.140  0.00  0.00    +0.000 A 
ATOM     19  C   UNL     1       5.372   5.875  16.540  0.00  0.00    +0.000 A 
ENDBRANCH  10  13
ENDBRANCH   1  10
BRANCH   1  20
ATOM     20  C   UNL     1       3.565   6.932  19.423  0.00  0.00    +0.000 C 
BRANCH  20  21
ATOM     21  C   UNL     1       2.692   7.633  18.389  0.00  0.00    +0.000 C 
ATOM     22  O   UNL     1       2.853   7.379  17.192  0.00  0.00    +0.000 OA
ATOM     23  N   UNL     1       1.828   8.622  18.794  0.00  0.00    +0.000 N 
ATOM     24  H   UNL     1       1.713   8.817  19.778  0.00  0.00    +0.000 HD
BRANCH  23  25
ATOM     25  C   UNL     1       1.088   9.440  17.841  0.00  0.00    +0.000 C 
BRANCH  25  26
ATOM     26  C   UNL     1      -0.053  10.191  18.490  0.00  0.00    +0.000 A 
ATOM     27  C   UNL     1      -1.291  10.147  17.800  0.00  0.00    +0.000 A 
ATOM     28  C   UNL     1      -2.404  10.873  18.225  0.00  0.00    +0.000 A 
ATOM     29  C   UNL     1      -2.309  11.673  19.353  0.00  0.00    +0.000 A 
ATOM     30  C   UNL     1      -1.107  11.721  20.056  0.00  0.00    +0.000 A 
ATOM     31  C   UNL     1       0.021  10.983  19.649  0.00  0.00    +0.000 A 
BRANCH  31  32
ATOM     32  O   UNL     1       1.116  11.243  20.426  0.00  0.00    +0.000 OA
ATOM     33  C   UNL     1       1.694  12.537  20.369  0.00  0.00    +0.000 C 
ENDBRANCH  31  32
ENDBRANCH  25  26
ENDBRANCH  23  25
ENDBRANCH  20  21
ENDBRANCH   1  20
TORSDOF 9
ENDMDL
MODEL 6
REMARK VINA RESULT:      -7.2      5.293      9.368
REMARK  Name = 
REMARK  12 active torsions:
REMARK  status: ('A' for Active; 'I' for Inactive)
REMARK    1  A    between atoms: C_1  and  C_2
REMARK    2  A    between atoms: C_2  and  C_3
REMARK    3  A    between atoms: C_8  and  N_9
REMARK    4  A    between atoms: N_9  and  C_10
REMARK    5  A    between atoms: N_9  and  S_23
REMARK    6  A    between atoms: C_10  and  C_11
REMARK    7  A    between atoms: N_13  and  C_14
REMARK    8  A    between atoms: C_14  and  C_15
REMARK    9  A    between atoms: C_20  and  O_21
REMARK   10  A    between atoms: O_21  and  C_22
REMARK   11  A    between atoms: S_23  and  C_26
REMARK   12  A    between atoms: C_29  and  C_30
REMARK                            x       y       z     vdW  Elec       q    Type
REMARK                         _______ _______ _______ _____ _____    ______ ____
ROOT
ATOM      1  N   UNL     1      -0.098  11.822  19.552  0.00  0.00    +0.000 N 
ENDROOT
BRANCH   1   7
ATOM      2  C   UNL     1       1.085   9.581  19.506  0.00  0.00    +0.000 A 
ATOM      3  C   UNL     1       1.362   8.376  20.196  0.00  0.00    +0.000 A 
ATOM      4  C   UNL     1       0.807   8.102  21.439  0.00  0.00    +0.000 A 
ATOM      5  C   UNL     1      -0.099   8.997  21.986  0.00  0.00    +0.000 A 
ATOM      6  C   UNL     1      -0.428  10.172  21.295  0.00  0.00    +0.000 A 
ATOM      7  C   UNL     1       0.188  10.507  20.075  0.00  0.00    +0.000 A 
BRANCH   2   9
ATOM      8  C   UNL     1       2.475   8.466  17.733  0.00  0.00    +0.000 C 
ATOM      9  C   UNL     1       1.807   9.760  18.193  0.00  0.00    +0.000 C 
ENDBRANCH   2   9
ENDBRANCH   1   7
BRANCH   1  10
ATOM     10  S   UNL     1       0.393  13.230  20.391  0.00  0.00    +0.000 S 
ATOM     11  O   UNL     1       1.479  12.870  21.281  0.00  0.00    +0.000 OA
ATOM     12  O   UNL     1       0.570  14.290  19.422  0.00  0.00    +0.000 OA
BRANCH  10  13
ATOM     13  C   UNL     1      -0.981  13.750  21.428  0.00  0.00    +0.000 A 
ATOM     14  C   UNL     1      -2.057  14.451  20.863  0.00  0.00    +0.000 A 
ATOM     15  C   UNL     1      -3.180  14.772  21.640  0.00  0.00    +0.000 A 
ATOM     16  C   UNL     1      -3.238  14.405  22.991  0.00  0.00    +0.000 A 
ATOM     17  C   UNL     1      -4.426  14.773  23.843  0.00  0.00    +0.000 C 
ATOM     18  C   UNL     1      -2.184  13.678  23.541  0.00  0.00    +0.000 A 
ATOM     19  C   UNL     1      -1.063  13.328  22.760  0.00  0.00    +0.000 A 
ENDBRANCH  10  13
ENDBRANCH   1  10
BRANCH   1  20
ATOM     20  C   UNL     1      -1.029  12.001  18.399  0.00  0.00    +0.000 C 
BRANCH  20  21
ATOM     21  C   UNL     1      -2.352  11.250  18.315  0.00  0.00    +0.000 C 
ATOM     22  O   UNL     1      -2.343  10.036  18.095  0.00  0.00    +0.000 OA
ATOM     23  N   UNL     1      -3.531  11.954  18.363  0.00  0.00    +0.000 N 
ATOM     24  H   UNL     1      -3.517  12.948  18.541  0.00  0.00    +0.000 HD
BRANCH  23  25
ATOM     25  C   UNL     1      -4.821  11.318  18.126  0.00  0.00    +0.000 C 
BRANCH  25  26
ATOM     26  C   UNL     1      -5.820  11.613  19.222  0.00  0.00    +0.000 A 
ATOM     27  C   UNL     1      -5.703  12.885  19.837  0.00  0.00    +0.000 A 
ATOM     28  C   UNL     1      -6.490  13.258  20.928  0.00  0.00    +0.000 A 
ATOM     29  C   UNL     1      -7.417  12.365  21.441  0.00  0.00    +0.000 A 
ATOM     30  C   UNL     1      -7.560  11.113  20.844  0.00  0.00    +0.000 A 
ATOM     31  C   UNL     1      -6.785  10.727  19.733  0.00  0.00    +0.000 A 
BRANCH  31  32
ATOM     32  O   UNL     1      -7.024   9.433  19.362  0.00  0.00    +0.000 OA
ATOM     33  C   UNL     1      -7.497   8.524  20.343  0.00  0.00    +0.000 C 
ENDBRANCH  31  32
ENDBRANCH  25  26
ENDBRANCH  23  25
ENDBRANCH  20  21
ENDBRANCH   1  20
TORSDOF 9
ENDMDL
MODEL 7
REMARK VINA RESULT:      -7.2      1.953      7.387
REMARK  Name = 
REMARK  12 active torsions:
REMARK  status: ('A' for Active; 'I' for Inactive)
REMARK    1  A    between atoms: C_1  and  C_2
REMARK    2  A    between atoms: C_2  and  C_3
REMARK    3  A    between atoms: C_8  and  N_9
REMARK    4  A    between atoms: N_9  and  C_10
REMARK    5  A    between atoms: N_9  and  S_23
REMARK    6  A    between atoms: C_10  and  C_11
REMARK    7  A    between atoms: N_13  and  C_14
REMARK    8  A    between atoms: C_14  and  C_15
REMARK    9  A    between atoms: C_20  and  O_21
REMARK   10  A    between atoms: O_21  and  C_22
REMARK   11  A    between atoms: S_23  and  C_26
REMARK   12  A    between atoms: C_29  and  C_30
REMARK                            x       y       z     vdW  Elec       q    Type
REMARK                         _______ _______ _______ _____ _____    ______ ____
ROOT
ATOM      1  N   UNL     1       3.665   5.606  19.220  0.00  0.00    +0.000 N 
ENDROOT
BRANCH   1   7
ATOM      2  C   UNL     1       3.142   3.128  19.305  0.00  0.00    +0.000 A 
ATOM      3  C   UNL     1       2.596   2.060  20.059  0.00  0.00    +0.000 A 
ATOM      4  C   UNL     1       2.013   2.266  21.302  0.00  0.00    +0.000 A 
ATOM      5  C   UNL     1       1.897   3.559  21.787  0.00  0.00    +0.000 A 
ATOM      6  C   UNL     1       2.384   4.637  21.034  0.00  0.00    +0.000 A 
ATOM      7  C   UNL     1       3.053   4.440  19.812  0.00  0.00    +0.000 A 
BRANCH   2   9
ATOM      8  C   UNL     1       2.783   2.713  16.852  0.00  0.00    +0.000 C 
ATOM      9  C   UNL     1       3.791   2.739  17.999  0.00  0.00    +0.000 C 
ENDBRANCH   2   9
ENDBRANCH   1   7
BRANCH   1  10
ATOM     10  S   UNL     1       2.812   6.575  18.098  0.00  0.00    +0.000 S 
ATOM     11  O   UNL     1       3.771   7.151  17.178  0.00  0.00    +0.000 OA
ATOM     12  O   UNL     1       1.697   5.802  17.595  0.00  0.00    +0.000 OA
BRANCH  10  13
ATOM     13  C   UNL     1       2.078   7.941  19.010  0.00  0.00    +0.000 A 
ATOM     14  C   UNL     1       1.657   9.091  18.327  0.00  0.00    +0.000 A 
ATOM     15  C   UNL     1       0.992  10.120  19.012  0.00  0.00    +0.000 A 
ATOM     16  C   UNL     1       0.748  10.015  20.387  0.00  0.00    +0.000 A 
ATOM     17  C   UNL     1       0.064  11.127  21.139  0.00  0.00    +0.000 C 
ATOM     18  C   UNL     1       1.136   8.856  21.057  0.00  0.00    +0.000 A 
ATOM     19  C   UNL     1       1.782   7.807  20.371  0.00  0.00    +0.000 A 
ENDBRANCH  10  13
ENDBRANCH   1  10
BRANCH   1  20
ATOM     20  C   UNL     1       5.126   5.867  19.381  0.00  0.00    +0.000 C 
BRANCH  20  21
ATOM     21  C   UNL     1       6.153   5.289  18.414  0.00  0.00    +0.000 C 
ATOM     22  O   UNL     1       6.930   4.417  18.812  0.00  0.00    +0.000 OA
ATOM     23  N   UNL     1       6.279   5.833  17.159  0.00  0.00    +0.000 N 
ATOM     24  H   UNL     1       5.635   6.549  16.853  0.00  0.00    +0.000 HD
BRANCH  23  25
ATOM     25  C   UNL     1       7.346   5.438  16.248  0.00  0.00    +0.000 C 
BRANCH  25  26
ATOM     26  C   UNL     1       6.817   4.878  14.947  0.00  0.00    +0.000 A 
ATOM     27  C   UNL     1       5.634   4.103  15.046  0.00  0.00    +0.000 A 
ATOM     28  C   UNL     1       5.086   3.441  13.946  0.00  0.00    +0.000 A 
ATOM     29  C   UNL     1       5.710   3.531  12.712  0.00  0.00    +0.000 A 
ATOM     30  C   UNL     1       6.867   4.299  12.587  0.00  0.00    +0.000 A 
ATOM     31  C   UNL     1       7.424   4.985  13.684  0.00  0.00    +0.000 A 
BRANCH  31  32
ATOM     32  O   UNL     1       8.601   5.603  13.362  0.00  0.00    +0.000 OA
ATOM     33  C   UNL     1       8.664   6.351  12.158  0.00  0.00    +0.000 C 
ENDBRANCH  31  32
ENDBRANCH  25  26
ENDBRANCH  23  25
ENDBRANCH  20  21
ENDBRANCH   1  20
TORSDOF 9
ENDMDL
MODEL 8
REMARK VINA RESULT:      -7.1      1.970      7.527
REMARK  Name = 
REMARK  12 active torsions:
REMARK  status: ('A' for Active; 'I' for Inactive)
REMARK    1  A    between atoms: C_1  and  C_2
REMARK    2  A    between atoms: C_2  and  C_3
REMARK    3  A    between atoms: C_8  and  N_9
REMARK    4  A    between atoms: N_9  and  C_10
REMARK    5  A    between atoms: N_9  and  S_23
REMARK    6  A    between atoms: C_10  and  C_11
REMARK    7  A    between atoms: N_13  and  C_14
REMARK    8  A    between atoms: C_14  and  C_15
REMARK    9  A    between atoms: C_20  and  O_21
REMARK   10  A    between atoms: O_21  and  C_22
REMARK   11  A    between atoms: S_23  and  C_26
REMARK   12  A    between atoms: C_29  and  C_30
REMARK                            x       y       z     vdW  Elec       q    Type
REMARK                         _______ _______ _______ _____ _____    ______ ____
ROOT
ATOM      1  N   UNL     1       3.371   5.781  19.239  0.00  0.00    +0.000 N 
ENDROOT
BRANCH   1   7
ATOM      2  C   UNL     1       2.523   3.404  19.011  0.00  0.00    +0.000 A 
ATOM      3  C   UNL     1       1.932   2.292  19.660  0.00  0.00    +0.000 A 
ATOM      4  C   UNL     1       1.543   2.345  20.991  0.00  0.00    +0.000 A 
ATOM      5  C   UNL     1       1.669   3.539  21.685  0.00  0.00    +0.000 A 
ATOM      6  C   UNL     1       2.203   4.667  21.047  0.00  0.00    +0.000 A 
ATOM      7  C   UNL     1       2.681   4.609  19.724  0.00  0.00    +0.000 A 
BRANCH   2   9
ATOM      8  C   UNL     1       3.696   1.855  17.416  0.00  0.00    +0.000 C 
ATOM      9  C   UNL     1       2.944   3.175  17.580  0.00  0.00    +0.000 C 
ENDBRANCH   2   9
ENDBRANCH   1   7
BRANCH   1  10
ATOM     10  S   UNL     1       2.579   6.918  18.236  0.00  0.00    +0.000 S 
ATOM     11  O   UNL     1       3.588   7.649  17.497  0.00  0.00    +0.000 OA
ATOM     12  O   UNL     1       1.518   6.231  17.532  0.00  0.00    +0.000 OA
BRANCH  10  13
ATOM     13  C   UNL     1       1.755   8.105  19.308  0.00  0.00    +0.000 A 
ATOM     14  C   UNL     1       1.681   7.866  20.688  0.00  0.00    +0.000 A 
ATOM     15  C   UNL     1       1.132   8.831  21.546  0.00  0.00    +0.000 A 
ATOM     16  C   UNL     1       0.643  10.040  21.035  0.00  0.00    +0.000 A 
ATOM     17  C   UNL     1       0.022  11.070  21.943  0.00  0.00    +0.000 C 
ATOM     18  C   UNL     1       0.750  10.290  19.668  0.00  0.00    +0.000 A 
ATOM     19  C   UNL     1       1.324   9.336  18.803  0.00  0.00    +0.000 A 
ENDBRANCH  10  13
ENDBRANCH   1  10
BRANCH   1  20
ATOM     20  C   UNL     1       4.850   5.918  19.396  0.00  0.00    +0.000 C 
BRANCH  20  21
ATOM     21  C   UNL     1       5.823   5.126  18.531  0.00  0.00    +0.000 C 
ATOM     22  O   UNL     1       6.320   4.089  18.978  0.00  0.00    +0.000 OA
ATOM     23  N   UNL     1       6.223   5.640  17.321  0.00  0.00    +0.000 N 
ATOM     24  H   UNL     1       5.806   6.492  16.974  0.00  0.00    +0.000 HD
BRANCH  23  25
ATOM     25  C   UNL     1       7.270   5.015  16.524  0.00  0.00    +0.000 C 
BRANCH  25  26
ATOM     26  C   UNL     1       6.801   4.660  15.131  0.00  0.00    +0.000 A 
ATOM     27  C   UNL     1       5.693   3.778  15.060  0.00  0.00    +0.000 A 
ATOM     28  C   UNL     1       5.213   3.284  13.846  0.00  0.00    +0.000 A 
ATOM     29  C   UNL     1       5.833   3.655  12.663  0.00  0.00    +0.000 A 
ATOM     30  C   UNL     1       6.915   4.533  12.707  0.00  0.00    +0.000 A 
ATOM     31  C   UNL     1       7.402   5.052  13.922  0.00  0.00    +0.000 A 
BRANCH  31  32
ATOM     32  O   UNL     1       8.518   5.821  13.744  0.00  0.00    +0.000 OA
ATOM     33  C   UNL     1       8.890   6.179  12.423  0.00  0.00    +0.000 C 
ENDBRANCH  31  32
ENDBRANCH  25  26
ENDBRANCH  23  25
ENDBRANCH  20  21
ENDBRANCH   1  20
TORSDOF 9
ENDMDL
MODEL 9
REMARK VINA RESULT:      -7.1      1.507      1.796
REMARK  Name = 
REMARK  12 active torsions:
REMARK  status: ('A' for Active; 'I' for Inactive)
REMARK    1  A    between atoms: C_1  and  C_2
REMARK    2  A    between atoms: C_2  and  C_3
REMARK    3  A    between atoms: C_8  and  N_9
REMARK    4  A    between atoms: N_9  and  C_10
REMARK    5  A    between atoms: N_9  and  S_23
REMARK    6  A    between atoms: C_10  and  C_11
REMARK    7  A    between atoms: N_13  and  C_14
REMARK    8  A    between atoms: C_14  and  C_15
REMARK    9  A    between atoms: C_20  and  O_21
REMARK   10  A    between atoms: O_21  and  C_22
REMARK   11  A    between atoms: S_23  and  C_26
REMARK   12  A    between atoms: C_29  and  C_30
REMARK                            x       y       z     vdW  Elec       q    Type
REMARK                         _______ _______ _______ _____ _____    ______ ____
ROOT
ATOM      1  N   UNL     1       3.956   5.362  19.227  0.00  0.00    +0.000 N 
ENDROOT
BRANCH   1   7
ATOM      2  C   UNL     1       1.952   3.830  18.987  0.00  0.00    +0.000 A 
ATOM      3  C   UNL     1       1.011   3.003  19.647  0.00  0.00    +0.000 A 
ATOM      4  C   UNL     1       0.994   2.872  21.029  0.00  0.00    +0.000 A 
ATOM      5  C   UNL     1       1.874   3.628  21.789  0.00  0.00    +0.000 A 
ATOM      6  C   UNL     1       2.780   4.493  21.159  0.00  0.00    +0.000 A 
ATOM      7  C   UNL     1       2.868   4.575  19.757  0.00  0.00    +0.000 A 
BRANCH   2   9
ATOM      8  C   UNL     1       2.525   2.572  16.888  0.00  0.00    +0.000 C 
ATOM      9  C   UNL     1       1.880   3.824  17.480  0.00  0.00    +0.000 C 
ENDBRANCH   2   9
ENDBRANCH   1   7
BRANCH   1  10
ATOM     10  S   UNL     1       5.521   4.694  19.048  0.00  0.00    +0.000 S 
ATOM     11  O   UNL     1       6.461   5.552  19.740  0.00  0.00    +0.000 OA
ATOM     12  O   UNL     1       5.447   3.286  19.374  0.00  0.00    +0.000 OA
BRANCH  10  13
ATOM     13  C   UNL     1       5.942   4.762  17.300  0.00  0.00    +0.000 A 
ATOM     14  C   UNL     1       6.967   5.612  16.861  0.00  0.00    +0.000 A 
ATOM     15  C   UNL     1       7.373   5.600  15.517  0.00  0.00    +0.000 A 
ATOM     16  C   UNL     1       6.754   4.743  14.597  0.00  0.00    +0.000 A 
ATOM     17  C   UNL     1       7.160   4.744  13.145  0.00  0.00    +0.000 C 
ATOM     18  C   UNL     1       5.761   3.873  15.043  0.00  0.00    +0.000 A 
ATOM     19  C   UNL     1       5.365   3.862  16.397  0.00  0.00    +0.000 A 
ENDBRANCH  10  13
ENDBRANCH   1  10
BRANCH   1  20
ATOM     20  C   UNL     1       3.815   6.837  19.044  0.00  0.00    +0.000 C 
BRANCH  20  21
ATOM     21  C   UNL     1       2.472   7.477  18.718  0.00  0.00    +0.000 C 
ATOM     22  O   UNL     1       2.035   7.409  17.565  0.00  0.00    +0.000 OA
ATOM     23  N   UNL     1       1.829   8.223  19.677  0.00  0.00    +0.000 N 
ATOM     24  H   UNL     1       2.205   8.270  20.613  0.00  0.00    +0.000 HD
BRANCH  23  25
ATOM     25  C   UNL     1       0.628   8.994  19.380  0.00  0.00    +0.000 C 
BRANCH  25  26
ATOM     26  C   UNL     1       0.613  10.332  20.085  0.00  0.00    +0.000 A 
ATOM     27  C   UNL     1      -0.163  10.396  21.269  0.00  0.00    +0.000 A 
ATOM     28  C   UNL     1      -0.352  11.588  21.970  0.00  0.00    +0.000 A 
ATOM     29  C   UNL     1       0.228  12.756  21.501  0.00  0.00    +0.000 A 
ATOM     30  C   UNL     1       1.007  12.715  20.346  0.00  0.00    +0.000 A 
ATOM     31  C   UNL     1       1.220  11.518  19.636  0.00  0.00    +0.000 A 
BRANCH  31  32
ATOM     32  O   UNL     1       1.939  11.719  18.491  0.00  0.00    +0.000 OA
ATOM     33  C   UNL     1       2.323  13.042  18.157  0.00  0.00    +0.000 C 
ENDBRANCH  31  32
ENDBRANCH  25  26
ENDBRANCH  23  25
ENDBRANCH  20  21
ENDBRANCH   1  20
TORSDOF 9
ENDMDL
