MODEL 1
REMARK VINA RESULT:      -5.1      0.000      0.000
REMARK  Name = 
REMARK  10 active torsions:
REMARK  status: ('A' for Active; 'I' for Inactive)
REMARK    1  A    between atoms: C_1  and  C_2
REMARK    2  A    between atoms: C_2  and  C_3
REMARK    3  A    between atoms: C_3  and  C_4
REMARK    4  A    between atoms: C_4  and  C_5
REMARK    5  A    between atoms: C_5  and  C_6
REMARK    6  A    between atoms: C_6  and  C_7
REMARK    7  A    between atoms: C_7  and  C_8
REMARK    8  A    between atoms: C_8  and  C_9
REMARK    9  A    between atoms: C_9  and  C_10
REMARK   10  A    between atoms: C_10  and  C_12
REMARK                            x       y       z     vdW  Elec       q    Type
REMARK                         _______ _______ _______ _____ _____    ______ ____
ROOT
ATOM      1  C   UNL     1       4.066   5.600  19.266  0.00  0.00    +0.000 C 
ENDROOT
BRANCH   1   2
ATOM      2  C   UNL     1       3.366   5.618  17.908  0.00  0.00    +0.000 C 
BRANCH   2   3
ATOM      3  C   UNL     1       1.973   5.003  17.995  0.00  0.00    +0.000 C 
BRANCH   3   4
ATOM      4  C   UNL     1       2.003   3.524  17.613  0.00  0.00    +0.000 C 
BRANCH   4   5
ATOM      5  C   UNL     1       1.654   2.645  18.812  0.00  0.00    +0.000 C 
BRANCH   5   7
ATOM      6  C   UNL     1       1.582   3.129  21.275  0.00  0.00    +0.000 C 
ATOM      7  C   UNL     1       0.984   3.457  19.918  0.00  0.00    +0.000 C 
ENDBRANCH   5   7
ENDBRANCH   4   5
ENDBRANCH   3   4
ENDBRANCH   2   3
ENDBRANCH   1   2
BRANCH   1   8
ATOM      8  C   UNL     1       5.216   4.594  19.259  0.00  0.00    +0.000 C 
BRANCH   8   9
ATOM      9  C   UNL     1       5.777   4.391  17.856  0.00  0.00    +0.000 C 
BRANCH   9  10
ATOM     10  C   UNL     1       7.218   4.866  17.748  0.00  0.00    +0.000 C 
ATOM     11  O   UNL     1       8.023   4.356  16.967  0.00  0.00    +0.000 OA
BRANCH  10  12
ATOM     12  C   UNL     1       7.623   6.001  18.649  0.00  0.00    +0.000 C 
ATOM     13 BR   UNL     1       7.599   7.624  17.596  0.00  0.00    +0.000 Br
ENDBRANCH  10  12
ENDBRANCH   9  10
ENDBRANCH   8   9
ENDBRANCH   1   8
TORSDOF 9
ENDMDL
MODEL 2
REMARK VINA RESULT:      -4.9      1.788      2.130
REMARK  Name = 
REMARK  10 active torsions:
REMARK  status: ('A' for Active; 'I' for Inactive)
REMARK    1  A    between atoms: C_1  and  C_2
REMARK    2  A    between atoms: C_2  and  C_3
REMARK    3  A    between atoms: C_3  and  C_4
REMARK    4  A    between atoms: C_4  and  C_5
REMARK    5  A    between atoms: C_5  and  C_6
REMARK    6  A    between atoms: C_6  and  C_7
REMARK    7  A    between atoms: C_7  and  C_8
REMARK    8  A    between atoms: C_8  and  C_9
REMARK    9  A    between atoms: C_9  and  C_10
REMARK   10  A    between atoms: C_10  and  C_12
REMARK                            x       y       z     vdW  Elec       q    Type
REMARK                         _______ _______ _______ _____ _____    ______ ____
ROOT
ATOM      1  C   UNL     1       4.953   5.244  19.218  0.00  0.00    +0.000 C 
ENDROOT
BRANCH   1   2
ATOM      2  C   UNL     1       4.548   3.773  19.136  0.00  0.00    +0.000 C 
BRANCH   2   3
ATOM      3  C   UNL     1       3.761   3.485  17.862  0.00  0.00    +0.000 C 
BRANCH   3   4
ATOM      4  C   UNL     1       2.333   4.016  17.971  0.00  0.00    +0.000 C 
BRANCH   4   5
ATOM      5  C   UNL     1       1.456   3.059  18.777  0.00  0.00    +0.000 C 
BRANCH   5   7
ATOM      6  C   UNL     1       1.299   2.829  21.273  0.00  0.00    +0.000 C 
ATOM      7  C   UNL     1       0.978   3.706  20.074  0.00  0.00    +0.000 C 
ENDBRANCH   5   7
ENDBRANCH   4   5
ENDBRANCH   3   4
ENDBRANCH   2   3
ENDBRANCH   1   2
BRANCH   1   8
ATOM      8  C   UNL     1       6.473   5.381  19.171  0.00  0.00    +0.000 C 
BRANCH   8   9
ATOM      9  C   UNL     1       6.928   6.176  17.951  0.00  0.00    +0.000 C 
BRANCH   9  10
ATOM     10  C   UNL     1       7.028   5.300  16.711  0.00  0.00    +0.000 C 
ATOM     11  O   UNL     1       7.905   4.446  16.577  0.00  0.00    +0.000 OA
BRANCH  10  12
ATOM     12  C   UNL     1       5.994   5.525  15.641  0.00  0.00    +0.000 C 
ATOM     13 BR   UNL     1       6.136   4.069  14.374  0.00  0.00    +0.000 Br
ENDBRANCH  10  12
ENDBRANCH   9  10
ENDBRANCH   8   9
ENDBRANCH   1   8
TORSDOF 9
ENDMDL
MODEL 3
REMARK VINA RESULT:      -4.8      1.525      1.635
REMARK  Name = 
REMARK  10 active torsions:
REMARK  status: ('A' for Active; 'I' for Inactive)
REMARK    1  A    between atoms: C_1  and  C_2
REMARK    2  A    between atoms: C_2  and  C_3
REMARK    3  A    between atoms: C_3  and  C_4
REMARK    4  A    between atoms: C_4  and  C_5
REMARK    5  A    between atoms: C_5  and  C_6
REMARK    6  A    between atoms: C_6  and  C_7
REMARK    7  A    between atoms: C_7  and  C_8
REMARK    8  A    between atoms: C_8  and  C_9
REMARK    9  A    between atoms: C_9  and  C_10
REMARK   10  A    between atoms: C_10  and  C_12
REMARK                            x       y       z     vdW  Elec       q    Type
REMARK                         _______ _______ _______ _____ _____    ______ ____
ROOT
ATOM      1  C   UNL     1       4.127   5.560  19.184  0.00  0.00    +0.000 C 
ENDROOT
BRANCH   1   2
ATOM      2  C   UNL     1       3.331   5.629  17.881  0.00  0.00    +0.000 C 
BRANCH   2   3
ATOM      3  C   UNL     1       1.911   5.106  18.072  0.00  0.00    +0.000 C 
BRANCH   3   4
ATOM      4  C   UNL     1       1.823   3.624  17.712  0.00  0.00    +0.000 C 
BRANCH   4   5
ATOM      5  C   UNL     1       1.001   2.860  18.748  0.00  0.00    +0.000 C 
BRANCH   5   7
ATOM      6  C   UNL     1       1.508   3.034  21.202  0.00  0.00    +0.000 C 
ATOM      7  C   UNL     1       1.880   2.360  19.893  0.00  0.00    +0.000 C 
ENDBRANCH   5   7
ENDBRANCH   4   5
ENDBRANCH   3   4
ENDBRANCH   2   3
ENDBRANCH   1   2
BRANCH   1   8
ATOM      8  C   UNL     1       5.108   4.390  19.147  0.00  0.00    +0.000 C 
BRANCH   8   9
ATOM      9  C   UNL     1       5.496   4.026  17.718  0.00  0.00    +0.000 C 
BRANCH   9  10
ATOM     10  C   UNL     1       6.908   4.483  17.381  0.00  0.00    +0.000 C 
ATOM     11  O   UNL     1       7.809   4.509  18.221  0.00  0.00    +0.000 OA
BRANCH  10  12
ATOM     12  C   UNL     1       7.160   4.907  15.960  0.00  0.00    +0.000 C 
ATOM     13 BR   UNL     1       5.586   4.460  14.926  0.00  0.00    +0.000 Br
ENDBRANCH  10  12
ENDBRANCH   9  10
ENDBRANCH   8   9
ENDBRANCH   1   8
TORSDOF 9
ENDMDL
MODEL 4
REMARK VINA RESULT:      -4.7      1.576      1.801
REMARK  Name = 
REMARK  10 active torsions:
REMARK  status: ('A' for Active; 'I' for Inactive)
REMARK    1  A    between atoms: C_1  and  C_2
REMARK    2  A    between atoms: C_2  and  C_3
REMARK    3  A    between atoms: C_3  and  C_4
REMARK    4  A    between atoms: C_4  and  C_5
REMARK    5  A    between atoms: C_5  and  C_6
REMARK    6  A    between atoms: C_6  and  C_7
REMARK    7  A    between atoms: C_7  and  C_8
REMARK    8  A    between atoms: C_8  and  C_9
REMARK    9  A    between atoms: C_9  and  C_10
REMARK   10  A    between atoms: C_10  and  C_12
REMARK                            x       y       z     vdW  Elec       q    Type
REMARK                         _______ _______ _______ _____ _____    ______ ____
ROOT
ATOM      1  C   UNL     1       4.477   4.363  17.026  0.00  0.00    +0.000 C 
ENDROOT
BRANCH   1   2
ATOM      2  C   UNL     1       3.907   4.828  18.366  0.00  0.00    +0.000 C 
BRANCH   2   3
ATOM      3  C   UNL     1       2.453   5.266  18.226  0.00  0.00    +0.000 C 
BRANCH   3   4
ATOM      4  C   UNL     1       1.582   4.116  17.724  0.00  0.00    +0.000 C 
BRANCH   4   5
ATOM      5  C   UNL     1       1.530   2.984  18.748  0.00  0.00    +0.000 C 
BRANCH   5   7
ATOM      6  C   UNL     1       1.660   3.129  21.252  0.00  0.00    +0.000 C 
ATOM      7  C   UNL     1       0.817   3.425  20.024  0.00  0.00    +0.000 C 
ENDBRANCH   5   7
ENDBRANCH   4   5
ENDBRANCH   3   4
ENDBRANCH   2   3
ENDBRANCH   1   2
BRANCH   1   8
ATOM      8  C   UNL     1       4.827   5.564  16.150  0.00  0.00    +0.000 C 
BRANCH   8   9
ATOM      9  C   UNL     1       5.516   6.663  16.953  0.00  0.00    +0.000 C 
BRANCH   9  10
ATOM     10  C   UNL     1       7.031   6.541  16.893  0.00  0.00    +0.000 C 
ATOM     11  O   UNL     1       7.616   6.061  15.920  0.00  0.00    +0.000 OA
BRANCH  10  12
ATOM     12  C   UNL     1       7.797   7.038  18.090  0.00  0.00    +0.000 C 
ATOM     13 BR   UNL     1       7.740   5.653  19.439  0.00  0.00    +0.000 Br
ENDBRANCH  10  12
ENDBRANCH   9  10
ENDBRANCH   8   9
ENDBRANCH   1   8
TORSDOF 9
ENDMDL
MODEL 5
REMARK VINA RESULT:      -4.7      1.692      2.011
REMARK  Name = 
REMARK  10 active torsions:
REMARK  status: ('A' for Active; 'I' for Inactive)
REMARK    1  A    between atoms: C_1  and  C_2
REMARK    2  A    between atoms: C_2  and  C_3
REMARK    3  A    between atoms: C_3  and  C_4
REMARK    4  A    between atoms: C_4  and  C_5
REMARK    5  A    between atoms: C_5  and  C_6
REMARK    6  A    between atoms: C_6  and  C_7
REMARK    7  A    between atoms: C_7  and  C_8
REMARK    8  A    between atoms: C_8  and  C_9
REMARK    9  A    between atoms: C_9  and  C_10
REMARK   10  A    between atoms: C_10  and  C_12
REMARK                            x       y       z     vdW  Elec       q    Type
REMARK                         _______ _______ _______ _____ _____    ______ ____
ROOT
ATOM      1  C   UNL     1       4.937   3.935  19.051  0.00  0.00    +0.000 C 
ENDROOT
BRANCH   1   2
ATOM      2  C   UNL     1       3.790   3.596  18.100  0.00  0.00    +0.000 C 
BRANCH   2   3
ATOM      3  C   UNL     1       2.794   4.746  18.003  0.00  0.00    +0.000 C 
BRANCH   3   4
ATOM      4  C   UNL     1       1.791   4.699  19.154  0.00  0.00    +0.000 C 
BRANCH   4   5
ATOM      5  C   UNL     1       1.212   3.295  19.315  0.00  0.00    +0.000 C 
BRANCH   5   7
ATOM      6  C   UNL     1       2.212   3.580  21.601  0.00  0.00    +0.000 C 
ATOM      7  C   UNL     1       1.128   2.896  20.787  0.00  0.00    +0.000 C 
ENDBRANCH   5   7
ENDBRANCH   4   5
ENDBRANCH   3   4
ENDBRANCH   2   3
ENDBRANCH   1   2
BRANCH   1   8
ATOM      8  C   UNL     1       5.366   5.389  18.872  0.00  0.00    +0.000 C 
BRANCH   8   9
ATOM      9  C   UNL     1       6.869   5.507  18.636  0.00  0.00    +0.000 C 
BRANCH   9  10
ATOM     10  C   UNL     1       7.198   5.689  17.162  0.00  0.00    +0.000 C 
ATOM     11  O   UNL     1       7.548   6.774  16.695  0.00  0.00    +0.000 OA
BRANCH  10  12
ATOM     12  C   UNL     1       7.074   4.472  16.287  0.00  0.00    +0.000 C 
ATOM     13 BR   UNL     1       5.709   4.836  14.965  0.00  0.00    +0.000 Br
ENDBRANCH  10  12
ENDBRANCH   9  10
ENDBRANCH   8   9
ENDBRANCH   1   8
TORSDOF 9
ENDMDL
MODEL 6
REMARK VINA RESULT:      -4.7      1.372      1.688
REMARK  Name = 
REMARK  10 active torsions:
REMARK  status: ('A' for Active; 'I' for Inactive)
REMARK    1  A    between atoms: C_1  and  C_2
REMARK    2  A    between atoms: C_2  and  C_3
REMARK    3  A    between atoms: C_3  and  C_4
REMARK    4  A    between atoms: C_4  and  C_5
REMARK    5  A    between atoms: C_5  and  C_6
REMARK    6  A    between atoms: C_6  and  C_7
REMARK    7  A    between atoms: C_7  and  C_8
REMARK    8  A    between atoms: C_8  and  C_9
REMARK    9  A    between atoms: C_9  and  C_10
REMARK   10  A    between atoms: C_10  and  C_12
REMARK                            x       y       z     vdW  Elec       q    Type
REMARK                         _______ _______ _______ _____ _____    ______ ____
ROOT
ATOM      1  C   UNL     1       4.567   4.279  17.208  0.00  0.00    +0.000 C 
ENDROOT
BRANCH   1   2
ATOM      2  C   UNL     1       3.401   4.844  18.020  0.00  0.00    +0.000 C 
BRANCH   2   3
ATOM      3  C   UNL     1       2.101   4.111  17.706  0.00  0.00    +0.000 C 
BRANCH   3   4
ATOM      4  C   UNL     1       2.023   2.789  18.468  0.00  0.00    +0.000 C 
BRANCH   4   5
ATOM      5  C   UNL     1       0.801   2.761  19.384  0.00  0.00    +0.000 C 
BRANCH   5   7
ATOM      6  C   UNL     1       2.246   2.932  21.432  0.00  0.00    +0.000 C 
ATOM      7  C   UNL     1       1.064   3.522  20.682  0.00  0.00    +0.000 C 
ENDBRANCH   5   7
ENDBRANCH   4   5
ENDBRANCH   3   4
ENDBRANCH   2   3
ENDBRANCH   1   2
BRANCH   1   8
ATOM      8  C   UNL     1       4.883   5.191  16.025  0.00  0.00    +0.000 C 
BRANCH   8   9
ATOM      9  C   UNL     1       6.315   4.999  15.534  0.00  0.00    +0.000 C 
BRANCH   9  10
ATOM     10  C   UNL     1       7.318   5.075  16.675  0.00  0.00    +0.000 C 
ATOM     11  O   UNL     1       8.090   4.151  16.936  0.00  0.00    +0.000 OA
BRANCH  10  12
ATOM     12  C   UNL     1       7.328   6.345  17.483  0.00  0.00    +0.000 C 
ATOM     13 BR   UNL     1       7.711   5.869  19.319  0.00  0.00    +0.000 Br
ENDBRANCH  10  12
ENDBRANCH   9  10
ENDBRANCH   8   9
ENDBRANCH   1   8
TORSDOF 9
ENDMDL
MODEL 7
REMARK VINA RESULT:      -4.7      1.547      2.020
REMARK  Name = 
REMARK  10 active torsions:
REMARK  status: ('A' for Active; 'I' for Inactive)
REMARK    1  A    between atoms: C_1  and  C_2
REMARK    2  A    between atoms: C_2  and  C_3
REMARK    3  A    between atoms: C_3  and  C_4
REMARK    4  A    between atoms: C_4  and  C_5
REMARK    5  A    between atoms: C_5  and  C_6
REMARK    6  A    between atoms: C_6  and  C_7
REMARK    7  A    between atoms: C_7  and  C_8
REMARK    8  A    between atoms: C_8  and  C_9
REMARK    9  A    between atoms: C_9  and  C_10
REMARK   10  A    between atoms: C_10  and  C_12
REMARK                            x       y       z     vdW  Elec       q    Type
REMARK                         _______ _______ _______ _____ _____    ______ ____
ROOT
ATOM      1  C   UNL     1       3.796   5.060  17.619  0.00  0.00    +0.000 C 
ENDROOT
BRANCH   1   2
ATOM      2  C   UNL     1       2.376   4.503  17.722  0.00  0.00    +0.000 C 
BRANCH   2   3
ATOM      3  C   UNL     1       1.751   4.831  19.074  0.00  0.00    +0.000 C 
BRANCH   3   4
ATOM      4  C   UNL     1       1.048   3.608  19.661  0.00  0.00    +0.000 C 
BRANCH   4   5
ATOM      5  C   UNL     1       1.997   2.413  19.725  0.00  0.00    +0.000 C 
BRANCH   5   7
ATOM      6  C   UNL     1       4.432   2.175  20.291  0.00  0.00    +0.000 C 
ATOM      7  C   UNL     1       3.068   2.614  20.795  0.00  0.00    +0.000 C 
ENDBRANCH   5   7
ENDBRANCH   4   5
ENDBRANCH   3   4
ENDBRANCH   2   3
ENDBRANCH   1   2
BRANCH   1   8
ATOM      8  C   UNL     1       4.739   4.009  17.036  0.00  0.00    +0.000 C 
BRANCH   8   9
ATOM      9  C   UNL     1       5.456   4.525  15.793  0.00  0.00    +0.000 C 
BRANCH   9  10
ATOM     10  C   UNL     1       6.871   4.986  16.108  0.00  0.00    +0.000 C 
ATOM     11  O   UNL     1       7.517   5.700  15.339  0.00  0.00    +0.000 OA
BRANCH  10  12
ATOM     12  C   UNL     1       7.457   4.526  17.415  0.00  0.00    +0.000 C 
ATOM     13 BR   UNL     1       7.584   6.069  18.576  0.00  0.00    +0.000 Br
ENDBRANCH  10  12
ENDBRANCH   9  10
ENDBRANCH   8   9
ENDBRANCH   1   8
TORSDOF 9
ENDMDL
MODEL 8
REMARK VINA RESULT:      -4.7      1.853      2.035
REMARK  Name = 
REMARK  10 active torsions:
REMARK  status: ('A' for Active; 'I' for Inactive)
REMARK    1  A    between atoms: C_1  and  C_2
REMARK    2  A    between atoms: C_2  and  C_3
REMARK    3  A    between atoms: C_3  and  C_4
REMARK    4  A    between atoms: C_4  and  C_5
REMARK    5  A    between atoms: C_5  and  C_6
REMARK    6  A    between atoms: C_6  and  C_7
REMARK    7  A    between atoms: C_7  and  C_8
REMARK    8  A    between atoms: C_8  and  C_9
REMARK    9  A    between atoms: C_9  and  C_10
REMARK   10  A    between atoms: C_10  and  C_12
REMARK                            x       y       z     vdW  Elec       q    Type
REMARK                         _______ _______ _______ _____ _____    ______ ____
ROOT
ATOM      1  C   UNL     1       4.547   5.298  19.304  0.00  0.00    +0.000 C 
ENDROOT
BRANCH   1   2
ATOM      2  C   UNL     1       3.586   6.169  18.494  0.00  0.00    +0.000 C 
BRANCH   2   3
ATOM      3  C   UNL     1       2.295   5.422  18.177  0.00  0.00    +0.000 C 
BRANCH   3   4
ATOM      4  C   UNL     1       2.581   3.962  17.827  0.00  0.00    +0.000 C 
BRANCH   4   5
ATOM      5  C   UNL     1       1.544   3.037  18.459  0.00  0.00    +0.000 C 
BRANCH   5   7
ATOM      6  C   UNL     1       1.515   2.911  20.968  0.00  0.00    +0.000 C 
ATOM      7  C   UNL     1       0.978   3.636  19.745  0.00  0.00    +0.000 C 
ENDBRANCH   5   7
ENDBRANCH   4   5
ENDBRANCH   3   4
ENDBRANCH   2   3
ENDBRANCH   1   2
BRANCH   1   8
ATOM      8  C   UNL     1       5.992   5.579  18.898  0.00  0.00    +0.000 C 
BRANCH   8   9
ATOM      9  C   UNL     1       6.458   4.639  17.792  0.00  0.00    +0.000 C 
BRANCH   9  10
ATOM     10  C   UNL     1       6.583   5.356  16.456  0.00  0.00    +0.000 C 
ATOM     11  O   UNL     1       7.537   6.089  16.189  0.00  0.00    +0.000 OA
BRANCH  10  12
ATOM     12  C   UNL     1       5.477   5.129  15.461  0.00  0.00    +0.000 C 
ATOM     13 BR   UNL     1       6.195   4.054  14.021  0.00  0.00    +0.000 Br
ENDBRANCH  10  12
ENDBRANCH   9  10
ENDBRANCH   8   9
ENDBRANCH   1   8
TORSDOF 9
ENDMDL
MODEL 9
REMARK VINA RESULT:      -4.7      1.653      1.895
REMARK  Name = 
REMARK  10 active torsions:
REMARK  status: ('A' for Active; 'I' for Inactive)
REMARK    1  A    between atoms: C_1  and  C_2
REMARK    2  A    between atoms: C_2  and  C_3
REMARK    3  A    between atoms: C_3  and  C_4
REMARK    4  A    between atoms: C_4  and  C_5
REMARK    5  A    between atoms: C_5  and  C_6
REMARK    6  A    between atoms: C_6  and  C_7
REMARK    7  A    between atoms: C_7  and  C_8
REMARK    8  A    between atoms: C_8  and  C_9
REMARK    9  A    between atoms: C_9  and  C_10
REMARK   10  A    between atoms: C_10  and  C_12
REMARK                            x       y       z     vdW  Elec       q    Type
REMARK                         _______ _______ _______ _____ _____    ______ ____
ROOT
ATOM      1  C   UNL     1       4.670   4.430  19.305  0.00  0.00    +0.000 C 
ENDROOT
BRANCH   1   2
ATOM      2  C   UNL     1       3.669   4.920  18.260  0.00  0.00    +0.000 C 
BRANCH   2   3
ATOM      3  C   UNL     1       2.880   3.760  17.662  0.00  0.00    +0.000 C 
BRANCH   3   4
ATOM      4  C   UNL     1       1.402   3.853  18.040  0.00  0.00    +0.000 C 
BRANCH   4   5
ATOM      5  C   UNL     1       1.238   4.116  19.535  0.00  0.00    +0.000 C 
BRANCH   5   7
ATOM      6  C   UNL     1       1.929   2.857  21.596  0.00  0.00    +0.000 C 
ATOM      7  C   UNL     1       1.112   2.810  20.316  0.00  0.00    +0.000 C 
ENDBRANCH   5   7
ENDBRANCH   4   5
ENDBRANCH   3   4
ENDBRANCH   2   3
ENDBRANCH   1   2
BRANCH   1   8
ATOM      8  C   UNL     1       6.024   5.106  19.105  0.00  0.00    +0.000 C 
BRANCH   8   9
ATOM      9  C   UNL     1       6.225   5.545  17.658  0.00  0.00    +0.000 C 
BRANCH   9  10
ATOM     10  C   UNL     1       7.313   4.735  16.968  0.00  0.00    +0.000 C 
ATOM     11  O   UNL     1       8.198   4.152  17.596  0.00  0.00    +0.000 OA
BRANCH  10  12
ATOM     12  C   UNL     1       7.261   4.677  15.465  0.00  0.00    +0.000 C 
ATOM     13 BR   UNL     1       5.406   4.477  14.950  0.00  0.00    +0.000 Br
ENDBRANCH  10  12
ENDBRANCH   9  10
ENDBRANCH   8   9
ENDBRANCH   1   8
TORSDOF 9
ENDMDL
