MODEL 1
REMARK VINA RESULT:      -8.3      0.000      0.000
REMARK  Name = 
REMARK  9 active torsions:
REMARK  status: ('A' for Active; 'I' for Inactive)
REMARK    1  A    between atoms: C_1  and  C_2
REMARK    2  A    between atoms: C_7  and  O_8
REMARK    3  A    between atoms: O_8  and  C_9
REMARK    4  A    between atoms: C_9  and  C_10
REMARK    5  A    between atoms: C_13  and  S_14
REMARK    6  A    between atoms: S_14  and  C_15
REMARK    7  A    between atoms: C_15  and  C_16
REMARK    8  A    between atoms: C_16  and  N_17
REMARK    9  A    between atoms: N_22  and  C_23
REMARK                            x       y       z     vdW  Elec       q    Type
REMARK                         _______ _______ _______ _____ _____    ______ ____
ROOT
ATOM      1  C   UNL     1       2.410   7.299  19.082  0.00  0.00    +0.000 A 
ATOM      2  N   UNL     1       3.058   8.001  18.169  0.00  0.00    +0.000 NA
ATOM      3  N   UNL     1       3.763   7.139  17.369  0.00  0.00    +0.000 NA
ATOM      4  C   UNL     1       3.543   5.914  17.789  0.00  0.00    +0.000 A 
ATOM      5  N   UNL     1       2.659   5.935  18.872  0.00  0.00    +0.000 N 
ENDROOT
BRANCH   5   6
ATOM      6  C   UNL     1       2.158   4.855  19.662  0.00  0.00    +0.000 A 
ATOM      7  C   UNL     1       1.226   3.946  19.148  0.00  0.00    +0.000 A 
ATOM      8  C   UNL     1       0.784   2.874  19.929  0.00  0.00    +0.000 A 
ATOM      9  C   UNL     1       1.282   2.682  21.214  0.00  0.00    +0.000 A 
ATOM     10  C   UNL     1       2.214   3.577  21.735  0.00  0.00    +0.000 A 
ATOM     11  C   UNL     1       2.630   4.668  20.971  0.00  0.00    +0.000 A 
ENDBRANCH   5   6
BRANCH   1  12
ATOM     12  C   UNL     1       1.771   7.892  20.313  0.00  0.00    +0.000 C 
BRANCH  12  13
ATOM     13  O   UNL     1       0.656   8.694  19.932  0.00  0.00    +0.000 OA
BRANCH  13  20
ATOM     14  C   UNL     1       0.568  11.817  19.292  0.00  0.00    +0.000 C 
ATOM     15  C   UNL     1       0.114  11.089  20.524  0.00  0.00    +0.000 A 
ATOM     16  C   UNL     1      -0.409  11.912  21.554  0.00  0.00    +0.000 A 
ATOM     17  C   UNL     1      -0.844  11.391  22.770  0.00  0.00    +0.000 A 
ATOM     18  C   UNL     1      -0.758  10.026  22.989  0.00  0.00    +0.000 A 
ATOM     19  C   UNL     1      -0.244   9.199  21.986  0.00  0.00    +0.000 A 
ATOM     20  C   UNL     1       0.193   9.702  20.743  0.00  0.00    +0.000 A 
ENDBRANCH  13  20
ENDBRANCH  12  13
ENDBRANCH   1  12
BRANCH   4  21
ATOM     21  S   UNL     1       4.142   4.479  16.988  0.00  0.00    +0.000 S 
BRANCH  21  22
ATOM     22  C   UNL     1       5.305   5.139  15.729  0.00  0.00    +0.000 C 
BRANCH  22  23
ATOM     23  C   UNL     1       6.692   4.453  15.840  0.00  0.00    +0.000 C 
BRANCH  23  24
ATOM     24  N   UNL     1       7.666   5.191  16.674  0.00  0.00    +0.000 NA
ATOM     25  C   UNL     1       7.843   4.624  18.015  0.00  0.00    +0.000 C 
ATOM     26  C   UNL     1       7.672   5.754  19.020  0.00  0.00    +0.000 C 
ATOM     27  C   UNL     1       7.791   7.022  18.206  0.00  0.00    +0.000 C 
ATOM     28  C   UNL     1       7.320   6.613  16.821  0.00  0.00    +0.000 C 
ENDBRANCH  23  24
ENDBRANCH  22  23
ENDBRANCH  21  22
ENDBRANCH   4  21
TORSDOF 8
ENDMDL
MODEL 2
REMARK VINA RESULT:      -8.0      0.545      1.061
REMARK  Name = 
REMARK  9 active torsions:
REMARK  status: ('A' for Active; 'I' for Inactive)
REMARK    1  A    between atoms: C_1  and  C_2
REMARK    2  A    between atoms: C_7  and  O_8
REMARK    3  A    between atoms: O_8  and  C_9
REMARK    4  A    between atoms: C_9  and  C_10
REMARK    5  A    between atoms: C_13  and  S_14
REMARK    6  A    between atoms: S_14  and  C_15
REMARK    7  A    between atoms: C_15  and  C_16
REMARK    8  A    between atoms: C_16  and  N_17
REMARK    9  A    between atoms: N_22  and  C_23
REMARK                            x       y       z     vdW  Elec       q    Type
REMARK                         _______ _______ _______ _____ _____    ______ ____
ROOT
ATOM      1  C   UNL     1       2.165   7.393  19.571  0.00  0.00    +0.000 A 
ATOM      2  N   UNL     1       2.691   8.236  18.699  0.00  0.00    +0.000 NA
ATOM      3  N   UNL     1       3.393   7.522  17.763  0.00  0.00    +0.000 NA
ATOM      4  C   UNL     1       3.292   6.245  18.058  0.00  0.00    +0.000 A 
ATOM      5  N   UNL     1       2.493   6.082  19.194  0.00  0.00    +0.000 N 
ENDROOT
BRANCH   5   6
ATOM      6  C   UNL     1       2.130   4.889  19.891  0.00  0.00    +0.000 A 
ATOM      7  C   UNL     1       2.660   4.590  21.151  0.00  0.00    +0.000 A 
ATOM      8  C   UNL     1       2.256   3.435  21.828  0.00  0.00    +0.000 A 
ATOM      9  C   UNL     1       1.306   2.584  21.271  0.00  0.00    +0.000 A 
ATOM     10  C   UNL     1       0.768   2.874  20.019  0.00  0.00    +0.000 A 
ATOM     11  C   UNL     1       1.195   4.007  19.326  0.00  0.00    +0.000 A 
ENDBRANCH   5   6
BRANCH   1  12
ATOM     12  C   UNL     1       1.580   7.801  20.899  0.00  0.00    +0.000 C 
BRANCH  12  13
ATOM     13  O   UNL     1       0.226   8.210  20.719  0.00  0.00    +0.000 OA
BRANCH  13  20
ATOM     14  C   UNL     1      -0.065  10.902  19.035  0.00  0.00    +0.000 C 
ATOM     15  C   UNL     1      -0.378  10.651  20.482  0.00  0.00    +0.000 A 
ATOM     16  C   UNL     1      -0.850  11.777  21.203  0.00  0.00    +0.000 A 
ATOM     17  C   UNL     1      -1.155  11.714  22.560  0.00  0.00    +0.000 A 
ATOM     18  C   UNL     1      -0.985  10.517  23.235  0.00  0.00    +0.000 A 
ATOM     19  C   UNL     1      -0.520   9.396  22.542  0.00  0.00    +0.000 A 
ATOM     20  C   UNL     1      -0.214   9.433  21.166  0.00  0.00    +0.000 A 
ENDBRANCH  13  20
ENDBRANCH  12  13
ENDBRANCH   1  12
BRANCH   4  21
ATOM     21  S   UNL     1       3.929   4.955  17.065  0.00  0.00    +0.000 S 
BRANCH  21  22
ATOM     22  C   UNL     1       5.125   5.807  15.962  0.00  0.00    +0.000 C 
BRANCH  22  23
ATOM     23  C   UNL     1       6.440   4.993  15.835  0.00  0.00    +0.000 C 
BRANCH  23  24
ATOM     24  N   UNL     1       7.537   5.478  16.699  0.00  0.00    +0.000 NA
ATOM     25  C   UNL     1       7.726   4.680  17.915  0.00  0.00    +0.000 C 
ATOM     26  C   UNL     1       7.743   5.637  19.098  0.00  0.00    +0.000 C 
ATOM     27  C   UNL     1       7.956   7.005  18.491  0.00  0.00    +0.000 C 
ATOM     28  C   UNL     1       7.363   6.883  17.098  0.00  0.00    +0.000 C 
ENDBRANCH  23  24
ENDBRANCH  22  23
ENDBRANCH  21  22
ENDBRANCH   4  21
TORSDOF 8
ENDMDL
MODEL 3
REMARK VINA RESULT:      -7.8      3.288      7.946
REMARK  Name = 
REMARK  9 active torsions:
REMARK  status: ('A' for Active; 'I' for Inactive)
REMARK    1  A    between atoms: C_1  and  C_2
REMARK    2  A    between atoms: C_7  and  O_8
REMARK    3  A    between atoms: O_8  and  C_9
REMARK    4  A    between atoms: C_9  and  C_10
REMARK    5  A    between atoms: C_13  and  S_14
REMARK    6  A    between atoms: S_14  and  C_15
REMARK    7  A    between atoms: C_15  and  C_16
REMARK    8  A    between atoms: C_16  and  N_17
REMARK    9  A    between atoms: N_22  and  C_23
REMARK                            x       y       z     vdW  Elec       q    Type
REMARK                         _______ _______ _______ _____ _____    ______ ____
ROOT
ATOM      1  C   UNL     1       5.979   5.861  17.177  0.00  0.00    +0.000 A 
ATOM      2  N   UNL     1       5.966   7.165  16.965  0.00  0.00    +0.000 NA
ATOM      3  N   UNL     1       4.703   7.640  17.209  0.00  0.00    +0.000 NA
ATOM      4  C   UNL     1       3.947   6.629  17.575  0.00  0.00    +0.000 A 
ATOM      5  N   UNL     1       4.706   5.455  17.605  0.00  0.00    +0.000 N 
ENDROOT
BRANCH   5   6
ATOM      6  C   UNL     1       4.307   4.119  17.915  0.00  0.00    +0.000 A 
ATOM      7  C   UNL     1       4.773   3.466  19.062  0.00  0.00    +0.000 A 
ATOM      8  C   UNL     1       4.333   2.173  19.363  0.00  0.00    +0.000 A 
ATOM      9  C   UNL     1       3.411   1.530  18.543  0.00  0.00    +0.000 A 
ATOM     10  C   UNL     1       2.936   2.173  17.402  0.00  0.00    +0.000 A 
ATOM     11  C   UNL     1       3.399   3.448  17.080  0.00  0.00    +0.000 A 
ENDBRANCH   5   6
BRANCH   1  12
ATOM     12  C   UNL     1       7.088   4.940  16.736  0.00  0.00    +0.000 C 
BRANCH  12  13
ATOM     13  O   UNL     1       7.622   5.395  15.496  0.00  0.00    +0.000 OA
BRANCH  13  20
ATOM     14  C   UNL     1       8.781   6.004  12.588  0.00  0.00    +0.000 C 
ATOM     15  C   UNL     1       7.688   5.057  12.994  0.00  0.00    +0.000 A 
ATOM     16  C   UNL     1       7.073   4.351  11.928  0.00  0.00    +0.000 A 
ATOM     17  C   UNL     1       6.025   3.459  12.138  0.00  0.00    +0.000 A 
ATOM     18  C   UNL     1       5.557   3.258  13.426  0.00  0.00    +0.000 A 
ATOM     19  C   UNL     1       6.149   3.946  14.489  0.00  0.00    +0.000 A 
ATOM     20  C   UNL     1       7.219   4.846  14.302  0.00  0.00    +0.000 A 
ENDBRANCH  13  20
ENDBRANCH  12  13
ENDBRANCH   1  12
BRANCH   4  21
ATOM     21  S   UNL     1       2.288   6.786  18.105  0.00  0.00    +0.000 S 
BRANCH  21  22
ATOM     22  C   UNL     1       2.439   7.179  19.892  0.00  0.00    +0.000 C 
BRANCH  22  23
ATOM     23  C   UNL     1       1.615   6.184  20.751  0.00  0.00    +0.000 C 
BRANCH  23  24
ATOM     24  N   UNL     1       1.996   4.767  20.567  0.00  0.00    +0.000 NA
ATOM     25  C   UNL     1       0.981   3.969  19.873  0.00  0.00    +0.000 C 
ATOM     26  C   UNL     1       0.717   2.727  20.712  0.00  0.00    +0.000 C 
ATOM     27  C   UNL     1       1.879   2.652  21.675  0.00  0.00    +0.000 C 
ATOM     28  C   UNL     1       2.312   4.098  21.838  0.00  0.00    +0.000 C 
ENDBRANCH  23  24
ENDBRANCH  22  23
ENDBRANCH  21  22
ENDBRANCH   4  21
TORSDOF 8
ENDMDL
MODEL 4
REMARK VINA RESULT:      -7.8      1.413      2.320
REMARK  Name = 
REMARK  9 active torsions:
REMARK  status: ('A' for Active; 'I' for Inactive)
REMARK    1  A    between atoms: C_1  and  C_2
REMARK    2  A    between atoms: C_7  and  O_8
REMARK    3  A    between atoms: O_8  and  C_9
REMARK    4  A    between atoms: C_9  and  C_10
REMARK    5  A    between atoms: C_13  and  S_14
REMARK    6  A    between atoms: S_14  and  C_15
REMARK    7  A    between atoms: C_15  and  C_16
REMARK    8  A    between atoms: C_16  and  N_17
REMARK    9  A    between atoms: N_22  and  C_23
REMARK                            x       y       z     vdW  Elec       q    Type
REMARK                         _______ _______ _______ _____ _____    ______ ____
ROOT
ATOM      1  C   UNL     1       2.395   7.322  18.961  0.00  0.00    +0.000 A 
ATOM      2  N   UNL     1       3.079   8.075  18.117  0.00  0.00    +0.000 NA
ATOM      3  N   UNL     1       3.903   7.270  17.374  0.00  0.00    +0.000 NA
ATOM      4  C   UNL     1       3.720   6.028  17.759  0.00  0.00    +0.000 A 
ATOM      5  N   UNL     1       2.744   5.978  18.758  0.00  0.00    +0.000 N 
ENDROOT
BRANCH   5   6
ATOM      6  C   UNL     1       2.241   4.857  19.487  0.00  0.00    +0.000 A 
ATOM      7  C   UNL     1       1.311   3.977  18.923  0.00  0.00    +0.000 A 
ATOM      8  C   UNL     1       0.867   2.864  19.644  0.00  0.00    +0.000 A 
ATOM      9  C   UNL     1       1.360   2.605  20.919  0.00  0.00    +0.000 A 
ATOM     10  C   UNL     1       2.290   3.472  21.490  0.00  0.00    +0.000 A 
ATOM     11  C   UNL     1       2.708   4.602  20.787  0.00  0.00    +0.000 A 
ENDBRANCH   5   6
BRANCH   1  12
ATOM     12  C   UNL     1       1.614   7.856  20.135  0.00  0.00    +0.000 C 
BRANCH  12  13
ATOM     13  O   UNL     1       1.061   9.126  19.802  0.00  0.00    +0.000 OA
BRANCH  13  20
ATOM     14  C   UNL     1       0.268  12.209  19.605  0.00  0.00    +0.000 C 
ATOM     15  C   UNL     1       0.006  11.232  20.715  0.00  0.00    +0.000 A 
ATOM     16  C   UNL     1      -0.672  11.764  21.841  0.00  0.00    +0.000 A 
ATOM     17  C   UNL     1      -0.963  10.993  22.964  0.00  0.00    +0.000 A 
ATOM     18  C   UNL     1      -0.570   9.665  22.990  0.00  0.00    +0.000 A 
ATOM     19  C   UNL     1       0.100   9.123  21.891  0.00  0.00    +0.000 A 
ATOM     20  C   UNL     1       0.396   9.881  20.739  0.00  0.00    +0.000 A 
ENDBRANCH  13  20
ENDBRANCH  12  13
ENDBRANCH   1  12
BRANCH   4  21
ATOM     21  S   UNL     1       4.475   4.644  16.999  0.00  0.00    +0.000 S 
BRANCH  21  22
ATOM     22  C   UNL     1       6.193   5.208  16.682  0.00  0.00    +0.000 C 
BRANCH  22  23
ATOM     23  C   UNL     1       6.870   4.338  15.590  0.00  0.00    +0.000 C 
BRANCH  23  24
ATOM     24  N   UNL     1       6.519   4.723  14.207  0.00  0.00    +0.000 NA
ATOM     25  C   UNL     1       5.726   3.715  13.497  0.00  0.00    +0.000 C 
ATOM     26  C   UNL     1       6.406   3.446  12.162  0.00  0.00    +0.000 C 
ATOM     27  C   UNL     1       7.363   4.602  11.973  0.00  0.00    +0.000 C 
ATOM     28  C   UNL     1       7.703   5.031  13.389  0.00  0.00    +0.000 C 
ENDBRANCH  23  24
ENDBRANCH  22  23
ENDBRANCH  21  22
ENDBRANCH   4  21
TORSDOF 8
ENDMDL
MODEL 5
REMARK VINA RESULT:      -7.7      1.759      4.803
REMARK  Name = 
REMARK  9 active torsions:
REMARK  status: ('A' for Active; 'I' for Inactive)
REMARK    1  A    between atoms: C_1  and  C_2
REMARK    2  A    between atoms: C_7  and  O_8
REMARK    3  A    between atoms: O_8  and  C_9
REMARK    4  A    between atoms: C_9  and  C_10
REMARK    5  A    between atoms: C_13  and  S_14
REMARK    6  A    between atoms: S_14  and  C_15
REMARK    7  A    between atoms: C_15  and  C_16
REMARK    8  A    between atoms: C_16  and  N_17
REMARK    9  A    between atoms: N_22  and  C_23
REMARK                            x       y       z     vdW  Elec       q    Type
REMARK                         _______ _______ _______ _____ _____    ______ ____
ROOT
ATOM      1  C   UNL     1       2.666   6.213  18.003  0.00  0.00    +0.000 A 
ATOM      2  N   UNL     1       1.592   5.507  17.695  0.00  0.00    +0.000 NA
ATOM      3  N   UNL     1       1.982   4.245  17.330  0.00  0.00    +0.000 NA
ATOM      4  C   UNL     1       3.292   4.177  17.418  0.00  0.00    +0.000 A 
ATOM      5  N   UNL     1       3.801   5.398  17.872  0.00  0.00    +0.000 N 
ENDROOT
BRANCH   5   6
ATOM      6  C   UNL     1       5.155   5.796  18.092  0.00  0.00    +0.000 A 
ATOM      7  C   UNL     1       5.884   5.327  19.190  0.00  0.00    +0.000 A 
ATOM      8  C   UNL     1       7.221   5.700  19.358  0.00  0.00    +0.000 A 
ATOM      9  C   UNL     1       7.850   6.521  18.426  0.00  0.00    +0.000 A 
ATOM     10  C   UNL     1       7.135   6.990  17.326  0.00  0.00    +0.000 A 
ATOM     11  C   UNL     1       5.791   6.648  17.174  0.00  0.00    +0.000 A 
ENDBRANCH   5   6
BRANCH   1  12
ATOM     12  C   UNL     1       2.680   7.712  18.164  0.00  0.00    +0.000 C 
BRANCH  12  13
ATOM     13  O   UNL     1       2.213   8.056  19.467  0.00  0.00    +0.000 OA
BRANCH  13  20
ATOM     14  C   UNL     1       0.970   9.068  22.223  0.00  0.00    +0.000 C 
ATOM     15  C   UNL     1       0.638   9.492  20.821  0.00  0.00    +0.000 A 
ATOM     16  C   UNL     1      -0.388  10.464  20.711  0.00  0.00    +0.000 A 
ATOM     17  C   UNL     1      -0.831  10.938  19.478  0.00  0.00    +0.000 A 
ATOM     18  C   UNL     1      -0.261  10.439  18.319  0.00  0.00    +0.000 A 
ATOM     19  C   UNL     1       0.751   9.479  18.408  0.00  0.00    +0.000 A 
ATOM     20  C   UNL     1       1.223   8.992  19.644  0.00  0.00    +0.000 A 
ENDBRANCH  13  20
ENDBRANCH  12  13
ENDBRANCH   1  12
BRANCH   4  21
ATOM     21  S   UNL     1       4.218   2.716  17.164  0.00  0.00    +0.000 S 
BRANCH  21  22
ATOM     22  C   UNL     1       3.706   1.631  18.553  0.00  0.00    +0.000 C 
BRANCH  22  23
ATOM     23  C   UNL     1       4.129   2.236  19.917  0.00  0.00    +0.000 C 
BRANCH  23  24
ATOM     24  N   UNL     1       2.996   2.633  20.780  0.00  0.00    +0.000 NA
ATOM     25  C   UNL     1       1.695   2.153  20.302  0.00  0.00    +0.000 C 
ATOM     26  C   UNL     1       0.751   3.346  20.257  0.00  0.00    +0.000 C 
ATOM     27  C   UNL     1       1.428   4.412  21.089  0.00  0.00    +0.000 C 
ATOM     28  C   UNL     1       2.907   4.090  20.960  0.00  0.00    +0.000 C 
ENDBRANCH  23  24
ENDBRANCH  22  23
ENDBRANCH  21  22
ENDBRANCH   4  21
TORSDOF 8
ENDMDL
MODEL 6
REMARK VINA RESULT:      -7.6      1.726      2.996
REMARK  Name = 
REMARK  9 active torsions:
REMARK  status: ('A' for Active; 'I' for Inactive)
REMARK    1  A    between atoms: C_1  and  C_2
REMARK    2  A    between atoms: C_7  and  O_8
REMARK    3  A    between atoms: O_8  and  C_9
REMARK    4  A    between atoms: C_9  and  C_10
REMARK    5  A    between atoms: C_13  and  S_14
REMARK    6  A    between atoms: S_14  and  C_15
REMARK    7  A    between atoms: C_15  and  C_16
REMARK    8  A    between atoms: C_16  and  N_17
REMARK    9  A    between atoms: N_22  and  C_23
REMARK                            x       y       z     vdW  Elec       q    Type
REMARK                         _______ _______ _______ _____ _____    ______ ____
ROOT
ATOM      1  C   UNL     1       3.103   7.174  17.764  0.00  0.00    +0.000 A 
ATOM      2  N   UNL     1       4.157   7.789  17.257  0.00  0.00    +0.000 NA
ATOM      3  N   UNL     1       5.254   6.980  17.407  0.00  0.00    +0.000 NA
ATOM      4  C   UNL     1       4.870   5.872  18.000  0.00  0.00    +0.000 A 
ATOM      5  N   UNL     1       3.493   5.912  18.236  0.00  0.00    +0.000 N 
ENDROOT
BRANCH   5   6
ATOM      6  C   UNL     1       2.649   4.953  18.875  0.00  0.00    +0.000 A 
ATOM      7  C   UNL     1       2.397   5.003  20.251  0.00  0.00    +0.000 A 
ATOM      8  C   UNL     1       1.533   4.076  20.843  0.00  0.00    +0.000 A 
ATOM      9  C   UNL     1       0.895   3.110  20.071  0.00  0.00    +0.000 A 
ATOM     10  C   UNL     1       1.134   3.054  18.699  0.00  0.00    +0.000 A 
ATOM     11  C   UNL     1       2.022   3.955  18.111  0.00  0.00    +0.000 A 
ENDBRANCH   5   6
BRANCH   1  12
ATOM     12  C   UNL     1       1.786   7.849  18.056  0.00  0.00    +0.000 C 
BRANCH  12  13
ATOM     13  O   UNL     1       1.879   8.568  19.283  0.00  0.00    +0.000 OA
BRANCH  13  20
ATOM     14  C   UNL     1       0.926   9.270  22.244  0.00  0.00    +0.000 C 
ATOM     15  C   UNL     1       0.446   9.830  20.936  0.00  0.00    +0.000 A 
ATOM     16  C   UNL     1      -0.591  10.792  21.035  0.00  0.00    +0.000 A 
ATOM     17  C   UNL     1      -1.165  11.382  19.911  0.00  0.00    +0.000 A 
ATOM     18  C   UNL     1      -0.716  11.015  18.653  0.00  0.00    +0.000 A 
ATOM     19  C   UNL     1       0.305  10.068  18.536  0.00  0.00    +0.000 A 
ATOM     20  C   UNL     1       0.907   9.464  19.659  0.00  0.00    +0.000 A 
ENDBRANCH  13  20
ENDBRANCH  12  13
ENDBRANCH   1  12
BRANCH   4  21
ATOM     21  S   UNL     1       5.915   4.498  18.284  0.00  0.00    +0.000 S 
BRANCH  21  22
ATOM     22  C   UNL     1       6.740   4.239  16.664  0.00  0.00    +0.000 C 
BRANCH  22  23
ATOM     23  C   UNL     1       5.710   3.847  15.572  0.00  0.00    +0.000 C 
BRANCH  23  24
ATOM     24  N   UNL     1       5.917   4.527  14.275  0.00  0.00    +0.000 NA
ATOM     25  C   UNL     1       5.657   3.671  13.113  0.00  0.00    +0.000 C 
ATOM     26  C   UNL     1       6.865   3.761  12.193  0.00  0.00    +0.000 C 
ATOM     27  C   UNL     1       7.625   4.980  12.665  0.00  0.00    +0.000 C 
ATOM     28  C   UNL     1       7.271   5.083  14.138  0.00  0.00    +0.000 C 
ENDBRANCH  23  24
ENDBRANCH  22  23
ENDBRANCH  21  22
ENDBRANCH   4  21
TORSDOF 8
ENDMDL
MODEL 7
REMARK VINA RESULT:      -7.6      1.712      2.871
REMARK  Name = 
REMARK  9 active torsions:
REMARK  status: ('A' for Active; 'I' for Inactive)
REMARK    1  A    between atoms: C_1  and  C_2
REMARK    2  A    between atoms: C_7  and  O_8
REMARK    3  A    between atoms: O_8  and  C_9
REMARK    4  A    between atoms: C_9  and  C_10
REMARK    5  A    between atoms: C_13  and  S_14
REMARK    6  A    between atoms: S_14  and  C_15
REMARK    7  A    between atoms: C_15  and  C_16
REMARK    8  A    between atoms: C_16  and  N_17
REMARK    9  A    between atoms: N_22  and  C_23
REMARK                            x       y       z     vdW  Elec       q    Type
REMARK                         _______ _______ _______ _____ _____    ______ ____
ROOT
ATOM      1  C   UNL     1       2.972   7.302  17.746  0.00  0.00    +0.000 A 
ATOM      2  N   UNL     1       4.038   7.913  17.259  0.00  0.00    +0.000 NA
ATOM      3  N   UNL     1       5.115   7.072  17.362  0.00  0.00    +0.000 NA
ATOM      4  C   UNL     1       4.708   5.947  17.907  0.00  0.00    +0.000 A 
ATOM      5  N   UNL     1       3.334   6.010  18.156  0.00  0.00    +0.000 N 
ENDROOT
BRANCH   5   6
ATOM      6  C   UNL     1       2.471   5.043  18.757  0.00  0.00    +0.000 A 
ATOM      7  C   UNL     1       1.855   4.043  17.996  0.00  0.00    +0.000 A 
ATOM      8  C   UNL     1       1.048   3.084  18.617  0.00  0.00    +0.000 A 
ATOM      9  C   UNL     1       0.867   3.097  19.996  0.00  0.00    +0.000 A 
ATOM     10  C   UNL     1       1.479   4.085  20.764  0.00  0.00    +0.000 A 
ATOM     11  C   UNL     1       2.256   5.064  20.144  0.00  0.00    +0.000 A 
ENDBRANCH   5   6
BRANCH   1  12
ATOM     12  C   UNL     1       1.674   7.994  18.079  0.00  0.00    +0.000 C 
BRANCH  12  13
ATOM     13  O   UNL     1       1.747   8.538  19.395  0.00  0.00    +0.000 OA
BRANCH  13  20
ATOM     14  C   UNL     1       0.899   9.189  22.399  0.00  0.00    +0.000 C 
ATOM     15  C   UNL     1       0.439   9.834  21.123  0.00  0.00    +0.000 A 
ATOM     16  C   UNL     1      -0.523  10.864  21.279  0.00  0.00    +0.000 A 
ATOM     17  C   UNL     1      -1.070  11.538  20.191  0.00  0.00    +0.000 A 
ATOM     18  C   UNL     1      -0.671  11.190  18.911  0.00  0.00    +0.000 A 
ATOM     19  C   UNL     1       0.275  10.176  18.737  0.00  0.00    +0.000 A 
ATOM     20  C   UNL     1       0.850   9.486  19.824  0.00  0.00    +0.000 A 
ENDBRANCH  13  20
ENDBRANCH  12  13
ENDBRANCH   1  12
BRANCH   4  21
ATOM     21  S   UNL     1       5.721   4.537  18.119  0.00  0.00    +0.000 S 
BRANCH  21  22
ATOM     22  C   UNL     1       5.917   3.884  16.414  0.00  0.00    +0.000 C 
BRANCH  22  23
ATOM     23  C   UNL     1       6.972   4.701  15.624  0.00  0.00    +0.000 C 
BRANCH  23  24
ATOM     24  N   UNL     1       6.603   4.964  14.216  0.00  0.00    +0.000 NA
ATOM     25  C   UNL     1       5.695   3.963  13.648  0.00  0.00    +0.000 C 
ATOM     26  C   UNL     1       6.295   3.488  12.333  0.00  0.00    +0.000 C 
ATOM     27  C   UNL     1       7.343   4.521  11.986  0.00  0.00    +0.000 C 
ATOM     28  C   UNL     1       7.776   5.069  13.335  0.00  0.00    +0.000 C 
ENDBRANCH  23  24
ENDBRANCH  22  23
ENDBRANCH  21  22
ENDBRANCH   4  21
TORSDOF 8
ENDMDL
MODEL 8
REMARK VINA RESULT:      -7.5      1.692      2.593
REMARK  Name = 
REMARK  9 active torsions:
REMARK  status: ('A' for Active; 'I' for Inactive)
REMARK    1  A    between atoms: C_1  and  C_2
REMARK    2  A    between atoms: C_7  and  O_8
REMARK    3  A    between atoms: O_8  and  C_9
REMARK    4  A    between atoms: C_9  and  C_10
REMARK    5  A    between atoms: C_13  and  S_14
REMARK    6  A    between atoms: S_14  and  C_15
REMARK    7  A    between atoms: C_15  and  C_16
REMARK    8  A    between atoms: C_16  and  N_17
REMARK    9  A    between atoms: N_22  and  C_23
REMARK                            x       y       z     vdW  Elec       q    Type
REMARK                         _______ _______ _______ _____ _____    ______ ____
ROOT
ATOM      1  C   UNL     1       2.907   7.288  17.730  0.00  0.00    +0.000 A 
ATOM      2  N   UNL     1       3.976   7.888  17.238  0.00  0.00    +0.000 NA
ATOM      3  N   UNL     1       5.046   7.036  17.338  0.00  0.00    +0.000 NA
ATOM      4  C   UNL     1       4.630   5.917  17.886  0.00  0.00    +0.000 A 
ATOM      5  N   UNL     1       3.258   5.993  18.140  0.00  0.00    +0.000 N 
ENDROOT
BRANCH   5   6
ATOM      6  C   UNL     1       2.387   5.035  18.745  0.00  0.00    +0.000 A 
ATOM      7  C   UNL     1       1.766   4.034  17.990  0.00  0.00    +0.000 A 
ATOM      8  C   UNL     1       0.952   3.084  18.614  0.00  0.00    +0.000 A 
ATOM      9  C   UNL     1       0.769   3.106  19.994  0.00  0.00    +0.000 A 
ATOM     10  C   UNL     1       1.387   4.095  20.757  0.00  0.00    +0.000 A 
ATOM     11  C   UNL     1       2.171   5.065  20.132  0.00  0.00    +0.000 A 
ENDBRANCH   5   6
BRANCH   1  12
ATOM     12  C   UNL     1       1.617   7.993  18.067  0.00  0.00    +0.000 C 
BRANCH  12  13
ATOM     13  O   UNL     1       1.893   9.135  18.873  0.00  0.00    +0.000 OA
BRANCH  13  20
ATOM     14  C   UNL     1      -0.377  11.372  18.780  0.00  0.00    +0.000 C 
ATOM     15  C   UNL     1       0.023  10.474  19.915  0.00  0.00    +0.000 A 
ATOM     16  C   UNL     1      -0.700  10.665  21.120  0.00  0.00    +0.000 A 
ATOM     17  C   UNL     1      -0.428   9.932  22.272  0.00  0.00    +0.000 A 
ATOM     18  C   UNL     1       0.587   8.990  22.248  0.00  0.00    +0.000 A 
ATOM     19  C   UNL     1       1.312   8.788  21.070  0.00  0.00    +0.000 A 
ATOM     20  C   UNL     1       1.048   9.511  19.888  0.00  0.00    +0.000 A 
ENDBRANCH  13  20
ENDBRANCH  12  13
ENDBRANCH   1  12
BRANCH   4  21
ATOM     21  S   UNL     1       5.630   4.497  18.096  0.00  0.00    +0.000 S 
BRANCH  21  22
ATOM     22  C   UNL     1       5.848   3.863  16.386  0.00  0.00    +0.000 C 
BRANCH  22  23
ATOM     23  C   UNL     1       6.923   4.680  15.624  0.00  0.00    +0.000 C 
BRANCH  23  24
ATOM     24  N   UNL     1       6.579   4.965  14.214  0.00  0.00    +0.000 NA
ATOM     25  C   UNL     1       5.722   3.946  13.599  0.00  0.00    +0.000 C 
ATOM     26  C   UNL     1       6.370   3.525  12.289  0.00  0.00    +0.000 C 
ATOM     27  C   UNL     1       7.389   4.603  11.993  0.00  0.00    +0.000 C 
ATOM     28  C   UNL     1       7.769   5.132  13.365  0.00  0.00    +0.000 C 
ENDBRANCH  23  24
ENDBRANCH  22  23
ENDBRANCH  21  22
ENDBRANCH   4  21
TORSDOF 8
ENDMDL
MODEL 9
REMARK VINA RESULT:      -7.5      0.745      1.447
REMARK  Name = 
REMARK  9 active torsions:
REMARK  status: ('A' for Active; 'I' for Inactive)
REMARK    1  A    between atoms: C_1  and  C_2
REMARK    2  A    between atoms: C_7  and  O_8
REMARK    3  A    between atoms: O_8  and  C_9
REMARK    4  A    between atoms: C_9  and  C_10
REMARK    5  A    between atoms: C_13  and  S_14
REMARK    6  A    between atoms: S_14  and  C_15
REMARK    7  A    between atoms: C_15  and  C_16
REMARK    8  A    between atoms: C_16  and  N_17
REMARK    9  A    between atoms: N_22  and  C_23
REMARK                            x       y       z     vdW  Elec       q    Type
REMARK                         _______ _______ _______ _____ _____    ______ ____
ROOT
ATOM      1  C   UNL     1       2.381   7.071  19.009  0.00  0.00    +0.000 A 
ATOM      2  N   UNL     1       2.947   7.758  18.033  0.00  0.00    +0.000 NA
ATOM      3  N   UNL     1       3.603   6.886  17.202  0.00  0.00    +0.000 NA
ATOM      4  C   UNL     1       3.434   5.669  17.667  0.00  0.00    +0.000 A 
ATOM      5  N   UNL     1       2.634   5.705  18.813  0.00  0.00    +0.000 N 
ENDROOT
BRANCH   5   6
ATOM      6  C   UNL     1       2.210   4.639  19.664  0.00  0.00    +0.000 A 
ATOM      7  C   UNL     1       2.823   4.404  20.900  0.00  0.00    +0.000 A 
ATOM      8  C   UNL     1       2.361   3.378  21.731  0.00  0.00    +0.000 A 
ATOM      9  C   UNL     1       1.274   2.597  21.353  0.00  0.00    +0.000 A 
ATOM     10  C   UNL     1       0.652   2.825  20.127  0.00  0.00    +0.000 A 
ATOM     11  C   UNL     1       1.133   3.824  19.280  0.00  0.00    +0.000 A 
ENDBRANCH   5   6
BRANCH   1  12
ATOM     12  C   UNL     1       1.827   7.686  20.270  0.00  0.00    +0.000 C 
BRANCH  12  13
ATOM     13  O   UNL     1       1.333   8.993  19.987  0.00  0.00    +0.000 OA
BRANCH  13  20
ATOM     14  C   UNL     1      -0.395  11.619  19.456  0.00  0.00    +0.000 C 
ATOM     15  C   UNL     1      -0.268  10.806  20.712  0.00  0.00    +0.000 A 
ATOM     16  C   UNL     1      -1.006  11.290  21.822  0.00  0.00    +0.000 A 
ATOM     17  C   UNL     1      -0.968  10.665  23.066  0.00  0.00    +0.000 A 
ATOM     18  C   UNL     1      -0.179   9.539  23.232  0.00  0.00    +0.000 A 
ATOM     19  C   UNL     1       0.557   9.048  22.149  0.00  0.00    +0.000 A 
ATOM     20  C   UNL     1       0.527   9.658  20.878  0.00  0.00    +0.000 A 
ENDBRANCH  13  20
ENDBRANCH  12  13
ENDBRANCH   1  12
BRANCH   4  21
ATOM     21  S   UNL     1       3.992   4.223  16.857  0.00  0.00    +0.000 S 
BRANCH  21  22
ATOM     22  C   UNL     1       5.710   4.641  16.361  0.00  0.00    +0.000 C 
BRANCH  22  23
ATOM     23  C   UNL     1       6.650   4.686  17.594  0.00  0.00    +0.000 C 
BRANCH  23  24
ATOM     24  N   UNL     1       6.773   6.025  18.210  0.00  0.00    +0.000 NA
ATOM     25  C   UNL     1       6.710   7.127  17.245  0.00  0.00    +0.000 C 
ATOM     26  C   UNL     1       7.912   8.026  17.491  0.00  0.00    +0.000 C 
ATOM     27  C   UNL     1       8.425   7.629  18.857  0.00  0.00    +0.000 C 
ATOM     28  C   UNL     1       8.009   6.174  18.993  0.00  0.00    +0.000 C 
ENDBRANCH  23  24
ENDBRANCH  22  23
ENDBRANCH  21  22
ENDBRANCH   4  21
TORSDOF 8
ENDMDL
