MODEL 1
REMARK VINA RESULT:      -8.3      0.000      0.000
REMARK  Name = 
REMARK  3 active torsions:
REMARK  status: ('A' for Active; 'I' for Inactive)
REMARK    1  A    between atoms: C_2  and  C_3
REMARK    2  A    between atoms: N_13  and  C_14
REMARK    3  A    between atoms: C_18  and  C_19
REMARK                            x       y       z     vdW  Elec       q    Type
REMARK                         _______ _______ _______ _____ _____    ______ ____
ROOT
ATOM      1  O   UNL     1       3.478   6.672  19.369  0.00  0.00    +0.000 OA
ATOM      2  C   UNL     1       3.371   5.571  18.833  0.00  0.00    +0.000 C 
ATOM      3  N   UNL     1       3.846   5.313  17.550  0.00  0.00    +0.000 N 
ATOM      4  C   UNL     1       4.440   6.408  16.764  0.00  0.00    +0.000 C 
ATOM      5  C   UNL     1       5.885   6.073  16.347  0.00  0.00    +0.000 C 
ATOM      6  N   UNL     1       5.939   4.756  15.683  0.00  0.00    +0.000 N 
ATOM      7  C   UNL     1       5.373   3.656  16.470  0.00  0.00    +0.000 C 
ATOM      8  C   UNL     1       3.938   3.998  16.900  0.00  0.00    +0.000 C 
ENDROOT
BRANCH   2   9
ATOM      9  C   UNL     1       2.777   4.486  19.642  0.00  0.00    +0.000 A 
ATOM     10  C   UNL     1       1.390   4.497  19.846  0.00  0.00    +0.000 A 
ATOM     11  C   UNL     1       0.788   3.522  20.645  0.00  0.00    +0.000 A 
ATOM     12  C   UNL     1       1.571   2.538  21.253  0.00  0.00    +0.000 A 
ATOM     13  C   UNL     1       2.946   2.503  21.027  0.00  0.00    +0.000 A 
ATOM     14  C   UNL     1       3.535   3.451  20.194  0.00  0.00    +0.000 A 
ATOM     15  F   UNL     1       4.853   3.364  19.971  0.00  0.00    +0.000 F 
ENDBRANCH   2   9
BRANCH   6  16
ATOM     16  C   UNL     1       6.410   4.559  14.403  0.00  0.00    +0.000 A 
ATOM     17  C   UNL     1       7.388   5.397  13.841  0.00  0.00    +0.000 A 
ATOM     18  C   UNL     1       7.864   5.220  12.539  0.00  0.00    +0.000 A 
ATOM     19  C   UNL     1       7.360   4.193  11.752  0.00  0.00    +0.000 A 
ATOM     20  C   UNL     1       6.386   3.332  12.269  0.00  0.00    +0.000 A 
ATOM     21  C   UNL     1       5.937   3.520  13.590  0.00  0.00    +0.000 A 
BRANCH  20  22
ATOM     22  C   UNL     1       5.805   2.216  11.440  0.00  0.00    +0.000 C 
ATOM     23  F   UNL     1       4.561   2.487  10.955  0.00  0.00    +0.000 F 
ATOM     24  F   UNL     1       6.572   1.915  10.357  0.00  0.00    +0.000 F 
ATOM     25  F   UNL     1       5.683   1.056  12.146  0.00  0.00    +0.000 F 
ENDBRANCH  20  22
ENDBRANCH   6  16
TORSDOF 3
ENDMDL
MODEL 2
REMARK VINA RESULT:      -8.3      1.046      1.288
REMARK  Name = 
REMARK  3 active torsions:
REMARK  status: ('A' for Active; 'I' for Inactive)
REMARK    1  A    between atoms: C_2  and  C_3
REMARK    2  A    between atoms: N_13  and  C_14
REMARK    3  A    between atoms: C_18  and  C_19
REMARK                            x       y       z     vdW  Elec       q    Type
REMARK                         _______ _______ _______ _____ _____    ______ ____
ROOT
ATOM      1  O   UNL     1       3.285   6.794  19.337  0.00  0.00    +0.000 OA
ATOM      2  C   UNL     1       3.147   5.708  18.778  0.00  0.00    +0.000 C 
ATOM      3  N   UNL     1       3.675   5.442  17.517  0.00  0.00    +0.000 N 
ATOM      4  C   UNL     1       4.368   6.514  16.781  0.00  0.00    +0.000 C 
ATOM      5  C   UNL     1       5.813   6.105  16.434  0.00  0.00    +0.000 C 
ATOM      6  N   UNL     1       5.830   4.797  15.752  0.00  0.00    +0.000 N 
ATOM      7  C   UNL     1       5.163   3.718  16.490  0.00  0.00    +0.000 C 
ATOM      8  C   UNL     1       3.729   4.134  16.850  0.00  0.00    +0.000 C 
ENDROOT
BRANCH   2   9
ATOM      9  C   UNL     1       2.453   4.647  19.536  0.00  0.00    +0.000 A 
ATOM     10  C   UNL     1       2.907   4.351  20.829  0.00  0.00    +0.000 A 
ATOM     11  C   UNL     1       2.316   3.321  21.565  0.00  0.00    +0.000 A 
ATOM     12  C   UNL     1       1.274   2.576  21.009  0.00  0.00    +0.000 A 
ATOM     13  C   UNL     1       0.796   2.887  19.737  0.00  0.00    +0.000 A 
ATOM     14  C   UNL     1       1.360   3.943  19.025  0.00  0.00    +0.000 A 
ATOM     15  F   UNL     1       0.850   4.236  17.820  0.00  0.00    +0.000 F 
ENDBRANCH   2   9
BRANCH   6  16
ATOM     16  C   UNL     1       6.356   4.592  14.495  0.00  0.00    +0.000 A 
ATOM     17  C   UNL     1       7.376   5.410  13.982  0.00  0.00    +0.000 A 
ATOM     18  C   UNL     1       7.909   5.225  12.703  0.00  0.00    +0.000 A 
ATOM     19  C   UNL     1       7.422   4.210  11.891  0.00  0.00    +0.000 A 
ATOM     20  C   UNL     1       6.408   3.369  12.360  0.00  0.00    +0.000 A 
ATOM     21  C   UNL     1       5.901   3.564  13.658  0.00  0.00    +0.000 A 
BRANCH  20  22
ATOM     22  C   UNL     1       5.844   2.266  11.501  0.00  0.00    +0.000 C 
ATOM     23  F   UNL     1       4.628   2.562  10.962  0.00  0.00    +0.000 F 
ATOM     24  F   UNL     1       6.653   1.953  10.453  0.00  0.00    +0.000 F 
ATOM     25  F   UNL     1       5.668   1.106  12.197  0.00  0.00    +0.000 F 
ENDBRANCH  20  22
ENDBRANCH   6  16
TORSDOF 3
ENDMDL
MODEL 3
REMARK VINA RESULT:      -8.0      5.583      8.681
REMARK  Name = 
REMARK  3 active torsions:
REMARK  status: ('A' for Active; 'I' for Inactive)
REMARK    1  A    between atoms: C_2  and  C_3
REMARK    2  A    between atoms: N_13  and  C_14
REMARK    3  A    between atoms: C_18  and  C_19
REMARK                            x       y       z     vdW  Elec       q    Type
REMARK                         _______ _______ _______ _____ _____    ______ ____
ROOT
ATOM      1  O   UNL     1       4.190   5.051  19.995  0.00  0.00    +0.000 OA
ATOM      2  C   UNL     1       3.921   5.611  18.935  0.00  0.00    +0.000 C 
ATOM      3  N   UNL     1       2.825   6.458  18.793  0.00  0.00    +0.000 N 
ATOM      4  C   UNL     1       1.903   6.647  19.926  0.00  0.00    +0.000 C 
ATOM      5  C   UNL     1       1.807   8.133  20.323  0.00  0.00    +0.000 C 
ATOM      6  N   UNL     1       1.490   8.963  19.144  0.00  0.00    +0.000 N 
ATOM      7  C   UNL     1       2.419   8.799  18.020  0.00  0.00    +0.000 C 
ATOM      8  C   UNL     1       2.527   7.315  17.637  0.00  0.00    +0.000 C 
ENDROOT
BRANCH   2   9
ATOM      9  C   UNL     1       4.861   5.411  17.812  0.00  0.00    +0.000 A 
ATOM     10  C   UNL     1       6.071   6.119  17.828  0.00  0.00    +0.000 A 
ATOM     11  C   UNL     1       6.969   6.003  16.764  0.00  0.00    +0.000 A 
ATOM     12  C   UNL     1       6.658   5.185  15.676  0.00  0.00    +0.000 A 
ATOM     13  C   UNL     1       5.472   4.452  15.671  0.00  0.00    +0.000 A 
ATOM     14  C   UNL     1       4.600   4.538  16.753  0.00  0.00    +0.000 A 
ATOM     15  F   UNL     1       3.488   3.792  16.729  0.00  0.00    +0.000 F 
ENDBRANCH   2   9
BRANCH   6  16
ATOM     16  C   UNL     1       0.383   9.777  19.052  0.00  0.00    +0.000 A 
ATOM     17  C   UNL     1       0.052  10.687  20.070  0.00  0.00    +0.000 A 
ATOM     18  C   UNL     1      -1.077  11.508  19.998  0.00  0.00    +0.000 A 
ATOM     19  C   UNL     1      -1.920  11.432  18.897  0.00  0.00    +0.000 A 
ATOM     20  C   UNL     1      -1.629  10.541  17.858  0.00  0.00    +0.000 A 
ATOM     21  C   UNL     1      -0.476   9.739  17.945  0.00  0.00    +0.000 A 
BRANCH  20  22
ATOM     22  C   UNL     1      -2.528  10.421  16.654  0.00  0.00    +0.000 C 
ATOM     23  F   UNL     1      -3.850  10.317  16.969  0.00  0.00    +0.000 F 
ATOM     24  F   UNL     1      -2.425  11.486  15.815  0.00  0.00    +0.000 F 
ATOM     25  F   UNL     1      -2.240   9.321  15.901  0.00  0.00    +0.000 F 
ENDBRANCH  20  22
ENDBRANCH   6  16
TORSDOF 3
ENDMDL
MODEL 4
REMARK VINA RESULT:      -7.9      0.747      1.084
REMARK  Name = 
REMARK  3 active torsions:
REMARK  status: ('A' for Active; 'I' for Inactive)
REMARK    1  A    between atoms: C_2  and  C_3
REMARK    2  A    between atoms: N_13  and  C_14
REMARK    3  A    between atoms: C_18  and  C_19
REMARK                            x       y       z     vdW  Elec       q    Type
REMARK                         _______ _______ _______ _____ _____    ______ ____
ROOT
ATOM      1  O   UNL     1       5.040   5.901  20.029  0.00  0.00    +0.000 OA
ATOM      2  C   UNL     1       4.384   5.225  19.240  0.00  0.00    +0.000 C 
ATOM      3  N   UNL     1       4.690   5.151  17.883  0.00  0.00    +0.000 N 
ATOM      4  C   UNL     1       5.795   5.962  17.344  0.00  0.00    +0.000 C 
ATOM      5  C   UNL     1       6.858   5.074  16.668  0.00  0.00    +0.000 C 
ATOM      6  N   UNL     1       6.229   4.179  15.677  0.00  0.00    +0.000 N 
ATOM      7  C   UNL     1       5.143   3.350  16.212  0.00  0.00    +0.000 C 
ATOM      8  C   UNL     1       4.093   4.234  16.901  0.00  0.00    +0.000 C 
ENDROOT
BRANCH   2   9
ATOM      9  C   UNL     1       3.283   4.416  19.802  0.00  0.00    +0.000 A 
ATOM     10  C   UNL     1       2.019   5.011  19.922  0.00  0.00    +0.000 A 
ATOM     11  C   UNL     1       0.959   4.304  20.495  0.00  0.00    +0.000 A 
ATOM     12  C   UNL     1       1.160   3.003  20.961  0.00  0.00    +0.000 A 
ATOM     13  C   UNL     1       2.405   2.395  20.814  0.00  0.00    +0.000 A 
ATOM     14  C   UNL     1       3.447   3.088  20.202  0.00  0.00    +0.000 A 
ATOM     15  F   UNL     1       4.619   2.458  20.047  0.00  0.00    +0.000 F 
ENDBRANCH   2   9
BRANCH   6  16
ATOM     16  C   UNL     1       6.562   4.156  14.341  0.00  0.00    +0.000 A 
ATOM     17  C   UNL     1       7.367   5.154  13.765  0.00  0.00    +0.000 A 
ATOM     18  C   UNL     1       7.701   5.152  12.408  0.00  0.00    +0.000 A 
ATOM     19  C   UNL     1       7.225   4.145  11.579  0.00  0.00    +0.000 A 
ATOM     20  C   UNL     1       6.421   3.129  12.108  0.00  0.00    +0.000 A 
ATOM     21  C   UNL     1       6.115   3.143  13.482  0.00  0.00    +0.000 A 
BRANCH  20  22
ATOM     22  C   UNL     1       5.875   2.028  11.236  0.00  0.00    +0.000 C 
ATOM     23  F   UNL     1       6.653   1.754  10.152  0.00  0.00    +0.000 F 
ATOM     24  F   UNL     1       5.734   0.852  11.904  0.00  0.00    +0.000 F 
ATOM     25  F   UNL     1       4.640   2.326  10.740  0.00  0.00    +0.000 F 
ENDBRANCH  20  22
ENDBRANCH   6  16
TORSDOF 3
ENDMDL
MODEL 5
REMARK VINA RESULT:      -7.6      1.188      1.618
REMARK  Name = 
REMARK  3 active torsions:
REMARK  status: ('A' for Active; 'I' for Inactive)
REMARK    1  A    between atoms: C_2  and  C_3
REMARK    2  A    between atoms: N_13  and  C_14
REMARK    3  A    between atoms: C_18  and  C_19
REMARK                            x       y       z     vdW  Elec       q    Type
REMARK                         _______ _______ _______ _____ _____    ______ ____
ROOT
ATOM      1  O   UNL     1       3.474   6.625  19.764  0.00  0.00    +0.000 OA
ATOM      2  C   UNL     1       3.364   5.516  19.246  0.00  0.00    +0.000 C 
ATOM      3  N   UNL     1       3.740   5.264  17.929  0.00  0.00    +0.000 N 
ATOM      4  C   UNL     1       4.226   6.372  17.090  0.00  0.00    +0.000 C 
ATOM      5  C   UNL     1       5.644   6.086  16.557  0.00  0.00    +0.000 C 
ATOM      6  N   UNL     1       5.691   4.766  15.899  0.00  0.00    +0.000 N 
ATOM      7  C   UNL     1       5.232   3.653  16.737  0.00  0.00    +0.000 C 
ATOM      8  C   UNL     1       3.826   3.948  17.282  0.00  0.00    +0.000 C 
ENDROOT
BRANCH   2   9
ATOM      9  C   UNL     1       2.878   4.418  20.108  0.00  0.00    +0.000 A 
ATOM     10  C   UNL     1       3.743   3.345  20.363  0.00  0.00    +0.000 A 
ATOM     11  C   UNL     1       3.311   2.260  21.129  0.00  0.00    +0.000 A 
ATOM     12  C   UNL     1       2.010   2.237  21.636  0.00  0.00    +0.000 A 
ATOM     13  C   UNL     1       1.156   3.317  21.413  0.00  0.00    +0.000 A 
ATOM     14  C   UNL     1       1.606   4.416  20.686  0.00  0.00    +0.000 A 
ATOM     15  F   UNL     1       0.770   5.451  20.523  0.00  0.00    +0.000 F 
ENDBRANCH   2   9
BRANCH   6  16
ATOM     16  C   UNL     1       6.061   4.574  14.585  0.00  0.00    +0.000 A 
ATOM     17  C   UNL     1       7.301   5.020  14.098  0.00  0.00    +0.000 A 
ATOM     18  C   UNL     1       7.685   4.847  12.765  0.00  0.00    +0.000 A 
ATOM     19  C   UNL     1       6.822   4.224  11.872  0.00  0.00    +0.000 A 
ATOM     20  C   UNL     1       5.578   3.763  12.313  0.00  0.00    +0.000 A 
ATOM     21  C   UNL     1       5.223   3.932  13.664  0.00  0.00    +0.000 A 
BRANCH  20  22
ATOM     22  C   UNL     1       4.610   3.096  11.369  0.00  0.00    +0.000 C 
ATOM     23  F   UNL     1       3.387   2.857  11.921  0.00  0.00    +0.000 F 
ATOM     24  F   UNL     1       4.378   3.833  10.249  0.00  0.00    +0.000 F 
ATOM     25  F   UNL     1       5.063   1.886  10.933  0.00  0.00    +0.000 F 
ENDBRANCH  20  22
ENDBRANCH   6  16
TORSDOF 3
ENDMDL
MODEL 6
REMARK VINA RESULT:      -7.6      5.664      8.819
REMARK  Name = 
REMARK  3 active torsions:
REMARK  status: ('A' for Active; 'I' for Inactive)
REMARK    1  A    between atoms: C_2  and  C_3
REMARK    2  A    between atoms: N_13  and  C_14
REMARK    3  A    between atoms: C_18  and  C_19
REMARK                            x       y       z     vdW  Elec       q    Type
REMARK                         _______ _______ _______ _____ _____    ______ ____
ROOT
ATOM      1  O   UNL     1       3.957   5.239  20.021  0.00  0.00    +0.000 OA
ATOM      2  C   UNL     1       3.748   5.775  18.935  0.00  0.00    +0.000 C 
ATOM      3  N   UNL     1       2.705   6.675  18.732  0.00  0.00    +0.000 N 
ATOM      4  C   UNL     1       1.766   6.954  19.831  0.00  0.00    +0.000 C 
ATOM      5  C   UNL     1       1.742   8.457  20.174  0.00  0.00    +0.000 C 
ATOM      6  N   UNL     1       1.504   9.260  18.959  0.00  0.00    +0.000 N 
ATOM      7  C   UNL     1       2.452   9.005  17.868  0.00  0.00    +0.000 C 
ATOM      8  C   UNL     1       2.487   7.505  17.539  0.00  0.00    +0.000 C 
ENDROOT
BRANCH   2   9
ATOM      9  C   UNL     1       4.706   5.483  17.848  0.00  0.00    +0.000 A 
ATOM     10  C   UNL     1       5.926   6.175  17.837  0.00  0.00    +0.000 A 
ATOM     11  C   UNL     1       6.841   5.971  16.802  0.00  0.00    +0.000 A 
ATOM     12  C   UNL     1       6.538   5.083  15.768  0.00  0.00    +0.000 A 
ATOM     13  C   UNL     1       5.342   4.368  15.791  0.00  0.00    +0.000 A 
ATOM     14  C   UNL     1       4.452   4.541  16.848  0.00  0.00    +0.000 A 
ATOM     15  F   UNL     1       3.329   3.811  16.855  0.00  0.00    +0.000 F 
ENDBRANCH   2   9
BRANCH   6  16
ATOM     16  C   UNL     1       0.446  10.129  18.807  0.00  0.00    +0.000 A 
ATOM     17  C   UNL     1       0.507  11.451  19.278  0.00  0.00    +0.000 A 
ATOM     18  C   UNL     1      -0.563  12.341  19.145  0.00  0.00    +0.000 A 
ATOM     19  C   UNL     1      -1.740  11.922  18.539  0.00  0.00    +0.000 A 
ATOM     20  C   UNL     1      -1.846  10.615  18.053  0.00  0.00    +0.000 A 
ATOM     21  C   UNL     1      -0.747   9.744  18.181  0.00  0.00    +0.000 A 
BRANCH  20  22
ATOM     22  C   UNL     1      -3.112  10.121  17.402  0.00  0.00    +0.000 C 
ATOM     23  F   UNL     1      -2.993   9.918  16.060  0.00  0.00    +0.000 F 
ATOM     24  F   UNL     1      -3.542   8.939  17.922  0.00  0.00    +0.000 F 
ATOM     25  F   UNL     1      -4.148  10.995  17.553  0.00  0.00    +0.000 F 
ENDBRANCH  20  22
ENDBRANCH   6  16
TORSDOF 3
ENDMDL
MODEL 7
REMARK VINA RESULT:      -7.6      1.224      1.733
REMARK  Name = 
REMARK  3 active torsions:
REMARK  status: ('A' for Active; 'I' for Inactive)
REMARK    1  A    between atoms: C_2  and  C_3
REMARK    2  A    between atoms: N_13  and  C_14
REMARK    3  A    between atoms: C_18  and  C_19
REMARK                            x       y       z     vdW  Elec       q    Type
REMARK                         _______ _______ _______ _____ _____    ______ ____
ROOT
ATOM      1  O   UNL     1       5.472   5.646  20.098  0.00  0.00    +0.000 OA
ATOM      2  C   UNL     1       4.686   5.176  19.278  0.00  0.00    +0.000 C 
ATOM      3  N   UNL     1       4.958   5.143  17.913  0.00  0.00    +0.000 N 
ATOM      4  C   UNL     1       6.200   5.752  17.407  0.00  0.00    +0.000 C 
ATOM      5  C   UNL     1       7.055   4.720  16.645  0.00  0.00    +0.000 C 
ATOM      6  N   UNL     1       6.248   4.046  15.609  0.00  0.00    +0.000 N 
ATOM      7  C   UNL     1       5.021   3.415  16.109  0.00  0.00    +0.000 C 
ATOM      8  C   UNL     1       4.179   4.441  16.884  0.00  0.00    +0.000 C 
ENDROOT
BRANCH   2   9
ATOM      9  C   UNL     1       3.448   4.568  19.809  0.00  0.00    +0.000 A 
ATOM     10  C   UNL     1       3.456   3.196  20.098  0.00  0.00    +0.000 A 
ATOM     11  C   UNL     1       2.296   2.566  20.552  0.00  0.00    +0.000 A 
ATOM     12  C   UNL     1       1.119   3.300  20.710  0.00  0.00    +0.000 A 
ATOM     13  C   UNL     1       1.113   4.671  20.457  0.00  0.00    +0.000 A 
ATOM     14  C   UNL     1       2.284   5.303  20.046  0.00  0.00    +0.000 A 
ATOM     15  F   UNL     1       2.250   6.628  19.846  0.00  0.00    +0.000 F 
ENDBRANCH   2   9
BRANCH   6  16
ATOM     16  C   UNL     1       6.558   4.054  14.266  0.00  0.00    +0.000 A 
ATOM     17  C   UNL     1       7.318   5.087  13.693  0.00  0.00    +0.000 A 
ATOM     18  C   UNL     1       7.628   5.118  12.330  0.00  0.00    +0.000 A 
ATOM     19  C   UNL     1       7.171   4.108  11.494  0.00  0.00    +0.000 A 
ATOM     20  C   UNL     1       6.411   3.058  12.020  0.00  0.00    +0.000 A 
ATOM     21  C   UNL     1       6.129   3.040  13.399  0.00  0.00    +0.000 A 
BRANCH  20  22
ATOM     22  C   UNL     1       5.886   1.953  11.141  0.00  0.00    +0.000 C 
ATOM     23  F   UNL     1       6.678   1.691  10.063  0.00  0.00    +0.000 F 
ATOM     24  F   UNL     1       5.753   0.773  11.805  0.00  0.00    +0.000 F 
ATOM     25  F   UNL     1       4.652   2.238  10.633  0.00  0.00    +0.000 F 
ENDBRANCH  20  22
ENDBRANCH   6  16
TORSDOF 3
ENDMDL
MODEL 8
REMARK VINA RESULT:      -7.6      5.432      8.489
REMARK  Name = 
REMARK  3 active torsions:
REMARK  status: ('A' for Active; 'I' for Inactive)
REMARK    1  A    between atoms: C_2  and  C_3
REMARK    2  A    between atoms: N_13  and  C_14
REMARK    3  A    between atoms: C_18  and  C_19
REMARK                            x       y       z     vdW  Elec       q    Type
REMARK                         _______ _______ _______ _____ _____    ______ ____
ROOT
ATOM      1  O   UNL     1       3.921   4.612  19.992  0.00  0.00    +0.000 OA
ATOM      2  C   UNL     1       3.828   5.237  18.938  0.00  0.00    +0.000 C 
ATOM      3  N   UNL     1       2.848   6.204  18.724  0.00  0.00    +0.000 N 
ATOM      4  C   UNL     1       1.834   6.449  19.764  0.00  0.00    +0.000 C 
ATOM      5  C   UNL     1       1.852   7.921  20.221  0.00  0.00    +0.000 C 
ATOM      6  N   UNL     1       1.753   8.824  19.058  0.00  0.00    +0.000 N 
ATOM      7  C   UNL     1       2.775   8.602  18.028  0.00  0.00    +0.000 C 
ATOM      8  C   UNL     1       2.768   7.130  17.587  0.00  0.00    +0.000 C 
ENDROOT
BRANCH   2   9
ATOM      9  C   UNL     1       4.858   4.978  17.910  0.00  0.00    +0.000 A 
ATOM     10  C   UNL     1       4.450   4.421  16.690  0.00  0.00    +0.000 A 
ATOM     11  C   UNL     1       5.393   4.110  15.708  0.00  0.00    +0.000 A 
ATOM     12  C   UNL     1       6.748   4.345  15.943  0.00  0.00    +0.000 A 
ATOM     13  C   UNL     1       7.157   4.930  17.141  0.00  0.00    +0.000 A 
ATOM     14  C   UNL     1       6.209   5.278  18.100  0.00  0.00    +0.000 A 
ATOM     15  F   UNL     1       6.635   5.871  19.223  0.00  0.00    +0.000 F 
ENDBRANCH   2   9
BRANCH   6  16
ATOM     16  C   UNL     1       0.752   9.757  18.891  0.00  0.00    +0.000 A 
ATOM     17  C   UNL     1       0.788  10.999  19.547  0.00  0.00    +0.000 A 
ATOM     18  C   UNL     1      -0.226  11.949  19.400  0.00  0.00    +0.000 A 
ATOM     19  C   UNL     1      -1.321  11.674  18.592  0.00  0.00    +0.000 A 
ATOM     20  C   UNL     1      -1.399  10.450  17.918  0.00  0.00    +0.000 A 
ATOM     21  C   UNL     1      -0.355   9.518  18.067  0.00  0.00    +0.000 A 
BRANCH  20  22
ATOM     22  C   UNL     1      -2.579  10.111  17.045  0.00  0.00    +0.000 C 
ATOM     23  F   UNL     1      -2.231   9.548  15.853  0.00  0.00    +0.000 F 
ATOM     24  F   UNL     1      -3.435   9.235  17.637  0.00  0.00    +0.000 F 
ATOM     25  F   UNL     1      -3.325  11.209  16.731  0.00  0.00    +0.000 F 
ENDBRANCH  20  22
ENDBRANCH   6  16
TORSDOF 3
ENDMDL
MODEL 9
REMARK VINA RESULT:      -7.4      4.859      7.120
REMARK  Name = 
REMARK  3 active torsions:
REMARK  status: ('A' for Active; 'I' for Inactive)
REMARK    1  A    between atoms: C_2  and  C_3
REMARK    2  A    between atoms: N_13  and  C_14
REMARK    3  A    between atoms: C_18  and  C_19
REMARK                            x       y       z     vdW  Elec       q    Type
REMARK                         _______ _______ _______ _____ _____    ______ ____
ROOT
ATOM      1  O   UNL     1      -0.273   9.012  21.457  0.00  0.00    +0.000 OA
ATOM      2  C   UNL     1       0.355   9.352  20.456  0.00  0.00    +0.000 C 
ATOM      3  N   UNL     1       1.436   8.624  19.967  0.00  0.00    +0.000 N 
ATOM      4  C   UNL     1       1.902   7.436  20.702  0.00  0.00    +0.000 C 
ATOM      5  C   UNL     1       1.861   6.179  19.811  0.00  0.00    +0.000 C 
ATOM      6  N   UNL     1       2.576   6.421  18.543  0.00  0.00    +0.000 N 
ATOM      7  C   UNL     1       2.101   7.589  17.792  0.00  0.00    +0.000 C 
ATOM      8  C   UNL     1       2.126   8.838  18.687  0.00  0.00    +0.000 C 
ENDROOT
BRANCH   2   9
ATOM      9  C   UNL     1      -0.132  10.545  19.732  0.00  0.00    +0.000 A 
ATOM     10  C   UNL     1      -1.203  10.386  18.840  0.00  0.00    +0.000 A 
ATOM     11  C   UNL     1      -1.665  11.473  18.095  0.00  0.00    +0.000 A 
ATOM     12  C   UNL     1      -1.054  12.721  18.229  0.00  0.00    +0.000 A 
ATOM     13  C   UNL     1      -0.011  12.893  19.139  0.00  0.00    +0.000 A 
ATOM     14  C   UNL     1       0.417  11.816  19.912  0.00  0.00    +0.000 A 
ATOM     15  F   UNL     1       1.397  12.027  20.801  0.00  0.00    +0.000 F 
ENDBRANCH   2   9
BRANCH   6  16
ATOM     16  C   UNL     1       3.650   5.675  18.110  0.00  0.00    +0.000 A 
ATOM     17  C   UNL     1       3.486   4.585  17.239  0.00  0.00    +0.000 A 
ATOM     18  C   UNL     1       4.563   3.808  16.804  0.00  0.00    +0.000 A 
ATOM     19  C   UNL     1       5.848   4.100  17.243  0.00  0.00    +0.000 A 
ATOM     20  C   UNL     1       6.060   5.176  18.111  0.00  0.00    +0.000 A 
ATOM     21  C   UNL     1       4.961   5.955  18.519  0.00  0.00    +0.000 A 
BRANCH  20  22
ATOM     22  C   UNL     1       7.438   5.513  18.620  0.00  0.00    +0.000 C 
ATOM     23  F   UNL     1       7.500   5.656  19.974  0.00  0.00    +0.000 F 
ATOM     24  F   UNL     1       8.360   4.565  18.301  0.00  0.00    +0.000 F 
ATOM     25  F   UNL     1       7.910   6.683  18.102  0.00  0.00    +0.000 F 
ENDBRANCH  20  22
ENDBRANCH   6  16
TORSDOF 3
ENDMDL
