MODEL 1
REMARK VINA RESULT:      -6.2      0.000      0.000
REMARK  Name = 
REMARK  6 active torsions:
REMARK  status: ('A' for Active; 'I' for Inactive)
REMARK    1  A    between atoms: C_2  and  C_3
REMARK    2  A    between atoms: C_3  and  N_4
REMARK    3  A    between atoms: N_4  and  C_5
REMARK    4  A    between atoms: C_5  and  N_7
REMARK    5  A    between atoms: N_7  and  N_8
REMARK    6  A    between atoms: C_9  and  C_11
REMARK                            x       y       z     vdW  Elec       q    Type
REMARK                         _______ _______ _______ _____ _____    ______ ____
ROOT
ATOM      1  N   UNL     1       6.980   4.254  18.105  0.00  0.00    +0.000 N 
ATOM      2  H   UNL     1       7.754   3.635  18.341  0.00  0.00    +0.000 HD
ENDROOT
BRANCH   1   3
ATOM      3  N   UNL     1       5.705   3.675  18.241  0.00  0.00    +0.000 N 
ATOM      4  C   UNL     1       4.733   4.313  18.992  0.00  0.00    +0.000 C 
ATOM      5  O   UNL     1       4.975   5.262  19.735  0.00  0.00    +0.000 OA
ATOM      6  H   UNL     1       5.432   2.973  17.558  0.00  0.00    +0.000 HD
BRANCH   4   7
ATOM      7  C   UNL     1       3.407   3.761  18.801  0.00  0.00    +0.000 A 
ATOM      8  C   UNL     1       2.311   4.245  18.114  0.00  0.00    +0.000 A 
ATOM      9  C   UNL     1       1.277   3.291  18.269  0.00  0.00    +0.000 A 
ATOM     10  C   UNL     1       1.806   2.274  19.028  0.00  0.00    +0.000 A 
ATOM     11  O   UNL     1       3.097   2.543  19.351  0.00  0.00    +0.000 OA
ENDBRANCH   4   7
ENDBRANCH   1   3
BRANCH   1  12
ATOM     12  C   UNL     1       7.194   5.154  17.102  0.00  0.00    +0.000 C 
ATOM     13  S   UNL     1       7.309   6.782  17.430  0.00  0.00    +0.000 S 
BRANCH  12  14
ATOM     14  N   UNL     1       7.332   4.703  15.824  0.00  0.00    +0.000 N 
ATOM     15  H   UNL     1       8.261   4.368  15.597  0.00  0.00    +0.000 HD
BRANCH  14  16
ATOM     16  C   UNL     1       6.501   5.100  14.704  0.00  0.00    +0.000 C 
BRANCH  16  18
ATOM     17  C   UNL     1       6.211   3.553  12.760  0.00  0.00    +0.000 C 
ATOM     18  C   UNL     1       5.977   3.869  14.039  0.00  0.00    +0.000 C 
ENDBRANCH  16  18
ENDBRANCH  14  16
ENDBRANCH  12  14
ENDBRANCH   1  12
TORSDOF 6
ENDMDL
MODEL 2
REMARK VINA RESULT:      -6.1      1.000      1.030
REMARK  Name = 
REMARK  6 active torsions:
REMARK  status: ('A' for Active; 'I' for Inactive)
REMARK    1  A    between atoms: C_2  and  C_3
REMARK    2  A    between atoms: C_3  and  N_4
REMARK    3  A    between atoms: N_4  and  C_5
REMARK    4  A    between atoms: C_5  and  N_7
REMARK    5  A    between atoms: N_7  and  N_8
REMARK    6  A    between atoms: C_9  and  C_11
REMARK                            x       y       z     vdW  Elec       q    Type
REMARK                         _______ _______ _______ _____ _____    ______ ____
ROOT
ATOM      1  N   UNL     1       6.484   4.082  18.590  0.00  0.00    +0.000 N 
ATOM      2  H   UNL     1       7.302   3.595  18.952  0.00  0.00    +0.000 HD
ENDROOT
BRANCH   1   3
ATOM      3  N   UNL     1       5.251   3.545  19.001  0.00  0.00    +0.000 N 
ATOM      4  C   UNL     1       4.227   4.388  19.398  0.00  0.00    +0.000 C 
ATOM      5  O   UNL     1       4.393   5.585  19.620  0.00  0.00    +0.000 OA
ATOM      6  H   UNL     1       5.037   2.591  18.721  0.00  0.00    +0.000 HD
BRANCH   4   7
ATOM      7  C   UNL     1       2.946   3.720  19.508  0.00  0.00    +0.000 A 
ATOM      8  C   UNL     1       1.980   3.444  18.561  0.00  0.00    +0.000 A 
ATOM      9  C   UNL     1       0.928   2.777  19.232  0.00  0.00    +0.000 A 
ATOM     10  C   UNL     1       1.318   2.672  20.546  0.00  0.00    +0.000 A 
ATOM     11  O   UNL     1       2.541   3.233  20.726  0.00  0.00    +0.000 OA
ENDBRANCH   4   7
ENDBRANCH   1   3
BRANCH   1  12
ATOM     12  C   UNL     1       6.587   4.614  17.336  0.00  0.00    +0.000 C 
ATOM     13  S   UNL     1       7.093   6.185  17.118  0.00  0.00    +0.000 S 
BRANCH  12  14
ATOM     14  N   UNL     1       6.289   3.836  16.259  0.00  0.00    +0.000 N 
ATOM     15  H   UNL     1       6.931   3.066  16.109  0.00  0.00    +0.000 HD
BRANCH  14  16
ATOM     16  C   UNL     1       5.520   4.264  15.106  0.00  0.00    +0.000 C 
BRANCH  16  18
ATOM     17  C   UNL     1       5.969   3.521  12.760  0.00  0.00    +0.000 C 
ATOM     18  C   UNL     1       6.370   4.122  13.887  0.00  0.00    +0.000 C 
ENDBRANCH  16  18
ENDBRANCH  14  16
ENDBRANCH  12  14
ENDBRANCH   1  12
TORSDOF 6
ENDMDL
MODEL 3
REMARK VINA RESULT:      -6.1      1.346      1.499
REMARK  Name = 
REMARK  6 active torsions:
REMARK  status: ('A' for Active; 'I' for Inactive)
REMARK    1  A    between atoms: C_2  and  C_3
REMARK    2  A    between atoms: C_3  and  N_4
REMARK    3  A    between atoms: N_4  and  C_5
REMARK    4  A    between atoms: C_5  and  N_7
REMARK    5  A    between atoms: N_7  and  N_8
REMARK    6  A    between atoms: C_9  and  C_11
REMARK                            x       y       z     vdW  Elec       q    Type
REMARK                         _______ _______ _______ _____ _____    ______ ____
ROOT
ATOM      1  N   UNL     1       6.581   4.046  18.545  0.00  0.00    +0.000 N 
ATOM      2  H   UNL     1       7.013   3.128  18.632  0.00  0.00    +0.000 HD
ENDROOT
BRANCH   1   3
ATOM      3  N   UNL     1       5.340   4.173  19.196  0.00  0.00    +0.000 N 
ATOM      4  C   UNL     1       4.242   3.468  18.735  0.00  0.00    +0.000 C 
ATOM      5  O   UNL     1       4.224   2.890  17.650  0.00  0.00    +0.000 OA
ATOM      6  H   UNL     1       5.342   4.534  20.147  0.00  0.00    +0.000 HD
BRANCH   4   7
ATOM      7  C   UNL     1       3.130   3.467  19.663  0.00  0.00    +0.000 A 
ATOM      8  C   UNL     1       1.961   4.202  19.682  0.00  0.00    +0.000 A 
ATOM      9  C   UNL     1       1.240   3.794  20.830  0.00  0.00    +0.000 A 
ATOM     10  C   UNL     1       2.003   2.825  21.437  0.00  0.00    +0.000 A 
ATOM     11  O   UNL     1       3.147   2.612  20.737  0.00  0.00    +0.000 OA
ENDBRANCH   4   7
ENDBRANCH   1   3
BRANCH   1  12
ATOM     12  C   UNL     1       6.783   4.716  17.373  0.00  0.00    +0.000 C 
ATOM     13  S   UNL     1       7.152   6.339  17.374  0.00  0.00    +0.000 S 
BRANCH  12  14
ATOM     14  N   UNL     1       6.700   4.034  16.197  0.00  0.00    +0.000 N 
ATOM     15  H   UNL     1       6.893   3.042  16.274  0.00  0.00    +0.000 HD
BRANCH  14  16
ATOM     16  C   UNL     1       6.859   4.619  14.879  0.00  0.00    +0.000 C 
BRANCH  16  18
ATOM     17  C   UNL     1       6.245   3.598  12.680  0.00  0.00    +0.000 C 
ATOM     18  C   UNL     1       5.927   3.931  13.936  0.00  0.00    +0.000 C 
ENDBRANCH  16  18
ENDBRANCH  14  16
ENDBRANCH  12  14
ENDBRANCH   1  12
TORSDOF 6
ENDMDL
MODEL 4
REMARK VINA RESULT:      -6.1      1.360      1.487
REMARK  Name = 
REMARK  6 active torsions:
REMARK  status: ('A' for Active; 'I' for Inactive)
REMARK    1  A    between atoms: C_2  and  C_3
REMARK    2  A    between atoms: C_3  and  N_4
REMARK    3  A    between atoms: N_4  and  C_5
REMARK    4  A    between atoms: C_5  and  N_7
REMARK    5  A    between atoms: N_7  and  N_8
REMARK    6  A    between atoms: C_9  and  C_11
REMARK                            x       y       z     vdW  Elec       q    Type
REMARK                         _______ _______ _______ _____ _____    ______ ____
ROOT
ATOM      1  N   UNL     1       6.547   4.109  18.663  0.00  0.00    +0.000 N 
ATOM      2  H   UNL     1       6.936   3.178  18.804  0.00  0.00    +0.000 HD
ENDROOT
BRANCH   1   3
ATOM      3  N   UNL     1       5.149   4.188  18.806  0.00  0.00    +0.000 N 
ATOM      4  C   UNL     1       4.478   3.244  19.563  0.00  0.00    +0.000 C 
ATOM      5  O   UNL     1       5.001   2.202  19.953  0.00  0.00    +0.000 OA
ATOM      6  H   UNL     1       4.706   5.081  18.608  0.00  0.00    +0.000 HD
BRANCH   4   7
ATOM      7  C   UNL     1       3.110   3.615  19.860  0.00  0.00    +0.000 A 
ATOM      8  C   UNL     1       2.582   4.747  20.450  0.00  0.00    +0.000 A 
ATOM      9  C   UNL     1       1.179   4.570  20.493  0.00  0.00    +0.000 A 
ATOM     10  C   UNL     1       0.929   3.347  19.915  0.00  0.00    +0.000 A 
ATOM     11  O   UNL     1       2.089   2.761  19.521  0.00  0.00    +0.000 OA
ENDBRANCH   4   7
ENDBRANCH   1   3
BRANCH   1  12
ATOM     12  C   UNL     1       7.162   4.901  17.736  0.00  0.00    +0.000 C 
ATOM     13  S   UNL     1       7.464   6.506  18.056  0.00  0.00    +0.000 S 
BRANCH  12  14
ATOM     14  N   UNL     1       7.545   4.356  16.548  0.00  0.00    +0.000 N 
ATOM     15  H   UNL     1       8.425   3.854  16.582  0.00  0.00    +0.000 HD
BRANCH  14  16
ATOM     16  C   UNL     1       7.121   4.820  15.241  0.00  0.00    +0.000 C 
BRANCH  16  18
ATOM     17  C   UNL     1       5.810   3.811  13.365  0.00  0.00    +0.000 C 
ATOM     18  C   UNL     1       6.221   3.791  14.639  0.00  0.00    +0.000 C 
ENDBRANCH  16  18
ENDBRANCH  14  16
ENDBRANCH  12  14
ENDBRANCH   1  12
TORSDOF 6
ENDMDL
MODEL 5
REMARK VINA RESULT:      -6.1      1.968      2.945
REMARK  Name = 
REMARK  6 active torsions:
REMARK  status: ('A' for Active; 'I' for Inactive)
REMARK    1  A    between atoms: C_2  and  C_3
REMARK    2  A    between atoms: C_3  and  N_4
REMARK    3  A    between atoms: N_4  and  C_5
REMARK    4  A    between atoms: C_5  and  N_7
REMARK    5  A    between atoms: N_7  and  N_8
REMARK    6  A    between atoms: C_9  and  C_11
REMARK                            x       y       z     vdW  Elec       q    Type
REMARK                         _______ _______ _______ _____ _____    ______ ____
ROOT
ATOM      1  N   UNL     1       6.085   3.909  16.801  0.00  0.00    +0.000 N 
ATOM      2  H   UNL     1       6.849   3.251  16.944  0.00  0.00    +0.000 HD
ENDROOT
BRANCH   1   3
ATOM      3  N   UNL     1       4.820   3.432  17.192  0.00  0.00    +0.000 N 
ATOM      4  C   UNL     1       4.476   3.403  18.532  0.00  0.00    +0.000 C 
ATOM      5  O   UNL     1       5.291   3.570  19.436  0.00  0.00    +0.000 OA
ATOM      6  H   UNL     1       4.090   3.401  16.484  0.00  0.00    +0.000 HD
BRANCH   4   7
ATOM      7  C   UNL     1       3.064   3.171  18.756  0.00  0.00    +0.000 A 
ATOM      8  C   UNL     1       2.187   2.271  18.182  0.00  0.00    +0.000 A 
ATOM      9  C   UNL     1       0.923   2.494  18.777  0.00  0.00    +0.000 A 
ATOM     10  C   UNL     1       1.103   3.508  19.689  0.00  0.00    +0.000 A 
ATOM     11  O   UNL     1       2.396   3.922  19.691  0.00  0.00    +0.000 OA
ENDBRANCH   4   7
ENDBRANCH   1   3
BRANCH   1  12
ATOM     12  C   UNL     1       6.174   4.732  15.715  0.00  0.00    +0.000 C 
ATOM     13  S   UNL     1       6.217   4.104  14.174  0.00  0.00    +0.000 S 
BRANCH  12  14
ATOM     14  N   UNL     1       6.209   6.080  15.907  0.00  0.00    +0.000 N 
ATOM     15  H   UNL     1       6.671   6.595  15.167  0.00  0.00    +0.000 HD
BRANCH  14  16
ATOM     16  C   UNL     1       6.123   6.743  17.194  0.00  0.00    +0.000 C 
BRANCH  16  18
ATOM     17  C   UNL     1       7.916   8.413  17.696  0.00  0.00    +0.000 C 
ATOM     18  C   UNL     1       7.498   7.144  17.616  0.00  0.00    +0.000 C 
ENDBRANCH  16  18
ENDBRANCH  14  16
ENDBRANCH  12  14
ENDBRANCH   1  12
TORSDOF 6
ENDMDL
MODEL 6
REMARK VINA RESULT:      -6.1      2.627      6.144
REMARK  Name = 
REMARK  6 active torsions:
REMARK  status: ('A' for Active; 'I' for Inactive)
REMARK    1  A    between atoms: C_2  and  C_3
REMARK    2  A    between atoms: C_3  and  N_4
REMARK    3  A    between atoms: N_4  and  C_5
REMARK    4  A    between atoms: C_5  and  N_7
REMARK    5  A    between atoms: N_7  and  N_8
REMARK    6  A    between atoms: C_9  and  C_11
REMARK                            x       y       z     vdW  Elec       q    Type
REMARK                         _______ _______ _______ _____ _____    ______ ____
ROOT
ATOM      1  N   UNL     1       6.270   3.939  18.067  0.00  0.00    +0.000 N 
ATOM      2  H   UNL     1       7.037   4.438  18.514  0.00  0.00    +0.000 HD
ENDROOT
BRANCH   1   3
ATOM      3  N   UNL     1       6.276   3.991  16.661  0.00  0.00    +0.000 N 
ATOM      4  C   UNL     1       6.825   5.084  16.013  0.00  0.00    +0.000 C 
ATOM      5  O   UNL     1       7.123   6.126  16.592  0.00  0.00    +0.000 OA
ATOM      6  H   UNL     1       6.156   3.116  16.157  0.00  0.00    +0.000 HD
BRANCH   4   7
ATOM      7  C   UNL     1       7.025   4.868  14.595  0.00  0.00    +0.000 A 
ATOM      8  C   UNL     1       6.377   4.037  13.701  0.00  0.00    +0.000 A 
ATOM      9  C   UNL     1       6.994   4.229  12.442  0.00  0.00    +0.000 A 
ATOM     10  C   UNL     1       7.973   5.175  12.636  0.00  0.00    +0.000 A 
ATOM     11  O   UNL     1       7.997   5.576  13.933  0.00  0.00    +0.000 OA
ENDBRANCH   4   7
ENDBRANCH   1   3
BRANCH   1  12
ATOM     12  C   UNL     1       5.072   3.933  18.723  0.00  0.00    +0.000 C 
ATOM     13  S   UNL     1       3.970   5.159  18.491  0.00  0.00    +0.000 S 
BRANCH  12  14
ATOM     14  N   UNL     1       4.779   2.898  19.558  0.00  0.00    +0.000 N 
ATOM     15  H   UNL     1       5.559   2.281  19.749  0.00  0.00    +0.000 HD
BRANCH  14  16
ATOM     16  C   UNL     1       3.455   2.343  19.767  0.00  0.00    +0.000 C 
BRANCH  16  18
ATOM     17  C   UNL     1       1.705   2.650  21.528  0.00  0.00    +0.000 C 
ATOM     18  C   UNL     1       2.976   2.752  21.121  0.00  0.00    +0.000 C 
ENDBRANCH  16  18
ENDBRANCH  14  16
ENDBRANCH  12  14
ENDBRANCH   1  12
TORSDOF 6
ENDMDL
MODEL 7
REMARK VINA RESULT:      -6.0      1.223      1.341
REMARK  Name = 
REMARK  6 active torsions:
REMARK  status: ('A' for Active; 'I' for Inactive)
REMARK    1  A    between atoms: C_2  and  C_3
REMARK    2  A    between atoms: C_3  and  N_4
REMARK    3  A    between atoms: N_4  and  C_5
REMARK    4  A    between atoms: C_5  and  N_7
REMARK    5  A    between atoms: N_7  and  N_8
REMARK    6  A    between atoms: C_9  and  C_11
REMARK                            x       y       z     vdW  Elec       q    Type
REMARK                         _______ _______ _______ _____ _____    ______ ____
ROOT
ATOM      1  N   UNL     1       6.123   3.943  17.662  0.00  0.00    +0.000 N 
ATOM      2  H   UNL     1       6.783   3.168  17.631  0.00  0.00    +0.000 HD
ENDROOT
BRANCH   1   3
ATOM      3  N   UNL     1       4.786   3.565  17.888  0.00  0.00    +0.000 N 
ATOM      4  C   UNL     1       4.402   3.090  19.130  0.00  0.00    +0.000 C 
ATOM      5  O   UNL     1       5.206   2.771  20.003  0.00  0.00    +0.000 OA
ATOM      6  H   UNL     1       4.082   3.922  17.246  0.00  0.00    +0.000 HD
BRANCH   4   7
ATOM      7  C   UNL     1       2.965   3.024  19.298  0.00  0.00    +0.000 A 
ATOM      8  C   UNL     1       2.144   3.495  20.304  0.00  0.00    +0.000 A 
ATOM      9  C   UNL     1       0.820   3.141  19.952  0.00  0.00    +0.000 A 
ATOM     10  C   UNL     1       0.907   2.486  18.746  0.00  0.00    +0.000 A 
ATOM     11  O   UNL     1       2.199   2.415  18.335  0.00  0.00    +0.000 OA
ENDBRANCH   4   7
ENDBRANCH   1   3
BRANCH   1  12
ATOM     12  C   UNL     1       6.380   5.006  16.845  0.00  0.00    +0.000 C 
ATOM     13  S   UNL     1       5.548   6.437  17.024  0.00  0.00    +0.000 S 
BRANCH  12  14
ATOM     14  N   UNL     1       7.344   4.890  15.891  0.00  0.00    +0.000 N 
ATOM     15  H   UNL     1       8.278   5.120  16.209  0.00  0.00    +0.000 HD
BRANCH  14  16
ATOM     16  C   UNL     1       7.117   4.969  14.460  0.00  0.00    +0.000 C 
BRANCH  16  18
ATOM     17  C   UNL     1       5.900   3.553  12.795  0.00  0.00    +0.000 C 
ATOM     18  C   UNL     1       6.191   3.866  14.063  0.00  0.00    +0.000 C 
ENDBRANCH  16  18
ENDBRANCH  14  16
ENDBRANCH  12  14
ENDBRANCH   1  12
TORSDOF 6
ENDMDL
MODEL 8
REMARK VINA RESULT:      -5.9      1.246      1.260
REMARK  Name = 
REMARK  6 active torsions:
REMARK  status: ('A' for Active; 'I' for Inactive)
REMARK    1  A    between atoms: C_2  and  C_3
REMARK    2  A    between atoms: C_3  and  N_4
REMARK    3  A    between atoms: N_4  and  C_5
REMARK    4  A    between atoms: C_5  and  N_7
REMARK    5  A    between atoms: N_7  and  N_8
REMARK    6  A    between atoms: C_9  and  C_11
REMARK                            x       y       z     vdW  Elec       q    Type
REMARK                         _______ _______ _______ _____ _____    ______ ____
ROOT
ATOM      1  N   UNL     1       6.253   3.974  16.917  0.00  0.00    +0.000 N 
ATOM      2  H   UNL     1       6.979   3.272  16.784  0.00  0.00    +0.000 HD
ENDROOT
BRANCH   1   3
ATOM      3  N   UNL     1       4.994   3.456  17.269  0.00  0.00    +0.000 N 
ATOM      4  C   UNL     1       4.613   3.408  18.599  0.00  0.00    +0.000 C 
ATOM      5  O   UNL     1       5.395   3.596  19.527  0.00  0.00    +0.000 OA
ATOM      6  H   UNL     1       4.286   3.407  16.541  0.00  0.00    +0.000 HD
BRANCH   4   7
ATOM      7  C   UNL     1       3.203   3.132  18.781  0.00  0.00    +0.000 A 
ATOM      8  C   UNL     1       2.227   2.747  17.881  0.00  0.00    +0.000 A 
ATOM      9  C   UNL     1       1.021   2.627  18.611  0.00  0.00    +0.000 A 
ATOM     10  C   UNL     1       1.332   2.930  19.916  0.00  0.00    +0.000 A 
ATOM     11  O   UNL     1       2.651   3.231  20.034  0.00  0.00    +0.000 OA
ENDBRANCH   4   7
ENDBRANCH   1   3
BRANCH   1  12
ATOM     12  C   UNL     1       6.313   5.082  16.121  0.00  0.00    +0.000 C 
ATOM     13  S   UNL     1       5.180   6.294  16.264  0.00  0.00    +0.000 S 
BRANCH  12  14
ATOM     14  N   UNL     1       7.326   5.196  15.218  0.00  0.00    +0.000 N 
ATOM     15  H   UNL     1       8.061   5.837  15.493  0.00  0.00    +0.000 HD
BRANCH  14  16
ATOM     16  C   UNL     1       7.215   4.916  13.799  0.00  0.00    +0.000 C 
BRANCH  16  18
ATOM     17  C   UNL     1       5.838   3.359  12.408  0.00  0.00    +0.000 C 
ATOM     18  C   UNL     1       6.189   3.849  13.603  0.00  0.00    +0.000 C 
ENDBRANCH  16  18
ENDBRANCH  14  16
ENDBRANCH  12  14
ENDBRANCH   1  12
TORSDOF 6
ENDMDL
MODEL 9
REMARK VINA RESULT:      -5.9      1.519      1.611
REMARK  Name = 
REMARK  6 active torsions:
REMARK  status: ('A' for Active; 'I' for Inactive)
REMARK    1  A    between atoms: C_2  and  C_3
REMARK    2  A    between atoms: C_3  and  N_4
REMARK    3  A    between atoms: N_4  and  C_5
REMARK    4  A    between atoms: C_5  and  N_7
REMARK    5  A    between atoms: N_7  and  N_8
REMARK    6  A    between atoms: C_9  and  C_11
REMARK                            x       y       z     vdW  Elec       q    Type
REMARK                         _______ _______ _______ _____ _____    ______ ____
ROOT
ATOM      1  N   UNL     1       6.289   3.809  18.579  0.00  0.00    +0.000 N 
ATOM      2  H   UNL     1       6.937   3.039  18.420  0.00  0.00    +0.000 HD
ENDROOT
BRANCH   1   3
ATOM      3  N   UNL     1       4.929   3.462  18.471  0.00  0.00    +0.000 N 
ATOM      4  C   UNL     1       4.315   2.751  19.488  0.00  0.00    +0.000 C 
ATOM      5  O   UNL     1       4.938   2.210  20.398  0.00  0.00    +0.000 OA
ATOM      6  H   UNL     1       4.362   3.985  17.809  0.00  0.00    +0.000 HD
BRANCH   4   7
ATOM      7  C   UNL     1       2.871   2.725  19.376  0.00  0.00    +0.000 A 
ATOM      8  C   UNL     1       2.041   2.135  18.443  0.00  0.00    +0.000 A 
ATOM      9  C   UNL     1       0.713   2.440  18.825  0.00  0.00    +0.000 A 
ATOM     10  C   UNL     1       0.808   3.186  19.976  0.00  0.00    +0.000 A 
ATOM     11  O   UNL     1       2.109   3.360  20.325  0.00  0.00    +0.000 OA
ENDBRANCH   4   7
ENDBRANCH   1   3
BRANCH   1  12
ATOM     12  C   UNL     1       6.689   5.047  18.167  0.00  0.00    +0.000 C 
ATOM     13  S   UNL     1       7.756   5.943  19.080  0.00  0.00    +0.000 S 
BRANCH  12  14
ATOM     14  N   UNL     1       6.219   5.538  16.987  0.00  0.00    +0.000 N 
ATOM     15  H   UNL     1       5.240   5.798  17.002  0.00  0.00    +0.000 HD
BRANCH  14  16
ATOM     16  C   UNL     1       6.790   5.263  15.682  0.00  0.00    +0.000 C 
BRANCH  16  18
ATOM     17  C   UNL     1       6.020   3.873  13.750  0.00  0.00    +0.000 C 
ATOM     18  C   UNL     1       5.749   4.608  14.835  0.00  0.00    +0.000 C 
ENDBRANCH  16  18
ENDBRANCH  14  16
ENDBRANCH  12  14
ENDBRANCH   1  12
TORSDOF 6
ENDMDL
