MODEL 1
REMARK VINA RESULT:      -6.2      0.000      0.000
REMARK  Name = 
REMARK  7 active torsions:
REMARK  status: ('A' for Active; 'I' for Inactive)
REMARK    1  A    between atoms: C_1  and  C_2
REMARK    2  A    between atoms: C_2  and  O_3
REMARK    3  A    between atoms: O_3  and  C_4
REMARK    4  A    between atoms: C_4  and  C_6
REMARK    5  A    between atoms: C_9  and  N_10
REMARK    6  A    between atoms: C_16  and  C_17
REMARK    7  A    between atoms: C_24  and  C_25
REMARK                            x       y       z     vdW  Elec       q    Type
REMARK                         _______ _______ _______ _____ _____    ______ ____
ROOT
ATOM      1  N   UNL     1      -0.618  10.731  19.708  0.00  0.00    +0.000 N 
ATOM      2  C   UNL     1      -1.866  10.773  19.060  0.00  0.00    +0.000 C 
ATOM      3  O   UNL     1      -2.344  10.007  18.242  0.00  0.00    +0.000 OA
ATOM      4  C   UNL     1      -2.469  11.935  19.590  0.00  0.00    +0.000 A 
ATOM      5  N   UNL     1      -3.603  12.628  19.443  0.00  0.00    +0.000 N 
ATOM      6  N   UNL     1      -3.560  13.789  20.140  0.00  0.00    +0.000 NA
ATOM      7  C   UNL     1      -2.348  13.805  20.748  0.00  0.00    +0.000 A 
ATOM      8  C   UNL     1      -1.661  12.611  20.455  0.00  0.00    +0.000 A 
ATOM      9  C   UNL     1      -0.369  11.893  20.626  0.00  0.00    +0.000 C 
ATOM     10  H   UNL     1      -4.422  12.417  18.882  0.00  0.00    +0.000 HD
ENDROOT
BRANCH   1  14
ATOM     11  C   UNL     1       2.366   7.983  18.608  0.00  0.00    +0.000 A 
ATOM     12  C   UNL     1       1.852   8.885  17.671  0.00  0.00    +0.000 A 
ATOM     13  C   UNL     1       0.850   9.782  18.038  0.00  0.00    +0.000 A 
ATOM     14  C   UNL     1       0.390   9.819  19.358  0.00  0.00    +0.000 A 
ATOM     15  C   UNL     1       0.925   8.952  20.311  0.00  0.00    +0.000 A 
ATOM     16  C   UNL     1       1.896   8.017  19.931  0.00  0.00    +0.000 A 
BRANCH  11  17
ATOM     17  C   UNL     1       3.328   6.961  18.123  0.00  0.00    +0.000 C 
ATOM     18  O   UNL     1       4.065   7.128  17.165  0.00  0.00    +0.000 OA
BRANCH  17  19
ATOM     19  O   UNL     1       3.145   5.799  18.795  0.00  0.00    +0.000 OA
BRANCH  19  21
ATOM     20  C   UNL     1       1.587   4.341  17.732  0.00  0.00    +0.000 C 
ATOM     21  C   UNL     1       3.059   4.628  17.976  0.00  0.00    +0.000 C 
ENDBRANCH  19  21
ENDBRANCH  17  19
ENDBRANCH  11  17
ENDBRANCH   1  14
BRANCH   7  22
ATOM     22  C   UNL     1      -1.902  14.976  21.505  0.00  0.00    +0.000 A 
ATOM     23  C   UNL     1      -2.346  15.218  22.809  0.00  0.00    +0.000 A 
ATOM     24  C   UNL     1      -1.889  16.335  23.517  0.00  0.00    +0.000 A 
ATOM     25  C   UNL     1      -0.984  17.218  22.928  0.00  0.00    +0.000 A 
ATOM     26  C   UNL     1      -0.536  16.990  21.634  0.00  0.00    +0.000 A 
ATOM     27  C   UNL     1      -0.991  15.876  20.926  0.00  0.00    +0.000 A 
ENDBRANCH   7  22
BRANCH   9  28
ATOM     28  C   UNL     1       0.821  12.694  20.161  0.00  0.00    +0.000 A 
ATOM     29  C   UNL     1       2.029  12.933  20.791  0.00  0.00    +0.000 A 
ATOM     30  C   UNL     1       2.904  13.749  20.016  0.00  0.00    +0.000 A 
ATOM     31  C   UNL     1       2.335  14.124  18.823  0.00  0.00    +0.000 A 
ATOM     32  S   UNL     1       0.769  13.471  18.623  0.00  0.00    +0.000 S 
ENDBRANCH   9  28
TORSDOF 6
ENDMDL
MODEL 2
REMARK VINA RESULT:      -6.0      0.656      1.184
REMARK  Name = 
REMARK  7 active torsions:
REMARK  status: ('A' for Active; 'I' for Inactive)
REMARK    1  A    between atoms: C_1  and  C_2
REMARK    2  A    between atoms: C_2  and  O_3
REMARK    3  A    between atoms: O_3  and  C_4
REMARK    4  A    between atoms: C_4  and  C_6
REMARK    5  A    between atoms: C_9  and  N_10
REMARK    6  A    between atoms: C_16  and  C_17
REMARK    7  A    between atoms: C_24  and  C_25
REMARK                            x       y       z     vdW  Elec       q    Type
REMARK                         _______ _______ _______ _____ _____    ______ ____
ROOT
ATOM      1  N   UNL     1      -0.539  10.853  19.702  0.00  0.00    +0.000 N 
ATOM      2  C   UNL     1      -1.837  10.858  19.159  0.00  0.00    +0.000 C 
ATOM      3  O   UNL     1      -2.387  10.035  18.449  0.00  0.00    +0.000 OA
ATOM      4  C   UNL     1      -2.386  12.068  19.640  0.00  0.00    +0.000 A 
ATOM      5  N   UNL     1      -3.523  12.761  19.533  0.00  0.00    +0.000 N 
ATOM      6  N   UNL     1      -3.415  13.974  20.126  0.00  0.00    +0.000 NA
ATOM      7  C   UNL     1      -2.155  14.024  20.627  0.00  0.00    +0.000 A 
ATOM      8  C   UNL     1      -1.504  12.800  20.377  0.00  0.00    +0.000 A 
ATOM      9  C   UNL     1      -0.206  12.081  20.497  0.00  0.00    +0.000 C 
ATOM     10  H   UNL     1      -4.388  12.516  19.061  0.00  0.00    +0.000 HD
ENDROOT
BRANCH   1  14
ATOM     11  C   UNL     1       2.326   7.988  18.582  0.00  0.00    +0.000 A 
ATOM     12  C   UNL     1       1.795   8.868  17.634  0.00  0.00    +0.000 A 
ATOM     13  C   UNL     1       0.832   9.805  18.008  0.00  0.00    +0.000 A 
ATOM     14  C   UNL     1       0.430   9.902  19.344  0.00  0.00    +0.000 A 
ATOM     15  C   UNL     1       0.983   9.056  20.306  0.00  0.00    +0.000 A 
ATOM     16  C   UNL     1       1.913   8.082  19.921  0.00  0.00    +0.000 A 
BRANCH  11  17
ATOM     17  C   UNL     1       3.240   6.924  18.096  0.00  0.00    +0.000 C 
ATOM     18  O   UNL     1       4.071   7.096  17.220  0.00  0.00    +0.000 OA
BRANCH  17  19
ATOM     19  O   UNL     1       2.903   5.736  18.653  0.00  0.00    +0.000 OA
BRANCH  19  21
ATOM     20  C   UNL     1       1.499   3.912  18.030  0.00  0.00    +0.000 C 
ATOM     21  C   UNL     1       2.800   4.641  17.736  0.00  0.00    +0.000 C 
ENDBRANCH  19  21
ENDBRANCH  17  19
ENDBRANCH  11  17
ENDBRANCH   1  14
BRANCH   7  22
ATOM     22  C   UNL     1      -1.640  15.246  21.246  0.00  0.00    +0.000 A 
ATOM     23  C   UNL     1      -0.639  16.010  20.637  0.00  0.00    +0.000 A 
ATOM     24  C   UNL     1      -0.179  17.185  21.241  0.00  0.00    +0.000 A 
ATOM     25  C   UNL     1      -0.714  17.605  22.459  0.00  0.00    +0.000 A 
ATOM     26  C   UNL     1      -1.707  16.856  23.074  0.00  0.00    +0.000 A 
ATOM     27  C   UNL     1      -2.168  15.683  22.472  0.00  0.00    +0.000 A 
ENDBRANCH   7  22
BRANCH   9  28
ATOM     28  C   UNL     1       0.945  12.827  19.870  0.00  0.00    +0.000 A 
ATOM     29  C   UNL     1       1.118  13.258  18.567  0.00  0.00    +0.000 A 
ATOM     30  C   UNL     1       2.356  13.934  18.367  0.00  0.00    +0.000 A 
ATOM     31  C   UNL     1       3.103  13.986  19.519  0.00  0.00    +0.000 A 
ATOM     32  S   UNL     1       2.304  13.254  20.839  0.00  0.00    +0.000 S 
ENDBRANCH   9  28
TORSDOF 6
ENDMDL
MODEL 3
REMARK VINA RESULT:      -6.0      0.556      1.042
REMARK  Name = 
REMARK  7 active torsions:
REMARK  status: ('A' for Active; 'I' for Inactive)
REMARK    1  A    between atoms: C_1  and  C_2
REMARK    2  A    between atoms: C_2  and  O_3
REMARK    3  A    between atoms: O_3  and  C_4
REMARK    4  A    between atoms: C_4  and  C_6
REMARK    5  A    between atoms: C_9  and  N_10
REMARK    6  A    between atoms: C_16  and  C_17
REMARK    7  A    between atoms: C_24  and  C_25
REMARK                            x       y       z     vdW  Elec       q    Type
REMARK                         _______ _______ _______ _____ _____    ______ ____
ROOT
ATOM      1  N   UNL     1      -0.662  10.958  19.814  0.00  0.00    +0.000 N 
ATOM      2  C   UNL     1      -1.946  11.073  19.252  0.00  0.00    +0.000 C 
ATOM      3  O   UNL     1      -2.517  10.345  18.459  0.00  0.00    +0.000 OA
ATOM      4  C   UNL     1      -2.451  12.257  19.834  0.00  0.00    +0.000 A 
ATOM      5  N   UNL     1      -3.554  13.009  19.772  0.00  0.00    +0.000 N 
ATOM      6  N   UNL     1      -3.404  14.156  20.477  0.00  0.00    +0.000 NA
ATOM      7  C   UNL     1      -2.155  14.101  21.002  0.00  0.00    +0.000 A 
ATOM      8  C   UNL     1      -1.553  12.877  20.650  0.00  0.00    +0.000 A 
ATOM      9  C   UNL     1      -0.291  12.091  20.725  0.00  0.00    +0.000 C 
ATOM     10  H   UNL     1      -4.419  12.849  19.265  0.00  0.00    +0.000 HD
ENDROOT
BRANCH   1  14
ATOM     11  C   UNL     1       2.169   8.105  18.581  0.00  0.00    +0.000 A 
ATOM     12  C   UNL     1       1.732   8.143  19.909  0.00  0.00    +0.000 A 
ATOM     13  C   UNL     1       0.806   9.103  20.315  0.00  0.00    +0.000 A 
ATOM     14  C   UNL     1       0.271  10.000  19.386  0.00  0.00    +0.000 A 
ATOM     15  C   UNL     1       0.669   9.945  18.050  0.00  0.00    +0.000 A 
ATOM     16  C   UNL     1       1.636   9.014  17.651  0.00  0.00    +0.000 A 
BRANCH  11  17
ATOM     17  C   UNL     1       3.258   7.155  18.241  0.00  0.00    +0.000 C 
ATOM     18  O   UNL     1       4.122   7.387  17.412  0.00  0.00    +0.000 OA
BRANCH  17  19
ATOM     19  O   UNL     1       3.048   5.970  18.864  0.00  0.00    +0.000 OA
BRANCH  19  21
ATOM     20  C   UNL     1       1.643   4.383  17.773  0.00  0.00    +0.000 C 
ATOM     21  C   UNL     1       3.078   4.820  18.012  0.00  0.00    +0.000 C 
ENDBRANCH  19  21
ENDBRANCH  17  19
ENDBRANCH  11  17
ENDBRANCH   1  14
BRANCH   7  22
ATOM     22  C   UNL     1      -1.599  15.236  21.740  0.00  0.00    +0.000 A 
ATOM     23  C   UNL     1      -0.801  15.053  22.875  0.00  0.00    +0.000 A 
ATOM     24  C   UNL     1      -0.267  16.156  23.550  0.00  0.00    +0.000 A 
ATOM     25  C   UNL     1      -0.524  17.450  23.097  0.00  0.00    +0.000 A 
ATOM     26  C   UNL     1      -1.315  17.646  21.973  0.00  0.00    +0.000 A 
ATOM     27  C   UNL     1      -1.849  16.546  21.298  0.00  0.00    +0.000 A 
ENDBRANCH   7  22
BRANCH   9  28
ATOM     28  C   UNL     1       0.905  12.837  20.190  0.00  0.00    +0.000 A 
ATOM     29  C   UNL     1       2.165  13.000  20.737  0.00  0.00    +0.000 A 
ATOM     30  C   UNL     1       3.028  13.783  19.915  0.00  0.00    +0.000 A 
ATOM     31  C   UNL     1       2.398  14.209  18.771  0.00  0.00    +0.000 A 
ATOM     32  S   UNL     1       0.789  13.644  18.672  0.00  0.00    +0.000 S 
ENDBRANCH   9  28
TORSDOF 6
ENDMDL
MODEL 4
REMARK VINA RESULT:      -5.9      0.730      1.444
REMARK  Name = 
REMARK  7 active torsions:
REMARK  status: ('A' for Active; 'I' for Inactive)
REMARK    1  A    between atoms: C_1  and  C_2
REMARK    2  A    between atoms: C_2  and  O_3
REMARK    3  A    between atoms: O_3  and  C_4
REMARK    4  A    between atoms: C_4  and  C_6
REMARK    5  A    between atoms: C_9  and  N_10
REMARK    6  A    between atoms: C_16  and  C_17
REMARK    7  A    between atoms: C_24  and  C_25
REMARK                            x       y       z     vdW  Elec       q    Type
REMARK                         _______ _______ _______ _____ _____    ______ ____
ROOT
ATOM      1  N   UNL     1      -0.590  10.727  19.729  0.00  0.00    +0.000 N 
ATOM      2  C   UNL     1      -1.841  10.770  19.086  0.00  0.00    +0.000 C 
ATOM      3  O   UNL     1      -2.333   9.991  18.289  0.00  0.00    +0.000 OA
ATOM      4  C   UNL     1      -2.425  11.954  19.590  0.00  0.00    +0.000 A 
ATOM      5  N   UNL     1      -3.549  12.658  19.431  0.00  0.00    +0.000 N 
ATOM      6  N   UNL     1      -3.487  13.836  20.099  0.00  0.00    +0.000 NA
ATOM      7  C   UNL     1      -2.271  13.850  20.700  0.00  0.00    +0.000 A 
ATOM      8  C   UNL     1      -1.603  12.639  20.434  0.00  0.00    +0.000 A 
ATOM      9  C   UNL     1      -0.320  11.908  20.615  0.00  0.00    +0.000 C 
ATOM     10  H   UNL     1      -4.375  12.445  18.880  0.00  0.00    +0.000 HD
ENDROOT
BRANCH   1  14
ATOM     11  C   UNL     1       2.351   7.912  18.681  0.00  0.00    +0.000 A 
ATOM     12  C   UNL     1       1.858   8.810  17.730  0.00  0.00    +0.000 A 
ATOM     13  C   UNL     1       0.870   9.730  18.079  0.00  0.00    +0.000 A 
ATOM     14  C   UNL     1       0.403   9.792  19.396  0.00  0.00    +0.000 A 
ATOM     15  C   UNL     1       0.917   8.929  20.363  0.00  0.00    +0.000 A 
ATOM     16  C   UNL     1       1.873   7.971  20.001  0.00  0.00    +0.000 A 
BRANCH  11  17
ATOM     17  C   UNL     1       3.296   6.867  18.215  0.00  0.00    +0.000 C 
ATOM     18  O   UNL     1       3.448   5.795  18.778  0.00  0.00    +0.000 OA
BRANCH  17  19
ATOM     19  O   UNL     1       4.049   7.346  17.197  0.00  0.00    +0.000 OA
BRANCH  19  21
ATOM     20  C   UNL     1       5.254   5.991  15.648  0.00  0.00    +0.000 C 
ATOM     21  C   UNL     1       5.303   6.682  17.000  0.00  0.00    +0.000 C 
ENDBRANCH  19  21
ENDBRANCH  17  19
ENDBRANCH  11  17
ENDBRANCH   1  14
BRANCH   7  22
ATOM     22  C   UNL     1      -1.805  15.033  21.425  0.00  0.00    +0.000 A 
ATOM     23  C   UNL     1      -0.798  15.858  20.913  0.00  0.00    +0.000 A 
ATOM     24  C   UNL     1      -0.385  16.993  21.619  0.00  0.00    +0.000 A 
ATOM     25  C   UNL     1      -0.975  17.314  22.841  0.00  0.00    +0.000 A 
ATOM     26  C   UNL     1      -1.976  16.504  23.361  0.00  0.00    +0.000 A 
ATOM     27  C   UNL     1      -2.390  15.371  22.658  0.00  0.00    +0.000 A 
ENDBRANCH   7  22
BRANCH   9  28
ATOM     28  C   UNL     1       0.878  12.680  20.125  0.00  0.00    +0.000 A 
ATOM     29  C   UNL     1       2.083  12.940  20.752  0.00  0.00    +0.000 A 
ATOM     30  C   UNL     1       2.969  13.715  19.949  0.00  0.00    +0.000 A 
ATOM     31  C   UNL     1       2.411  14.040  18.737  0.00  0.00    +0.000 A 
ATOM     32  S   UNL     1       0.843  13.389  18.554  0.00  0.00    +0.000 S 
ENDBRANCH   9  28
TORSDOF 6
ENDMDL
MODEL 5
REMARK VINA RESULT:      -5.9      0.819      1.365
REMARK  Name = 
REMARK  7 active torsions:
REMARK  status: ('A' for Active; 'I' for Inactive)
REMARK    1  A    between atoms: C_1  and  C_2
REMARK    2  A    between atoms: C_2  and  O_3
REMARK    3  A    between atoms: O_3  and  C_4
REMARK    4  A    between atoms: C_4  and  C_6
REMARK    5  A    between atoms: C_9  and  N_10
REMARK    6  A    between atoms: C_16  and  C_17
REMARK    7  A    between atoms: C_24  and  C_25
REMARK                            x       y       z     vdW  Elec       q    Type
REMARK                         _______ _______ _______ _____ _____    ______ ____
ROOT
ATOM      1  N   UNL     1      -0.594  10.744  19.720  0.00  0.00    +0.000 N 
ATOM      2  C   UNL     1      -1.864  10.827  19.120  0.00  0.00    +0.000 C 
ATOM      3  O   UNL     1      -2.391  10.086  18.309  0.00  0.00    +0.000 OA
ATOM      4  C   UNL     1      -2.416  11.996  19.688  0.00  0.00    +0.000 A 
ATOM      5  N   UNL     1      -3.536  12.719  19.594  0.00  0.00    +0.000 N 
ATOM      6  N   UNL     1      -3.438  13.868  20.304  0.00  0.00    +0.000 NA
ATOM      7  C   UNL     1      -2.204  13.845  20.866  0.00  0.00    +0.000 A 
ATOM      8  C   UNL     1      -1.560  12.638  20.531  0.00  0.00    +0.000 A 
ATOM      9  C   UNL     1      -0.280  11.885  20.642  0.00  0.00    +0.000 C 
ATOM     10  H   UNL     1      -4.381  12.537  19.061  0.00  0.00    +0.000 HD
ENDROOT
BRANCH   1  14
ATOM     11  C   UNL     1       2.347   7.970  18.567  0.00  0.00    +0.000 A 
ATOM     12  C   UNL     1       1.890   8.011  19.888  0.00  0.00    +0.000 A 
ATOM     13  C   UNL     1       0.927   8.946  20.268  0.00  0.00    +0.000 A 
ATOM     14  C   UNL     1       0.376   9.812  19.318  0.00  0.00    +0.000 A 
ATOM     15  C   UNL     1       0.795   9.752  17.989  0.00  0.00    +0.000 A 
ATOM     16  C   UNL     1       1.798   8.848  17.617  0.00  0.00    +0.000 A 
BRANCH  11  17
ATOM     17  C   UNL     1       3.471   7.052  18.257  0.00  0.00    +0.000 C 
ATOM     18  O   UNL     1       4.118   7.102  17.224  0.00  0.00    +0.000 OA
BRANCH  17  19
ATOM     19  O   UNL     1       3.552   6.085  19.202  0.00  0.00    +0.000 OA
BRANCH  19  21
ATOM     20  C   UNL     1       4.397   3.855  19.214  0.00  0.00    +0.000 C 
ATOM     21  C   UNL     1       4.768   5.328  19.197  0.00  0.00    +0.000 C 
ENDBRANCH  19  21
ENDBRANCH  17  19
ENDBRANCH  11  17
ENDBRANCH   1  14
BRANCH   7  22
ATOM     22  C   UNL     1      -1.700  14.993  21.622  0.00  0.00    +0.000 A 
ATOM     23  C   UNL     1      -1.850  16.302  21.153  0.00  0.00    +0.000 A 
ATOM     24  C   UNL     1      -1.375  17.382  21.906  0.00  0.00    +0.000 A 
ATOM     25  C   UNL     1      -0.748  17.163  23.132  0.00  0.00    +0.000 A 
ATOM     26  C   UNL     1      -0.592  15.868  23.608  0.00  0.00    +0.000 A 
ATOM     27  C   UNL     1      -1.065  14.789  22.859  0.00  0.00    +0.000 A 
ENDBRANCH   7  22
BRANCH   9  28
ATOM     28  C   UNL     1       0.911  12.663  20.144  0.00  0.00    +0.000 A 
ATOM     29  C   UNL     1       2.142  12.877  20.739  0.00  0.00    +0.000 A 
ATOM     30  C   UNL     1       3.011  13.675  19.940  0.00  0.00    +0.000 A 
ATOM     31  C   UNL     1       2.414  14.064  18.765  0.00  0.00    +0.000 A 
ATOM     32  S   UNL     1       0.830  13.443  18.610  0.00  0.00    +0.000 S 
ENDBRANCH   9  28
TORSDOF 6
ENDMDL
MODEL 6
REMARK VINA RESULT:      -5.8      4.790      8.432
REMARK  Name = 
REMARK  7 active torsions:
REMARK  status: ('A' for Active; 'I' for Inactive)
REMARK    1  A    between atoms: C_1  and  C_2
REMARK    2  A    between atoms: C_2  and  O_3
REMARK    3  A    between atoms: O_3  and  C_4
REMARK    4  A    between atoms: C_4  and  C_6
REMARK    5  A    between atoms: C_9  and  N_10
REMARK    6  A    between atoms: C_16  and  C_17
REMARK    7  A    between atoms: C_24  and  C_25
REMARK                            x       y       z     vdW  Elec       q    Type
REMARK                         _______ _______ _______ _____ _____    ______ ____
ROOT
ATOM      1  N   UNL     1      -3.895  14.068  21.972  0.00  0.00    +0.000 N 
ATOM      2  C   UNL     1      -5.102  13.427  22.306  0.00  0.00    +0.000 C 
ATOM      3  O   UNL     1      -5.778  13.519  23.316  0.00  0.00    +0.000 OA
ATOM      4  C   UNL     1      -5.372  12.630  21.172  0.00  0.00    +0.000 A 
ATOM      5  N   UNL     1      -6.289  11.747  20.767  0.00  0.00    +0.000 N 
ATOM      6  N   UNL     1      -5.933  11.175  19.592  0.00  0.00    +0.000 NA
ATOM      7  C   UNL     1      -4.746  11.740  19.256  0.00  0.00    +0.000 A 
ATOM      8  C   UNL     1      -4.399  12.707  20.220  0.00  0.00    +0.000 A 
ATOM      9  C   UNL     1      -3.334  13.657  20.642  0.00  0.00    +0.000 C 
ATOM     10  H   UNL     1      -7.147  11.449  21.223  0.00  0.00    +0.000 HD
ENDROOT
BRANCH   1  14
ATOM     11  C   UNL     1      -1.674  16.400  24.674  0.00  0.00    +0.000 A 
ATOM     12  C   UNL     1      -2.166  16.961  23.492  0.00  0.00    +0.000 A 
ATOM     13  C   UNL     1      -2.887  16.177  22.591  0.00  0.00    +0.000 A 
ATOM     14  C   UNL     1      -3.165  14.840  22.890  0.00  0.00    +0.000 A 
ATOM     15  C   UNL     1      -2.714  14.281  24.086  0.00  0.00    +0.000 A 
ATOM     16  C   UNL     1      -1.947  15.053  24.968  0.00  0.00    +0.000 A 
BRANCH  11  17
ATOM     17  C   UNL     1      -0.796  17.245  25.522  0.00  0.00    +0.000 C 
ATOM     18  O   UNL     1       0.121  17.918  25.084  0.00  0.00    +0.000 OA
BRANCH  17  19
ATOM     19  O   UNL     1      -1.071  17.028  26.831  0.00  0.00    +0.000 OA
BRANCH  19  21
ATOM     20  C   UNL     1       0.749  15.977  27.958  0.00  0.00    +0.000 C 
ATOM     21  C   UNL     1       0.012  17.286  27.732  0.00  0.00    +0.000 C 
ENDBRANCH  19  21
ENDBRANCH  17  19
ENDBRANCH  11  17
ENDBRANCH   1  14
BRANCH   7  22
ATOM     22  C   UNL     1      -3.997  11.276  18.087  0.00  0.00    +0.000 A 
ATOM     23  C   UNL     1      -2.756  10.644  18.215  0.00  0.00    +0.000 A 
ATOM     24  C   UNL     1      -2.070  10.194  17.082  0.00  0.00    +0.000 A 
ATOM     25  C   UNL     1      -2.619  10.372  15.812  0.00  0.00    +0.000 A 
ATOM     26  C   UNL     1      -3.849  10.998  15.671  0.00  0.00    +0.000 A 
ATOM     27  C   UNL     1      -4.536  11.448  16.801  0.00  0.00    +0.000 A 
ENDBRANCH   7  22
BRANCH   9  28
ATOM     28  C   UNL     1      -1.987  13.001  20.810  0.00  0.00    +0.000 A 
ATOM     29  C   UNL     1      -1.633  11.875  21.531  0.00  0.00    +0.000 A 
ATOM     30  C   UNL     1      -0.243  11.573  21.439  0.00  0.00    +0.000 A 
ATOM     31  C   UNL     1       0.429  12.487  20.664  0.00  0.00    +0.000 A 
ATOM     32  S   UNL     1      -0.611  13.681  20.026  0.00  0.00    +0.000 S 
ENDBRANCH   9  28
TORSDOF 6
ENDMDL
MODEL 7
REMARK VINA RESULT:      -5.8      3.223      8.277
REMARK  Name = 
REMARK  7 active torsions:
REMARK  status: ('A' for Active; 'I' for Inactive)
REMARK    1  A    between atoms: C_1  and  C_2
REMARK    2  A    between atoms: C_2  and  O_3
REMARK    3  A    between atoms: O_3  and  C_4
REMARK    4  A    between atoms: C_4  and  C_6
REMARK    5  A    between atoms: C_9  and  N_10
REMARK    6  A    between atoms: C_16  and  C_17
REMARK    7  A    between atoms: C_24  and  C_25
REMARK                            x       y       z     vdW  Elec       q    Type
REMARK                         _______ _______ _______ _____ _____    ______ ____
ROOT
ATOM      1  N   UNL     1      -1.818  12.538  21.662  0.00  0.00    +0.000 N 
ATOM      2  C   UNL     1      -1.756  11.913  22.920  0.00  0.00    +0.000 C 
ATOM      3  O   UNL     1      -2.197  12.281  23.994  0.00  0.00    +0.000 OA
ATOM      4  C   UNL     1      -1.051  10.718  22.655  0.00  0.00    +0.000 A 
ATOM      5  N   UNL     1      -0.591   9.659  23.329  0.00  0.00    +0.000 N 
ATOM      6  N   UNL     1       0.169   8.867  22.535  0.00  0.00    +0.000 NA
ATOM      7  C   UNL     1       0.169   9.463  21.317  0.00  0.00    +0.000 A 
ATOM      8  C   UNL     1      -0.646  10.611  21.358  0.00  0.00    +0.000 A 
ATOM      9  C   UNL     1      -1.107  11.788  20.573  0.00  0.00    +0.000 C 
ATOM     10  H   UNL     1      -0.708   9.414  24.307  0.00  0.00    +0.000 HD
ENDROOT
BRANCH   1  14
ATOM     11  C   UNL     1      -3.230  16.470  21.197  0.00  0.00    +0.000 A 
ATOM     12  C   UNL     1      -1.971  16.230  21.754  0.00  0.00    +0.000 A 
ATOM     13  C   UNL     1      -1.515  14.923  21.922  0.00  0.00    +0.000 A 
ATOM     14  C   UNL     1      -2.295  13.847  21.486  0.00  0.00    +0.000 A 
ATOM     15  C   UNL     1      -3.536  14.076  20.892  0.00  0.00    +0.000 A 
ATOM     16  C   UNL     1      -4.016  15.386  20.769  0.00  0.00    +0.000 A 
BRANCH  11  17
ATOM     17  C   UNL     1      -3.717  17.872  21.174  0.00  0.00    +0.000 C 
ATOM     18  O   UNL     1      -4.771  18.229  21.675  0.00  0.00    +0.000 OA
BRANCH  17  19
ATOM     19  O   UNL     1      -2.907  18.630  20.397  0.00  0.00    +0.000 OA
BRANCH  19  21
ATOM     20  C   UNL     1      -1.678  18.186  18.402  0.00  0.00    +0.000 C 
ATOM     21  C   UNL     1      -3.059  18.435  18.986  0.00  0.00    +0.000 C 
ENDBRANCH  19  21
ENDBRANCH  17  19
ENDBRANCH  11  17
ENDBRANCH   1  14
BRANCH   7  22
ATOM     22  C   UNL     1       0.990   8.941  20.224  0.00  0.00    +0.000 A 
ATOM     23  C   UNL     1       1.732   7.763  20.362  0.00  0.00    +0.000 A 
ATOM     24  C   UNL     1       2.493   7.276  19.294  0.00  0.00    +0.000 A 
ATOM     25  C   UNL     1       2.520   7.961  18.080  0.00  0.00    +0.000 A 
ATOM     26  C   UNL     1       1.789   9.132  17.929  0.00  0.00    +0.000 A 
ATOM     27  C   UNL     1       1.028   9.619  18.994  0.00  0.00    +0.000 A 
ENDBRANCH   7  22
BRANCH   9  28
ATOM     28  C   UNL     1       0.026  12.608  20.011  0.00  0.00    +0.000 A 
ATOM     29  C   UNL     1       1.256  12.917  20.565  0.00  0.00    +0.000 A 
ATOM     30  C   UNL     1       2.059  13.727  19.711  0.00  0.00    +0.000 A 
ATOM     31  C   UNL     1       1.415  14.028  18.535  0.00  0.00    +0.000 A 
ATOM     32  S   UNL     1      -0.134  13.314  18.447  0.00  0.00    +0.000 S 
ENDBRANCH   9  28
TORSDOF 6
ENDMDL
MODEL 8
REMARK VINA RESULT:      -5.8      4.642      8.278
REMARK  Name = 
REMARK  7 active torsions:
REMARK  status: ('A' for Active; 'I' for Inactive)
REMARK    1  A    between atoms: C_1  and  C_2
REMARK    2  A    between atoms: C_2  and  O_3
REMARK    3  A    between atoms: O_3  and  C_4
REMARK    4  A    between atoms: C_4  and  C_6
REMARK    5  A    between atoms: C_9  and  N_10
REMARK    6  A    between atoms: C_16  and  C_17
REMARK    7  A    between atoms: C_24  and  C_25
REMARK                            x       y       z     vdW  Elec       q    Type
REMARK                         _______ _______ _______ _____ _____    ______ ____
ROOT
ATOM      1  N   UNL     1      -3.542  14.100  21.810  0.00  0.00    +0.000 N 
ATOM      2  C   UNL     1      -4.753  13.517  22.225  0.00  0.00    +0.000 C 
ATOM      3  O   UNL     1      -5.366  13.656  23.268  0.00  0.00    +0.000 OA
ATOM      4  C   UNL     1      -5.120  12.711  21.124  0.00  0.00    +0.000 A 
ATOM      5  N   UNL     1      -6.094  11.859  20.790  0.00  0.00    +0.000 N 
ATOM      6  N   UNL     1      -5.829  11.251  19.609  0.00  0.00    +0.000 NA
ATOM      7  C   UNL     1      -4.641  11.759  19.196  0.00  0.00    +0.000 A 
ATOM      8  C   UNL     1      -4.200  12.728  20.118  0.00  0.00    +0.000 A 
ATOM      9  C   UNL     1      -3.075  13.641  20.459  0.00  0.00    +0.000 C 
ATOM     10  H   UNL     1      -6.935  11.607  21.300  0.00  0.00    +0.000 HD
ENDROOT
BRANCH   1  14
ATOM     11  C   UNL     1      -1.078  16.388  24.333  0.00  0.00    +0.000 A 
ATOM     12  C   UNL     1      -1.632  16.953  23.180  0.00  0.00    +0.000 A 
ATOM     13  C   UNL     1      -2.434  16.184  22.338  0.00  0.00    +0.000 A 
ATOM     14  C   UNL     1      -2.730  14.858  22.669  0.00  0.00    +0.000 A 
ATOM     15  C   UNL     1      -2.216  14.296  23.838  0.00  0.00    +0.000 A 
ATOM     16  C   UNL     1      -1.369  15.052  24.658  0.00  0.00    +0.000 A 
BRANCH  11  17
ATOM     17  C   UNL     1      -0.121  17.213  25.112  0.00  0.00    +0.000 C 
ATOM     18  O   UNL     1       0.015  18.415  24.958  0.00  0.00    +0.000 OA
BRANCH  17  19
ATOM     19  O   UNL     1       0.661  16.415  25.878  0.00  0.00    +0.000 OA
BRANCH  19  21
ATOM     20  C   UNL     1       0.095  17.099  28.091  0.00  0.00    +0.000 C 
ATOM     21  C   UNL     1       1.201  17.034  27.051  0.00  0.00    +0.000 C 
ENDBRANCH  19  21
ENDBRANCH  17  19
ENDBRANCH  11  17
ENDBRANCH   1  14
BRANCH   7  22
ATOM     22  C   UNL     1      -3.979  11.243  17.997  0.00  0.00    +0.000 A 
ATOM     23  C   UNL     1      -4.496  11.474  16.717  0.00  0.00    +0.000 A 
ATOM     24  C   UNL     1      -3.832  10.985  15.587  0.00  0.00    +0.000 A 
ATOM     25  C   UNL     1      -2.647  10.262  15.725  0.00  0.00    +0.000 A 
ATOM     26  C   UNL     1      -2.124  10.025  16.989  0.00  0.00    +0.000 A 
ATOM     27  C   UNL     1      -2.785  10.513  18.119  0.00  0.00    +0.000 A 
ENDBRANCH   7  22
BRANCH   9  28
ATOM     28  C   UNL     1      -1.749  12.932  20.565  0.00  0.00    +0.000 A 
ATOM     29  C   UNL     1      -1.410  11.784  21.259  0.00  0.00    +0.000 A 
ATOM     30  C   UNL     1      -0.037  11.431  21.107  0.00  0.00    +0.000 A 
ATOM     31  C   UNL     1       0.639  12.328  20.315  0.00  0.00    +0.000 A 
ATOM     32  S   UNL     1      -0.380  13.569  19.733  0.00  0.00    +0.000 S 
ENDBRANCH   9  28
TORSDOF 6
ENDMDL
MODEL 9
REMARK VINA RESULT:      -5.8      4.783      8.278
REMARK  Name = 
REMARK  7 active torsions:
REMARK  status: ('A' for Active; 'I' for Inactive)
REMARK    1  A    between atoms: C_1  and  C_2
REMARK    2  A    between atoms: C_2  and  O_3
REMARK    3  A    between atoms: O_3  and  C_4
REMARK    4  A    between atoms: C_4  and  C_6
REMARK    5  A    between atoms: C_9  and  N_10
REMARK    6  A    between atoms: C_16  and  C_17
REMARK    7  A    between atoms: C_24  and  C_25
REMARK                            x       y       z     vdW  Elec       q    Type
REMARK                         _______ _______ _______ _____ _____    ______ ____
ROOT
ATOM      1  N   UNL     1      -3.995  13.952  21.902  0.00  0.00    +0.000 N 
ATOM      2  C   UNL     1      -5.181  13.269  22.228  0.00  0.00    +0.000 C 
ATOM      3  O   UNL     1      -5.854  13.320  23.242  0.00  0.00    +0.000 OA
ATOM      4  C   UNL     1      -5.433  12.489  21.078  0.00  0.00    +0.000 A 
ATOM      5  N   UNL     1      -6.327  11.588  20.659  0.00  0.00    +0.000 N 
ATOM      6  N   UNL     1      -5.960  11.051  19.470  0.00  0.00    +0.000 NA
ATOM      7  C   UNL     1      -4.792  11.657  19.142  0.00  0.00    +0.000 A 
ATOM      8  C   UNL     1      -4.468  12.614  20.124  0.00  0.00    +0.000 A 
ATOM      9  C   UNL     1      -3.429  13.585  20.561  0.00  0.00    +0.000 C 
ATOM     10  H   UNL     1      -7.173  11.256  21.113  0.00  0.00    +0.000 HD
ENDROOT
BRANCH   1  14
ATOM     11  C   UNL     1      -1.830  16.292  24.643  0.00  0.00    +0.000 A 
ATOM     12  C   UNL     1      -2.369  16.868  23.489  0.00  0.00    +0.000 A 
ATOM     13  C   UNL     1      -3.071  16.083  22.575  0.00  0.00    +0.000 A 
ATOM     14  C   UNL     1      -3.283  14.726  22.833  0.00  0.00    +0.000 A 
ATOM     15  C   UNL     1      -2.785  14.148  24.002  0.00  0.00    +0.000 A 
ATOM     16  C   UNL     1      -2.037  14.925  24.895  0.00  0.00    +0.000 A 
BRANCH  11  17
ATOM     17  C   UNL     1      -0.975  17.147  25.504  0.00  0.00    +0.000 C 
ATOM     18  O   UNL     1      -1.306  18.252  25.899  0.00  0.00    +0.000 OA
BRANCH  17  19
ATOM     19  O   UNL     1       0.251  16.586  25.640  0.00  0.00    +0.000 OA
BRANCH  19  21
ATOM     20  C   UNL     1       1.667  17.248  23.840  0.00  0.00    +0.000 C 
ATOM     21  C   UNL     1       1.352  17.441  25.314  0.00  0.00    +0.000 C 
ENDBRANCH  19  21
ENDBRANCH  17  19
ENDBRANCH  11  17
ENDBRANCH   1  14
BRANCH   7  22
ATOM     22  C   UNL     1      -4.035  11.241  17.960  0.00  0.00    +0.000 A 
ATOM     23  C   UNL     1      -2.803  10.589  18.070  0.00  0.00    +0.000 A 
ATOM     24  C   UNL     1      -2.110  10.185  16.924  0.00  0.00    +0.000 A 
ATOM     25  C   UNL     1      -2.643  10.429  15.658  0.00  0.00    +0.000 A 
ATOM     26  C   UNL     1      -3.865  11.075  15.534  0.00  0.00    +0.000 A 
ATOM     27  C   UNL     1      -4.559  11.479  16.677  0.00  0.00    +0.000 A 
ENDBRANCH   7  22
BRANCH   9  28
ATOM     28  C   UNL     1      -2.063  12.966  20.709  0.00  0.00    +0.000 A 
ATOM     29  C   UNL     1      -1.678  11.817  21.377  0.00  0.00    +0.000 A 
ATOM     30  C   UNL     1      -0.278  11.566  21.284  0.00  0.00    +0.000 A 
ATOM     31  C   UNL     1       0.370  12.537  20.560  0.00  0.00    +0.000 A 
ATOM     32  S   UNL     1      -0.704  13.727  19.971  0.00  0.00    +0.000 S 
ENDBRANCH   9  28
TORSDOF 6
ENDMDL
