MODEL 1
REMARK VINA RESULT:      -8.7      0.000      0.000
REMARK  Name = 
REMARK  7 active torsions:
REMARK  status: ('A' for Active; 'I' for Inactive)
REMARK    1  A    between atoms: C_1  and  N_2
REMARK    2  A    between atoms: C_7  and  C_8
REMARK    3  A    between atoms: C_11  and  N_12
REMARK    4  A    between atoms: C_16  and  C_18
REMARK    5  A    between atoms: C_18  and  O_19
REMARK    6  A    between atoms: C_29  and  C_30
REMARK    7  A    between atoms: C_30  and  O_31
REMARK                            x       y       z     vdW  Elec       q    Type
REMARK                         _______ _______ _______ _____ _____    ______ ____
ROOT
ATOM      1  C   UNL     1       3.608   1.029  19.243  0.00  0.00    +0.000 C 
ATOM      2  N   UNL     1       3.051   2.321  19.602  0.00  0.00    +0.000 N 
ATOM      3  C   UNL     1       1.983   2.398  20.448  0.00  0.00    +0.000 A 
ATOM      4  N   UNL     1       1.498   3.502  20.902  0.00  0.00    +0.000 NA
ATOM      5  C   UNL     1       2.056   4.706  20.432  0.00  0.00    +0.000 A 
ATOM      6  C   UNL     1       1.390   5.866  20.793  0.00  0.00    +0.000 A 
ATOM      7  C   UNL     1       1.815   7.083  20.296  0.00  0.00    +0.000 A 
ATOM      8  N   UNL     1       2.830   7.148  19.389  0.00  0.00    +0.000 NA
ATOM      9  C   UNL     1       3.503   6.010  19.009  0.00  0.00    +0.000 A 
ATOM     10  N   UNL     1       4.357   6.121  17.918  0.00  0.00    +0.000 N 
ATOM     11  C   UNL     1       4.166   7.253  17.016  0.00  0.00    +0.000 C 
ATOM     12  C   UNL     1       5.151   6.907  15.906  0.00  0.00    +0.000 C 
ATOM     13  C   UNL     1       6.365   6.362  16.670  0.00  0.00    +0.000 C 
ATOM     14  C   UNL     1       5.804   5.905  18.034  0.00  0.00    +0.000 C 
ATOM     15  C   UNL     1       3.154   4.766  19.571  0.00  0.00    +0.000 A 
ATOM     16  C   UNL     1       3.776   3.450  19.267  0.00  0.00    +0.000 A 
ATOM     17  O   UNL     1       4.919   3.327  18.832  0.00  0.00    +0.000 OA
ENDROOT
BRANCH   7  18
ATOM     18  C   UNL     1       1.109   8.334  20.673  0.00  0.00    +0.000 A 
ATOM     19  C   UNL     1       0.546   8.510  21.955  0.00  0.00    +0.000 A 
ATOM     20  C   UNL     1      -0.222   9.639  22.291  0.00  0.00    +0.000 A 
ATOM     21  C   UNL     1      -0.467  10.651  21.365  0.00  0.00    +0.000 A 
ATOM     22  C   UNL     1       0.134  10.505  20.104  0.00  0.00    +0.000 A 
ATOM     23  C   UNL     1       0.910   9.378  19.765  0.00  0.00    +0.000 A 
BRANCH  21  24
ATOM     24  N   UNL     1      -1.222  11.772  21.654  0.00  0.00    +0.000 N 
ATOM     25  C   UNL     1      -1.624  12.756  20.633  0.00  0.00    +0.000 C 
ATOM     26  C   UNL     1      -3.055  13.245  20.953  0.00  0.00    +0.000 C 
ATOM     27  N   UNL     1      -3.174  13.721  22.341  0.00  0.00    +0.000 N 
ATOM     28  C   UNL     1      -3.779  14.937  22.603  0.00  0.00    +0.000 C 
ATOM     29  O   UNL     1      -4.191  15.684  21.712  0.00  0.00    +0.000 OA
ATOM     30  C   UNL     1      -2.682  12.774  23.356  0.00  0.00    +0.000 C 
ATOM     31  C   UNL     1      -1.253  12.298  23.031  0.00  0.00    +0.000 C 
BRANCH  28  32
ATOM     32  C   UNL     1      -3.880  15.380  24.068  0.00  0.00    +0.000 C 
BRANCH  32  33
ATOM     33  O   UNL     1      -5.217  15.624  24.481  0.00  0.00    +0.000 OA
ATOM     34  H   UNL     1      -5.429  16.528  24.174  0.00  0.00    +0.000 HD
ENDBRANCH  32  33
ENDBRANCH  28  32
ENDBRANCH  21  24
ENDBRANCH   7  18
BRANCH  13  35
ATOM     35  C   UNL     1       7.057   5.225  15.914  0.00  0.00    +0.000 C 
BRANCH  35  36
ATOM     36  O   UNL     1       7.875   4.460  16.792  0.00  0.00    +0.000 OA
ATOM     37  H   UNL     1       7.957   3.565  16.423  0.00  0.00    +0.000 HD
ENDBRANCH  35  36
ENDBRANCH  13  35
TORSDOF 6
ENDMDL
MODEL 2
REMARK VINA RESULT:      -8.6      0.777      1.132
REMARK  Name = 
REMARK  7 active torsions:
REMARK  status: ('A' for Active; 'I' for Inactive)
REMARK    1  A    between atoms: C_1  and  N_2
REMARK    2  A    between atoms: C_7  and  C_8
REMARK    3  A    between atoms: C_11  and  N_12
REMARK    4  A    between atoms: C_16  and  C_18
REMARK    5  A    between atoms: C_18  and  O_19
REMARK    6  A    between atoms: C_29  and  C_30
REMARK    7  A    between atoms: C_30  and  O_31
REMARK                            x       y       z     vdW  Elec       q    Type
REMARK                         _______ _______ _______ _____ _____    ______ ____
ROOT
ATOM      1  C   UNL     1       3.729   0.967  19.305  0.00  0.00    +0.000 C 
ATOM      2  N   UNL     1       3.133   2.240  19.669  0.00  0.00    +0.000 N 
ATOM      3  C   UNL     1       2.049   2.280  20.498  0.00  0.00    +0.000 A 
ATOM      4  N   UNL     1       1.528   3.365  20.955  0.00  0.00    +0.000 NA
ATOM      5  C   UNL     1       2.063   4.589  20.508  0.00  0.00    +0.000 A 
ATOM      6  C   UNL     1       1.360   5.727  20.869  0.00  0.00    +0.000 A 
ATOM      7  C   UNL     1       1.761   6.960  20.393  0.00  0.00    +0.000 A 
ATOM      8  N   UNL     1       2.789   7.062  19.504  0.00  0.00    +0.000 NA
ATOM      9  C   UNL     1       3.498   5.946  19.123  0.00  0.00    +0.000 A 
ATOM     10  N   UNL     1       4.367   6.091  18.048  0.00  0.00    +0.000 N 
ATOM     11  C   UNL     1       4.160   7.228  17.154  0.00  0.00    +0.000 C 
ATOM     12  C   UNL     1       5.172   6.920  16.058  0.00  0.00    +0.000 C 
ATOM     13  C   UNL     1       6.387   6.398  16.835  0.00  0.00    +0.000 C 
ATOM     14  C   UNL     1       5.817   5.912  18.185  0.00  0.00    +0.000 C 
ATOM     15  C   UNL     1       3.172   4.687  19.666  0.00  0.00    +0.000 A 
ATOM     16  C   UNL     1       3.834   3.391  19.357  0.00  0.00    +0.000 A 
ATOM     17  O   UNL     1       4.986   3.303  18.940  0.00  0.00    +0.000 OA
ENDROOT
BRANCH   7  18
ATOM     18  C   UNL     1       1.017   8.188  20.772  0.00  0.00    +0.000 A 
ATOM     19  C   UNL     1       1.075   9.361  19.989  0.00  0.00    +0.000 A 
ATOM     20  C   UNL     1       0.470  10.565  20.390  0.00  0.00    +0.000 A 
ATOM     21  C   UNL     1      -0.227  10.660  21.594  0.00  0.00    +0.000 A 
ATOM     22  C   UNL     1      -0.332   9.481  22.352  0.00  0.00    +0.000 A 
ATOM     23  C   UNL     1       0.269   8.272  21.950  0.00  0.00    +0.000 A 
BRANCH  21  24
ATOM     24  N   UNL     1      -0.830  11.826  22.027  0.00  0.00    +0.000 N 
ATOM     25  C   UNL     1      -0.208  13.154  21.879  0.00  0.00    +0.000 C 
ATOM     26  C   UNL     1      -1.313  14.183  21.546  0.00  0.00    +0.000 C 
ATOM     27  N   UNL     1      -2.421  14.131  22.515  0.00  0.00    +0.000 N 
ATOM     28  C   UNL     1      -2.899  15.299  23.078  0.00  0.00    +0.000 C 
ATOM     29  O   UNL     1      -2.405  16.405  22.844  0.00  0.00    +0.000 OA
ATOM     30  C   UNL     1      -2.977  12.785  22.735  0.00  0.00    +0.000 C 
ATOM     31  C   UNL     1      -1.868  11.769  23.071  0.00  0.00    +0.000 C 
BRANCH  28  32
ATOM     32  C   UNL     1      -4.057  15.186  24.078  0.00  0.00    +0.000 C 
BRANCH  32  33
ATOM     33  O   UNL     1      -3.616  15.003  25.416  0.00  0.00    +0.000 OA
ATOM     34  H   UNL     1      -4.094  14.217  25.748  0.00  0.00    +0.000 HD
ENDBRANCH  32  33
ENDBRANCH  28  32
ENDBRANCH  21  24
ENDBRANCH   7  18
BRANCH  13  35
ATOM     35  C   UNL     1       7.121   5.289  16.079  0.00  0.00    +0.000 C 
BRANCH  35  36
ATOM     36  O   UNL     1       6.742   4.007  16.570  0.00  0.00    +0.000 OA
ATOM     37  H   UNL     1       7.447   3.691  17.159  0.00  0.00    +0.000 HD
ENDBRANCH  35  36
ENDBRANCH  13  35
TORSDOF 6
ENDMDL
MODEL 3
REMARK VINA RESULT:      -8.5      0.785      1.396
REMARK  Name = 
REMARK  7 active torsions:
REMARK  status: ('A' for Active; 'I' for Inactive)
REMARK    1  A    between atoms: C_1  and  N_2
REMARK    2  A    between atoms: C_7  and  C_8
REMARK    3  A    between atoms: C_11  and  N_12
REMARK    4  A    between atoms: C_16  and  C_18
REMARK    5  A    between atoms: C_18  and  O_19
REMARK    6  A    between atoms: C_29  and  C_30
REMARK    7  A    between atoms: C_30  and  O_31
REMARK                            x       y       z     vdW  Elec       q    Type
REMARK                         _______ _______ _______ _____ _____    ______ ____
ROOT
ATOM      1  C   UNL     1       3.518   0.976  19.393  0.00  0.00    +0.000 C 
ATOM      2  N   UNL     1       3.005   2.296  19.710  0.00  0.00    +0.000 N 
ATOM      3  C   UNL     1       1.931   2.435  20.540  0.00  0.00    +0.000 A 
ATOM      4  N   UNL     1       1.482   3.568  20.957  0.00  0.00    +0.000 NA
ATOM      5  C   UNL     1       2.089   4.738  20.463  0.00  0.00    +0.000 A 
ATOM      6  C   UNL     1       1.462   5.930  20.783  0.00  0.00    +0.000 A 
ATOM      7  C   UNL     1       1.937   7.117  20.260  0.00  0.00    +0.000 A 
ATOM      8  N   UNL     1       2.964   7.120  19.363  0.00  0.00    +0.000 NA
ATOM      9  C   UNL     1       3.599   5.948  19.023  0.00  0.00    +0.000 A 
ATOM     10  N   UNL     1       4.469   5.998  17.940  0.00  0.00    +0.000 N 
ATOM     11  C   UNL     1       4.329   7.112  17.005  0.00  0.00    +0.000 C 
ATOM     12  C   UNL     1       5.313   6.700  15.917  0.00  0.00    +0.000 C 
ATOM     13  C   UNL     1       6.498   6.132  16.710  0.00  0.00    +0.000 C 
ATOM     14  C   UNL     1       5.905   5.733  18.079  0.00  0.00    +0.000 C 
ATOM     15  C   UNL     1       3.198   4.734  19.614  0.00  0.00    +0.000 A 
ATOM     16  C   UNL     1       3.775   3.388  19.353  0.00  0.00    +0.000 A 
ATOM     17  O   UNL     1       4.917   3.212  18.935  0.00  0.00    +0.000 OA
ENDROOT
BRANCH   7  18
ATOM     18  C   UNL     1       1.273   8.403  20.594  0.00  0.00    +0.000 A 
ATOM     19  C   UNL     1       0.838   8.694  21.904  0.00  0.00    +0.000 A 
ATOM     20  C   UNL     1       0.108   9.855  22.215  0.00  0.00    +0.000 A 
ATOM     21  C   UNL     1      -0.224  10.787  21.232  0.00  0.00    +0.000 A 
ATOM     22  C   UNL     1       0.250  10.526  19.936  0.00  0.00    +0.000 A 
ATOM     23  C   UNL     1       0.987   9.367  19.622  0.00  0.00    +0.000 A 
BRANCH  21  24
ATOM     24  N   UNL     1      -0.946  11.935  21.496  0.00  0.00    +0.000 N 
ATOM     25  C   UNL     1      -1.738  12.123  22.724  0.00  0.00    +0.000 C 
ATOM     26  C   UNL     1      -1.613  13.596  23.174  0.00  0.00    +0.000 C 
ATOM     27  N   UNL     1      -1.943  14.532  22.086  0.00  0.00    +0.000 N 
ATOM     28  C   UNL     1      -2.812  15.581  22.319  0.00  0.00    +0.000 C 
ATOM     29  O   UNL     1      -3.377  15.753  23.402  0.00  0.00    +0.000 OA
ATOM     30  C   UNL     1      -1.221  14.283  20.826  0.00  0.00    +0.000 C 
ATOM     31  C   UNL     1      -1.357  12.813  20.385  0.00  0.00    +0.000 C 
BRANCH  28  32
ATOM     32  C   UNL     1      -3.116  16.527  21.150  0.00  0.00    +0.000 C 
BRANCH  32  33
ATOM     33  O   UNL     1      -4.075  15.997  20.246  0.00  0.00    +0.000 OA
ATOM     34  H   UNL     1      -4.196  16.680  19.557  0.00  0.00    +0.000 HD
ENDBRANCH  32  33
ENDBRANCH  28  32
ENDBRANCH  21  24
ENDBRANCH   7  18
BRANCH  13  35
ATOM     35  C   UNL     1       7.156   4.951  15.994  0.00  0.00    +0.000 C 
BRANCH  35  36
ATOM     36  O   UNL     1       7.901   4.156  16.911  0.00  0.00    +0.000 OA
ATOM     37  H   UNL     1       7.400   4.108  17.742  0.00  0.00    +0.000 HD
ENDBRANCH  35  36
ENDBRANCH  13  35
TORSDOF 6
ENDMDL
MODEL 4
REMARK VINA RESULT:      -8.5      1.098      1.831
REMARK  Name = 
REMARK  7 active torsions:
REMARK  status: ('A' for Active; 'I' for Inactive)
REMARK    1  A    between atoms: C_1  and  N_2
REMARK    2  A    between atoms: C_7  and  C_8
REMARK    3  A    between atoms: C_11  and  N_12
REMARK    4  A    between atoms: C_16  and  C_18
REMARK    5  A    between atoms: C_18  and  O_19
REMARK    6  A    between atoms: C_29  and  C_30
REMARK    7  A    between atoms: C_30  and  O_31
REMARK                            x       y       z     vdW  Elec       q    Type
REMARK                         _______ _______ _______ _____ _____    ______ ____
ROOT
ATOM      1  C   UNL     1       4.444   1.207  20.078  0.00  0.00    +0.000 C 
ATOM      2  N   UNL     1       3.758   2.479  20.213  0.00  0.00    +0.000 N 
ATOM      3  C   UNL     1       2.708   2.605  21.077  0.00  0.00    +0.000 A 
ATOM      4  N   UNL     1       2.116   3.719  21.336  0.00  0.00    +0.000 NA
ATOM      5  C   UNL     1       2.526   4.863  20.624  0.00  0.00    +0.000 A 
ATOM      6  C   UNL     1       1.745   5.995  20.790  0.00  0.00    +0.000 A 
ATOM      7  C   UNL     1       2.021   7.131  20.056  0.00  0.00    +0.000 A 
ATOM      8  N   UNL     1       3.000   7.126  19.107  0.00  0.00    +0.000 NA
ATOM      9  C   UNL     1       3.784   6.013  18.918  0.00  0.00    +0.000 A 
ATOM     10  N   UNL     1       4.594   6.001  17.788  0.00  0.00    +0.000 N 
ATOM     11  C   UNL     1       4.257   6.913  16.699  0.00  0.00    +0.000 C 
ATOM     12  C   UNL     1       5.246   6.465  15.630  0.00  0.00    +0.000 C 
ATOM     13  C   UNL     1       6.532   6.205  16.427  0.00  0.00    +0.000 C 
ATOM     14  C   UNL     1       6.059   5.962  17.877  0.00  0.00    +0.000 C 
ATOM     15  C   UNL     1       3.589   4.870  19.719  0.00  0.00    +0.000 A 
ATOM     16  C   UNL     1       4.345   3.592  19.639  0.00  0.00    +0.000 A 
ATOM     17  O   UNL     1       5.483   3.507  19.183  0.00  0.00    +0.000 OA
ENDROOT
BRANCH   7  18
ATOM     18  C   UNL     1       1.190   8.351  20.222  0.00  0.00    +0.000 A 
ATOM     19  C   UNL     1       1.095   9.327  19.207  0.00  0.00    +0.000 A 
ATOM     20  C   UNL     1       0.407  10.540  19.391  0.00  0.00    +0.000 A 
ATOM     21  C   UNL     1      -0.224  10.840  20.598  0.00  0.00    +0.000 A 
ATOM     22  C   UNL     1      -0.176   9.849  21.592  0.00  0.00    +0.000 A 
ATOM     23  C   UNL     1       0.508   8.631  21.410  0.00  0.00    +0.000 A 
BRANCH  21  24
ATOM     24  N   UNL     1      -0.904  12.022  20.819  0.00  0.00    +0.000 N 
ATOM     25  C   UNL     1      -1.858  12.204  21.928  0.00  0.00    +0.000 C 
ATOM     26  C   UNL     1      -1.710  13.642  22.477  0.00  0.00    +0.000 C 
ATOM     27  N   UNL     1      -1.815  14.650  21.408  0.00  0.00    +0.000 N 
ATOM     28  C   UNL     1      -2.642  15.746  21.573  0.00  0.00    +0.000 C 
ATOM     29  O   UNL     1      -3.351  15.904  22.570  0.00  0.00    +0.000 OA
ATOM     30  C   UNL     1      -0.929  14.413  20.256  0.00  0.00    +0.000 C 
ATOM     31  C   UNL     1      -1.088  12.979  19.714  0.00  0.00    +0.000 C 
BRANCH  28  32
ATOM     32  C   UNL     1      -2.708  16.766  20.429  0.00  0.00    +0.000 C 
BRANCH  32  33
ATOM     33  O   UNL     1      -3.843  16.587  19.594  0.00  0.00    +0.000 OA
ATOM     34  H   UNL     1      -4.294  15.786  19.927  0.00  0.00    +0.000 HD
ENDBRANCH  32  33
ENDBRANCH  28  32
ENDBRANCH  21  24
ENDBRANCH   7  18
BRANCH  13  35
ATOM     35  C   UNL     1       7.326   5.023  15.868  0.00  0.00    +0.000 C 
BRANCH  35  36
ATOM     36  O   UNL     1       7.766   4.168  16.918  0.00  0.00    +0.000 OA
ATOM     37  H   UNL     1       8.064   4.727  17.654  0.00  0.00    +0.000 HD
ENDBRANCH  35  36
ENDBRANCH  13  35
TORSDOF 6
ENDMDL
MODEL 5
REMARK VINA RESULT:      -8.3      1.409      1.871
REMARK  Name = 
REMARK  7 active torsions:
REMARK  status: ('A' for Active; 'I' for Inactive)
REMARK    1  A    between atoms: C_1  and  N_2
REMARK    2  A    between atoms: C_7  and  C_8
REMARK    3  A    between atoms: C_11  and  N_12
REMARK    4  A    between atoms: C_16  and  C_18
REMARK    5  A    between atoms: C_18  and  O_19
REMARK    6  A    between atoms: C_29  and  C_30
REMARK    7  A    between atoms: C_30  and  O_31
REMARK                            x       y       z     vdW  Elec       q    Type
REMARK                         _______ _______ _______ _____ _____    ______ ____
ROOT
ATOM      1  C   UNL     1       3.540   0.941  19.415  0.00  0.00    +0.000 C 
ATOM      2  N   UNL     1       3.019   2.257  19.736  0.00  0.00    +0.000 N 
ATOM      3  C   UNL     1       1.938   2.387  20.560  0.00  0.00    +0.000 A 
ATOM      4  N   UNL     1       1.481   3.515  20.980  0.00  0.00    +0.000 NA
ATOM      5  C   UNL     1       2.087   4.691  20.496  0.00  0.00    +0.000 A 
ATOM      6  C   UNL     1       1.452   5.879  20.819  0.00  0.00    +0.000 A 
ATOM      7  C   UNL     1       1.926   7.070  20.305  0.00  0.00    +0.000 A 
ATOM      8  N   UNL     1       2.959   7.083  19.416  0.00  0.00    +0.000 NA
ATOM      9  C   UNL     1       3.601   5.916  19.074  0.00  0.00    +0.000 A 
ATOM     10  N   UNL     1       4.479   5.976  17.997  0.00  0.00    +0.000 N 
ATOM     11  C   UNL     1       4.341   7.094  17.068  0.00  0.00    +0.000 C 
ATOM     12  C   UNL     1       5.334   6.692  15.985  0.00  0.00    +0.000 C 
ATOM     13  C   UNL     1       6.516   6.125  16.782  0.00  0.00    +0.000 C 
ATOM     14  C   UNL     1       5.916   5.716  18.145  0.00  0.00    +0.000 C 
ATOM     15  C   UNL     1       3.201   4.697  19.655  0.00  0.00    +0.000 A 
ATOM     16  C   UNL     1       3.786   3.355  19.390  0.00  0.00    +0.000 A 
ATOM     17  O   UNL     1       4.932   3.186  18.980  0.00  0.00    +0.000 OA
ENDROOT
BRANCH   7  18
ATOM     18  C   UNL     1       1.254   8.351  20.642  0.00  0.00    +0.000 A 
ATOM     19  C   UNL     1       1.149   9.402  19.705  0.00  0.00    +0.000 A 
ATOM     20  C   UNL     1       0.619  10.660  20.041  0.00  0.00    +0.000 A 
ATOM     21  C   UNL     1       0.163  10.934  21.330  0.00  0.00    +0.000 A 
ATOM     22  C   UNL     1       0.218   9.875  22.251  0.00  0.00    +0.000 A 
ATOM     23  C   UNL     1       0.743   8.611  21.917  0.00  0.00    +0.000 A 
BRANCH  21  24
ATOM     24  N   UNL     1      -0.358  12.159  21.701  0.00  0.00    +0.000 N 
ATOM     25  C   UNL     1      -1.617  12.302  22.453  0.00  0.00    +0.000 C 
ATOM     26  C   UNL     1      -1.465  13.467  23.457  0.00  0.00    +0.000 C 
ATOM     27  N   UNL     1      -1.003  14.701  22.798  0.00  0.00    +0.000 N 
ATOM     28  C   UNL     1      -1.651  15.898  23.044  0.00  0.00    +0.000 C 
ATOM     29  O   UNL     1      -2.648  15.981  23.765  0.00  0.00    +0.000 OA
ATOM     30  C   UNL     1       0.202  14.535  21.968  0.00  0.00    +0.000 C 
ATOM     31  C   UNL     1       0.038  13.375  20.968  0.00  0.00    +0.000 C 
BRANCH  28  32
ATOM     32  C   UNL     1      -1.123  17.151  22.335  0.00  0.00    +0.000 C 
BRANCH  32  33
ATOM     33  O   UNL     1      -0.189  17.878  23.120  0.00  0.00    +0.000 OA
ATOM     34  H   UNL     1      -0.723  18.438  23.718  0.00  0.00    +0.000 HD
ENDBRANCH  32  33
ENDBRANCH  28  32
ENDBRANCH  21  24
ENDBRANCH   7  18
BRANCH  13  35
ATOM     35  C   UNL     1       7.184   4.951  16.065  0.00  0.00    +0.000 C 
BRANCH  35  36
ATOM     36  O   UNL     1       7.959   4.177  16.975  0.00  0.00    +0.000 OA
ATOM     37  H   UNL     1       7.347   3.706  17.564  0.00  0.00    +0.000 HD
ENDBRANCH  35  36
ENDBRANCH  13  35
TORSDOF 6
ENDMDL
MODEL 6
REMARK VINA RESULT:      -8.2      1.277      1.751
REMARK  Name = 
REMARK  7 active torsions:
REMARK  status: ('A' for Active; 'I' for Inactive)
REMARK    1  A    between atoms: C_1  and  N_2
REMARK    2  A    between atoms: C_7  and  C_8
REMARK    3  A    between atoms: C_11  and  N_12
REMARK    4  A    between atoms: C_16  and  C_18
REMARK    5  A    between atoms: C_18  and  O_19
REMARK    6  A    between atoms: C_29  and  C_30
REMARK    7  A    between atoms: C_30  and  O_31
REMARK                            x       y       z     vdW  Elec       q    Type
REMARK                         _______ _______ _______ _____ _____    ______ ____
ROOT
ATOM      1  C   UNL     1       3.731   1.283  20.015  0.00  0.00    +0.000 C 
ATOM      2  N   UNL     1       3.175   2.619  20.123  0.00  0.00    +0.000 N 
ATOM      3  C   UNL     1       2.084   2.849  20.909  0.00  0.00    +0.000 A 
ATOM      4  N   UNL     1       1.596   4.017  21.145  0.00  0.00    +0.000 NA
ATOM      5  C   UNL     1       2.177   5.118  20.486  0.00  0.00    +0.000 A 
ATOM      6  C   UNL     1       1.510   6.325  20.614  0.00  0.00    +0.000 A 
ATOM      7  C   UNL     1       1.960   7.433  19.923  0.00  0.00    +0.000 A 
ATOM      8  N   UNL     1       3.001   7.332  19.049  0.00  0.00    +0.000 NA
ATOM      9  C   UNL     1       3.675   6.143  18.897  0.00  0.00    +0.000 A 
ATOM     10  N   UNL     1       4.561   6.055  17.830  0.00  0.00    +0.000 N 
ATOM     11  C   UNL     1       4.405   7.010  16.736  0.00  0.00    +0.000 C 
ATOM     12  C   UNL     1       5.419   6.469  15.735  0.00  0.00    +0.000 C 
ATOM     13  C   UNL     1       6.606   6.064  16.619  0.00  0.00    +0.000 C 
ATOM     14  C   UNL     1       6.002   5.859  18.025  0.00  0.00    +0.000 C 
ATOM     15  C   UNL     1       3.299   5.020  19.661  0.00  0.00    +0.000 A 
ATOM     16  C   UNL     1       3.919   3.668  19.613  0.00  0.00    +0.000 A 
ATOM     17  O   UNL     1       5.073   3.467  19.241  0.00  0.00    +0.000 OA
ENDROOT
BRANCH   7  18
ATOM     18  C   UNL     1       1.254   8.733  20.050  0.00  0.00    +0.000 A 
ATOM     19  C   UNL     1       0.594   9.105  21.241  0.00  0.00    +0.000 A 
ATOM     20  C   UNL     1      -0.174  10.279  21.341  0.00  0.00    +0.000 A 
ATOM     21  C   UNL     1      -0.321  11.144  20.258  0.00  0.00    +0.000 A 
ATOM     22  C   UNL     1       0.376  10.804  19.086  0.00  0.00    +0.000 A 
ATOM     23  C   UNL     1       1.151   9.632  18.984  0.00  0.00    +0.000 A 
BRANCH  21  24
ATOM     24  N   UNL     1      -1.072  12.302  20.314  0.00  0.00    +0.000 N 
ATOM     25  C   UNL     1      -2.544  12.303  20.377  0.00  0.00    +0.000 C 
ATOM     26  C   UNL     1      -2.999  13.448  21.311  0.00  0.00    +0.000 C 
ATOM     27  N   UNL     1      -2.403  14.739  20.926  0.00  0.00    +0.000 N 
ATOM     28  C   UNL     1      -3.203  15.861  20.813  0.00  0.00    +0.000 C 
ATOM     29  O   UNL     1      -4.425  15.829  20.974  0.00  0.00    +0.000 OA
ATOM     30  C   UNL     1      -0.938  14.713  20.769  0.00  0.00    +0.000 C 
ATOM     31  C   UNL     1      -0.497  13.571  19.833  0.00  0.00    +0.000 C 
BRANCH  28  32
ATOM     32  C   UNL     1      -2.527  17.179  20.414  0.00  0.00    +0.000 C 
BRANCH  32  33
ATOM     33  O   UNL     1      -2.540  17.404  19.011  0.00  0.00    +0.000 OA
ATOM     34  H   UNL     1      -3.482  17.499  18.767  0.00  0.00    +0.000 HD
ENDBRANCH  32  33
ENDBRANCH  28  32
ENDBRANCH  21  24
ENDBRANCH   7  18
BRANCH  13  35
ATOM     35  C   UNL     1       7.310   4.809  16.098  0.00  0.00    +0.000 C 
BRANCH  35  36
ATOM     36  O   UNL     1       7.973   4.127  17.157  0.00  0.00    +0.000 OA
ATOM     37  H   UNL     1       8.914   4.366  17.125  0.00  0.00    +0.000 HD
ENDBRANCH  35  36
ENDBRANCH  13  35
TORSDOF 6
ENDMDL
MODEL 7
REMARK VINA RESULT:      -7.8      1.427      3.694
REMARK  Name = 
REMARK  7 active torsions:
REMARK  status: ('A' for Active; 'I' for Inactive)
REMARK    1  A    between atoms: C_1  and  N_2
REMARK    2  A    between atoms: C_7  and  C_8
REMARK    3  A    between atoms: C_11  and  N_12
REMARK    4  A    between atoms: C_16  and  C_18
REMARK    5  A    between atoms: C_18  and  O_19
REMARK    6  A    between atoms: C_29  and  C_30
REMARK    7  A    between atoms: C_30  and  O_31
REMARK                            x       y       z     vdW  Elec       q    Type
REMARK                         _______ _______ _______ _____ _____    ______ ____
ROOT
ATOM      1  C   UNL     1       6.970   4.363  15.685  0.00  0.00    +0.000 C 
ATOM      2  N   UNL     1       6.012   5.303  16.238  0.00  0.00    +0.000 N 
ATOM      3  C   UNL     1       6.127   6.637  15.974  0.00  0.00    +0.000 A 
ATOM      4  N   UNL     1       5.262   7.522  16.334  0.00  0.00    +0.000 NA
ATOM      5  C   UNL     1       4.172   7.095  17.117  0.00  0.00    +0.000 A 
ATOM      6  C   UNL     1       3.372   8.097  17.641  0.00  0.00    +0.000 A 
ATOM      7  C   UNL     1       2.339   7.770  18.498  0.00  0.00    +0.000 A 
ATOM      8  N   UNL     1       2.150   6.481  18.901  0.00  0.00    +0.000 NA
ATOM      9  C   UNL     1       2.936   5.470  18.400  0.00  0.00    +0.000 A 
ATOM     10  N   UNL     1       2.840   4.233  19.027  0.00  0.00    +0.000 N 
ATOM     11  C   UNL     1       2.283   4.194  20.376  0.00  0.00    +0.000 C 
ATOM     12  C   UNL     1       2.519   2.735  20.744  0.00  0.00    +0.000 C 
ATOM     13  C   UNL     1       2.189   1.986  19.446  0.00  0.00    +0.000 C 
ATOM     14  C   UNL     1       2.353   3.038  18.327  0.00  0.00    +0.000 C 
ATOM     15  C   UNL     1       3.937   5.761  17.452  0.00  0.00    +0.000 A 
ATOM     16  C   UNL     1       4.868   4.788  16.820  0.00  0.00    +0.000 A 
ATOM     17  O   UNL     1       4.621   3.589  16.709  0.00  0.00    +0.000 OA
ENDROOT
BRANCH   7  18
ATOM     18  C   UNL     1       1.474   8.834  19.069  0.00  0.00    +0.000 A 
ATOM     19  C   UNL     1       1.136   8.858  20.439  0.00  0.00    +0.000 A 
ATOM     20  C   UNL     1       0.229   9.790  20.974  0.00  0.00    +0.000 A 
ATOM     21  C   UNL     1      -0.387  10.746  20.168  0.00  0.00    +0.000 A 
ATOM     22  C   UNL     1      -0.015  10.758  18.814  0.00  0.00    +0.000 A 
ATOM     23  C   UNL     1       0.898   9.831  18.275  0.00  0.00    +0.000 A 
BRANCH  21  24
ATOM     24  N   UNL     1      -1.289  11.674  20.655  0.00  0.00    +0.000 N 
ATOM     25  C   UNL     1      -2.072  12.567  19.782  0.00  0.00    +0.000 C 
ATOM     26  C   UNL     1      -3.487  12.732  20.384  0.00  0.00    +0.000 C 
ATOM     27  N   UNL     1      -3.436  13.147  21.797  0.00  0.00    +0.000 N 
ATOM     28  C   UNL     1      -4.218  14.200  22.234  0.00  0.00    +0.000 C 
ATOM     29  O   UNL     1      -4.937  14.858  21.477  0.00  0.00    +0.000 OA
ATOM     30  C   UNL     1      -2.575  12.309  22.649  0.00  0.00    +0.000 C 
ATOM     31  C   UNL     1      -1.167  12.156  22.042  0.00  0.00    +0.000 C 
BRANCH  28  32
ATOM     32  C   UNL     1      -4.129  14.586  23.716  0.00  0.00    +0.000 C 
BRANCH  32  33
ATOM     33  O   UNL     1      -5.111  13.941  24.515  0.00  0.00    +0.000 OA
ATOM     34  H   UNL     1      -5.967  14.332  24.249  0.00  0.00    +0.000 HD
ENDBRANCH  32  33
ENDBRANCH  28  32
ENDBRANCH  21  24
ENDBRANCH   7  18
BRANCH  13  35
ATOM     35  C   UNL     1       3.092   0.769  19.238  0.00  0.00    +0.000 C 
BRANCH  35  36
ATOM     36  O   UNL     1       4.316   1.149  18.618  0.00  0.00    +0.000 OA
ATOM     37  H   UNL     1       4.912   1.480  19.310  0.00  0.00    +0.000 HD
ENDBRANCH  35  36
ENDBRANCH  13  35
TORSDOF 6
ENDMDL
MODEL 8
REMARK VINA RESULT:      -7.6      2.075     11.899
REMARK  Name = 
REMARK  7 active torsions:
REMARK  status: ('A' for Active; 'I' for Inactive)
REMARK    1  A    between atoms: C_1  and  N_2
REMARK    2  A    between atoms: C_7  and  C_8
REMARK    3  A    between atoms: C_11  and  N_12
REMARK    4  A    between atoms: C_16  and  C_18
REMARK    5  A    between atoms: C_18  and  O_19
REMARK    6  A    between atoms: C_29  and  C_30
REMARK    7  A    between atoms: C_30  and  O_31
REMARK                            x       y       z     vdW  Elec       q    Type
REMARK                         _______ _______ _______ _____ _____    ______ ____
ROOT
ATOM      1  C   UNL     1      -1.589  17.970  23.658  0.00  0.00    +0.000 C 
ATOM      2  N   UNL     1      -1.131  16.680  23.177  0.00  0.00    +0.000 N 
ATOM      3  C   UNL     1       0.174  16.503  22.819  0.00  0.00    +0.000 A 
ATOM      4  N   UNL     1       0.685  15.368  22.486  0.00  0.00    +0.000 NA
ATOM      5  C   UNL     1      -0.176  14.256  22.412  0.00  0.00    +0.000 A 
ATOM      6  C   UNL     1       0.368  13.102  21.872  0.00  0.00    +0.000 A 
ATOM      7  C   UNL     1      -0.434  11.995  21.675  0.00  0.00    +0.000 A 
ATOM      8  N   UNL     1      -1.773  12.051  21.928  0.00  0.00    +0.000 NA
ATOM      9  C   UNL     1      -2.337  13.188  22.458  0.00  0.00    +0.000 A 
ATOM     10  N   UNL     1      -3.726  13.252  22.468  0.00  0.00    +0.000 N 
ATOM     11  C   UNL     1      -4.455  12.365  21.566  0.00  0.00    +0.000 C 
ATOM     12  C   UNL     1      -5.880  12.868  21.757  0.00  0.00    +0.000 C 
ATOM     13  C   UNL     1      -5.961  13.133  23.266  0.00  0.00    +0.000 C 
ATOM     14  C   UNL     1      -4.496  13.322  23.716  0.00  0.00    +0.000 C 
ATOM     15  C   UNL     1      -1.527  14.301  22.758  0.00  0.00    +0.000 A 
ATOM     16  C   UNL     1      -1.980  15.598  23.328  0.00  0.00    +0.000 A 
ATOM     17  O   UNL     1      -3.005  15.723  23.995  0.00  0.00    +0.000 OA
ENDROOT
BRANCH   7  18
ATOM     18  C   UNL     1       0.134  10.752  21.095  0.00  0.00    +0.000 A 
ATOM     19  C   UNL     1       0.460   9.639  21.900  0.00  0.00    +0.000 A 
ATOM     20  C   UNL     1       1.102   8.499  21.385  0.00  0.00    +0.000 A 
ATOM     21  C   UNL     1       1.452   8.411  20.038  0.00  0.00    +0.000 A 
ATOM     22  C   UNL     1       1.084   9.494  19.223  0.00  0.00    +0.000 A 
ATOM     23  C   UNL     1       0.434  10.635  19.734  0.00  0.00    +0.000 A 
BRANCH  21  24
ATOM     24  N   UNL     1       2.090   7.312  19.496  0.00  0.00    +0.000 N 
ATOM     25  C   UNL     1       2.610   7.284  18.117  0.00  0.00    +0.000 C 
ATOM     26  C   UNL     1       3.940   6.496  18.105  0.00  0.00    +0.000 C 
ATOM     27  N   UNL     1       3.797   5.170  18.731  0.00  0.00    +0.000 N 
ATOM     28  C   UNL     1       4.288   4.049  18.089  0.00  0.00    +0.000 C 
ATOM     29  O   UNL     1       4.807   4.092  16.971  0.00  0.00    +0.000 OA
ATOM     30  C   UNL     1       3.188   5.191  20.072  0.00  0.00    +0.000 C 
ATOM     31  C   UNL     1       1.861   5.974  20.071  0.00  0.00    +0.000 C 
BRANCH  28  32
ATOM     32  C   UNL     1       4.116   2.695  18.791  0.00  0.00    +0.000 C 
BRANCH  32  33
ATOM     33  O   UNL     1       5.223   2.354  19.613  0.00  0.00    +0.000 OA
ATOM     34  H   UNL     1       5.146   1.394  19.776  0.00  0.00    +0.000 HD
ENDBRANCH  32  33
ENDBRANCH  28  32
ENDBRANCH  21  24
ENDBRANCH   7  18
BRANCH  13  35
ATOM     35  C   UNL     1      -6.831  14.350  23.591  0.00  0.00    +0.000 C 
BRANCH  35  36
ATOM     36  O   UNL     1      -7.723  14.061  24.662  0.00  0.00    +0.000 OA
ATOM     37  H   UNL     1      -8.627  14.250  24.359  0.00  0.00    +0.000 HD
ENDBRANCH  35  36
ENDBRANCH  13  35
TORSDOF 6
ENDMDL
MODEL 9
REMARK VINA RESULT:      -7.6      1.375      3.753
REMARK  Name = 
REMARK  7 active torsions:
REMARK  status: ('A' for Active; 'I' for Inactive)
REMARK    1  A    between atoms: C_1  and  N_2
REMARK    2  A    between atoms: C_7  and  C_8
REMARK    3  A    between atoms: C_11  and  N_12
REMARK    4  A    between atoms: C_16  and  C_18
REMARK    5  A    between atoms: C_18  and  O_19
REMARK    6  A    between atoms: C_29  and  C_30
REMARK    7  A    between atoms: C_30  and  O_31
REMARK                            x       y       z     vdW  Elec       q    Type
REMARK                         _______ _______ _______ _____ _____    ______ ____
ROOT
ATOM      1  C   UNL     1       6.962   4.342  15.657  0.00  0.00    +0.000 C 
ATOM      2  N   UNL     1       6.006   5.264  16.242  0.00  0.00    +0.000 N 
ATOM      3  C   UNL     1       6.088   6.601  15.976  0.00  0.00    +0.000 A 
ATOM      4  N   UNL     1       5.220   7.469  16.365  0.00  0.00    +0.000 NA
ATOM      5  C   UNL     1       4.163   7.022  17.181  0.00  0.00    +0.000 A 
ATOM      6  C   UNL     1       3.361   8.009  17.732  0.00  0.00    +0.000 A 
ATOM      7  C   UNL     1       2.361   7.663  18.619  0.00  0.00    +0.000 A 
ATOM      8  N   UNL     1       2.208   6.371  19.025  0.00  0.00    +0.000 NA
ATOM      9  C   UNL     1       2.996   5.374  18.499  0.00  0.00    +0.000 A 
ATOM     10  N   UNL     1       2.942   4.135  19.126  0.00  0.00    +0.000 N 
ATOM     11  C   UNL     1       2.427   4.085  20.492  0.00  0.00    +0.000 C 
ATOM     12  C   UNL     1       2.700   2.629  20.850  0.00  0.00    +0.000 C 
ATOM     13  C   UNL     1       2.343   1.876  19.562  0.00  0.00    +0.000 C 
ATOM     14  C   UNL     1       2.454   2.933  18.440  0.00  0.00    +0.000 C 
ATOM     15  C   UNL     1       3.961   5.684  17.520  0.00  0.00    +0.000 A 
ATOM     16  C   UNL     1       4.889   4.728  16.858  0.00  0.00    +0.000 A 
ATOM     17  O   UNL     1       4.660   3.526  16.753  0.00  0.00    +0.000 OA
ENDROOT
BRANCH   7  18
ATOM     18  C   UNL     1       1.496   8.711  19.219  0.00  0.00    +0.000 A 
ATOM     19  C   UNL     1       1.034   9.811  18.466  0.00  0.00    +0.000 A 
ATOM     20  C   UNL     1       0.310  10.868  19.044  0.00  0.00    +0.000 A 
ATOM     21  C   UNL     1       0.008  10.881  20.405  0.00  0.00    +0.000 A 
ATOM     22  C   UNL     1       0.420   9.763  21.148  0.00  0.00    +0.000 A 
ATOM     23  C   UNL     1       1.141   8.699  20.571  0.00  0.00    +0.000 A 
BRANCH  21  24
ATOM     24  N   UNL     1      -0.695  11.904  21.012  0.00  0.00    +0.000 N 
ATOM     25  C   UNL     1      -0.873  13.232  20.398  0.00  0.00    +0.000 C 
ATOM     26  C   UNL     1      -2.295  13.743  20.725  0.00  0.00    +0.000 C 
ATOM     27  N   UNL     1      -2.574  13.696  22.171  0.00  0.00    +0.000 N 
ATOM     28  C   UNL     1      -3.118  14.799  22.803  0.00  0.00    +0.000 C 
ATOM     29  O   UNL     1      -3.342  15.862  22.218  0.00  0.00    +0.000 OA
ATOM     30  C   UNL     1      -2.304  12.394  22.803  0.00  0.00    +0.000 C 
ATOM     31  C   UNL     1      -0.883  11.897  22.474  0.00  0.00    +0.000 C 
BRANCH  28  32
ATOM     32  C   UNL     1      -3.393  14.692  24.309  0.00  0.00    +0.000 C 
BRANCH  32  33
ATOM     33  O   UNL     1      -4.728  14.303  24.601  0.00  0.00    +0.000 OA
ATOM     34  H   UNL     1      -4.657  13.452  25.077  0.00  0.00    +0.000 HD
ENDBRANCH  32  33
ENDBRANCH  28  32
ENDBRANCH  21  24
ENDBRANCH   7  18
BRANCH  13  35
ATOM     35  C   UNL     1       3.261   0.676  19.323  0.00  0.00    +0.000 C 
BRANCH  35  36
ATOM     36  O   UNL     1       4.224   0.968  18.317  0.00  0.00    +0.000 OA
ATOM     37  H   UNL     1       4.246   0.221  17.696  0.00  0.00    +0.000 HD
ENDBRANCH  35  36
ENDBRANCH  13  35
TORSDOF 6
ENDMDL
