MODEL 1
REMARK VINA RESULT:      -8.3      0.000      0.000
REMARK  Name = 
REMARK  9 active torsions:
REMARK  status: ('A' for Active; 'I' for Inactive)
REMARK    1  A    between atoms: C_1  and  O_2
REMARK    2  A    between atoms: O_2  and  C_3
REMARK    3  A    between atoms: C_5  and  C_6
REMARK    4  A    between atoms: C_7  and  C_8
REMARK    5  A    between atoms: C_11  and  C_12
REMARK    6  A    between atoms: C_21  and  O_22
REMARK    7  A    between atoms: O_22  and  C_23
REMARK    8  A    between atoms: C_24  and  O_25
REMARK    9  A    between atoms: O_25  and  C_26
REMARK                            x       y       z     vdW  Elec       q    Type
REMARK                         _______ _______ _______ _____ _____    ______ ____
ROOT
ATOM      1  C   UNL     1       2.282   7.600  18.638  0.00  0.00    +0.000 C 
ATOM      2  C   UNL     1       1.840   8.855  18.300  0.00  0.00    +0.000 C 
ENDROOT
BRANCH   2   3
ATOM      3  C   UNL     1       1.024   9.706  19.192  0.00  0.00    +0.000 A 
ATOM      4  C   UNL     1       0.173  10.658  18.648  0.00  0.00    +0.000 A 
ATOM      5  N   UNL     1       0.040  11.628  19.635  0.00  0.00    +0.000 N 
ATOM      6  C   UNL     1       0.268  13.009  19.560  0.00  0.00    +0.000 C 
ATOM      7  C   UNL     1       1.209  13.428  18.472  0.00  0.00    +0.000 C 
ATOM      8  O   UNL     1      -0.102  13.740  20.468  0.00  0.00    +0.000 OA
ATOM      9  C   UNL     1      -0.189  10.892  20.774  0.00  0.00    +0.000 A 
ATOM     10  C   UNL     1      -0.927  11.222  21.918  0.00  0.00    +0.000 A 
ATOM     11  C   UNL     1      -0.803  10.380  23.009  0.00  0.00    +0.000 A 
ATOM     12  C   UNL     1       0.080   9.319  22.968  0.00  0.00    +0.000 A 
ATOM     13  C   UNL     1       0.821   8.993  21.786  0.00  0.00    +0.000 A 
ATOM     14  C   UNL     1       0.641   9.752  20.604  0.00  0.00    +0.000 A 
ENDBRANCH   2   3
BRANCH   1  17
ATOM     15  C   UNL     1       3.829   4.251  17.298  0.00  0.00    +0.000 A 
ATOM     16  C   UNL     1       2.937   5.142  17.988  0.00  0.00    +0.000 A 
ATOM     17  C   UNL     1       3.187   6.518  18.081  0.00  0.00    +0.000 A 
ATOM     18  C   UNL     1       4.427   6.944  17.545  0.00  0.00    +0.000 A 
ATOM     19  C   UNL     1       5.314   6.093  16.844  0.00  0.00    +0.000 A 
ATOM     20  C   UNL     1       5.022   4.730  16.705  0.00  0.00    +0.000 A 
BRANCH  15  22
ATOM     21  C   UNL     1       3.434   2.134  18.359  0.00  0.00    +0.000 C 
ATOM     22  O   UNL     1       3.615   2.899  17.181  0.00  0.00    +0.000 OA
ENDBRANCH  15  22
BRANCH  19  23
ATOM     23  O   UNL     1       6.443   6.737  16.382  0.00  0.00    +0.000 OA
ATOM     24  C   UNL     1       7.340   7.275  17.355  0.00  0.00    +0.000 C 
ENDBRANCH  19  23
BRANCH  20  25
ATOM     25  O   UNL     1       5.992   3.985  16.088  0.00  0.00    +0.000 OA
ATOM     26  C   UNL     1       6.108   3.892  14.677  0.00  0.00    +0.000 C 
ENDBRANCH  20  25
ENDBRANCH   1  17
TORSDOF 5
ENDMDL
MODEL 2
REMARK VINA RESULT:      -8.3      1.467      2.545
REMARK  Name = 
REMARK  9 active torsions:
REMARK  status: ('A' for Active; 'I' for Inactive)
REMARK    1  A    between atoms: C_1  and  O_2
REMARK    2  A    between atoms: O_2  and  C_3
REMARK    3  A    between atoms: C_5  and  C_6
REMARK    4  A    between atoms: C_7  and  C_8
REMARK    5  A    between atoms: C_11  and  C_12
REMARK    6  A    between atoms: C_21  and  O_22
REMARK    7  A    between atoms: O_22  and  C_23
REMARK    8  A    between atoms: C_24  and  O_25
REMARK    9  A    between atoms: O_25  and  C_26
REMARK                            x       y       z     vdW  Elec       q    Type
REMARK                         _______ _______ _______ _____ _____    ______ ____
ROOT
ATOM      1  C   UNL     1       2.103   7.735  18.337  0.00  0.00    +0.000 C 
ATOM      2  C   UNL     1       1.565   8.899  17.846  0.00  0.00    +0.000 C 
ENDROOT
BRANCH   2   3
ATOM      3  C   UNL     1       0.656   9.772  18.618  0.00  0.00    +0.000 A 
ATOM      4  C   UNL     1       1.150  10.509  19.685  0.00  0.00    +0.000 A 
ATOM      5  N   UNL     1       0.057  10.711  20.521  0.00  0.00    +0.000 N 
ATOM      6  C   UNL     1      -0.088  10.411  21.883  0.00  0.00    +0.000 C 
ATOM      7  C   UNL     1       0.823   9.332  22.385  0.00  0.00    +0.000 C 
ATOM      8  O   UNL     1      -1.043  10.849  22.506  0.00  0.00    +0.000 OA
ATOM      9  C   UNL     1      -0.936  11.103  19.654  0.00  0.00    +0.000 A 
ATOM     10  C   UNL     1      -2.028  11.953  19.873  0.00  0.00    +0.000 A 
ATOM     11  C   UNL     1      -2.997  11.996  18.886  0.00  0.00    +0.000 A 
ATOM     12  C   UNL     1      -2.904  11.164  17.788  0.00  0.00    +0.000 A 
ATOM     13  C   UNL     1      -1.775  10.307  17.578  0.00  0.00    +0.000 A 
ATOM     14  C   UNL     1      -0.698  10.314  18.498  0.00  0.00    +0.000 A 
ENDBRANCH   2   3
BRANCH   1  17
ATOM     15  C   UNL     1       3.945   4.413  17.349  0.00  0.00    +0.000 A 
ATOM     16  C   UNL     1       2.949   5.287  17.906  0.00  0.00    +0.000 A 
ATOM     17  C   UNL     1       3.111   6.679  17.926  0.00  0.00    +0.000 A 
ATOM     18  C   UNL     1       4.364   7.147  17.460  0.00  0.00    +0.000 A 
ATOM     19  C   UNL     1       5.352   6.312  16.889  0.00  0.00    +0.000 A 
ATOM     20  C   UNL     1       5.152   4.927  16.820  0.00  0.00    +0.000 A 
BRANCH  15  22
ATOM     21  C   UNL     1       2.639   2.453  17.822  0.00  0.00    +0.000 C 
ATOM     22  O   UNL     1       3.819   3.045  17.308  0.00  0.00    +0.000 OA
ENDBRANCH  15  22
BRANCH  19  23
ATOM     23  O   UNL     1       6.477   6.995  16.474  0.00  0.00    +0.000 OA
ATOM     24  C   UNL     1       7.443   7.340  17.468  0.00  0.00    +0.000 C 
ENDBRANCH  19  23
BRANCH  20  25
ATOM     25  O   UNL     1       6.210   4.207  16.331  0.00  0.00    +0.000 OA
ATOM     26  C   UNL     1       6.350   3.884  14.958  0.00  0.00    +0.000 C 
ENDBRANCH  20  25
ENDBRANCH   1  17
TORSDOF 5
ENDMDL
MODEL 3
REMARK VINA RESULT:      -8.1      2.279      8.751
REMARK  Name = 
REMARK  9 active torsions:
REMARK  status: ('A' for Active; 'I' for Inactive)
REMARK    1  A    between atoms: C_1  and  O_2
REMARK    2  A    between atoms: O_2  and  C_3
REMARK    3  A    between atoms: C_5  and  C_6
REMARK    4  A    between atoms: C_7  and  C_8
REMARK    5  A    between atoms: C_11  and  C_12
REMARK    6  A    between atoms: C_21  and  O_22
REMARK    7  A    between atoms: O_22  and  C_23
REMARK    8  A    between atoms: C_24  and  O_25
REMARK    9  A    between atoms: O_25  and  C_26
REMARK                            x       y       z     vdW  Elec       q    Type
REMARK                         _______ _______ _______ _____ _____    ______ ____
ROOT
ATOM      1  C   UNL     1       1.867   8.023  18.970  0.00  0.00    +0.000 C 
ATOM      2  C   UNL     1       2.646   7.573  17.933  0.00  0.00    +0.000 C 
ENDROOT
BRANCH   2   3
ATOM      3  C   UNL     1       3.171   6.194  17.839  0.00  0.00    +0.000 A 
ATOM      4  C   UNL     1       4.541   5.977  17.840  0.00  0.00    +0.000 A 
ATOM      5  N   UNL     1       4.717   4.773  17.167  0.00  0.00    +0.000 N 
ATOM      6  C   UNL     1       5.519   4.485  16.054  0.00  0.00    +0.000 C 
ATOM      7  C   UNL     1       5.846   5.670  15.197  0.00  0.00    +0.000 C 
ATOM      8  O   UNL     1       5.712   3.324  15.724  0.00  0.00    +0.000 OA
ATOM      9  C   UNL     1       3.765   3.955  17.730  0.00  0.00    +0.000 A 
ATOM     10  C   UNL     1       3.778   2.566  17.917  0.00  0.00    +0.000 A 
ATOM     11  C   UNL     1       2.590   1.974  18.306  0.00  0.00    +0.000 A 
ATOM     12  C   UNL     1       1.441   2.733  18.414  0.00  0.00    +0.000 A 
ATOM     13  C   UNL     1       1.449   4.153  18.226  0.00  0.00    +0.000 A 
ATOM     14  C   UNL     1       2.664   4.825  17.944  0.00  0.00    +0.000 A 
ENDBRANCH   2   3
BRANCH   1  17
ATOM     15  C   UNL     1      -0.457  11.185  19.041  0.00  0.00    +0.000 A 
ATOM     16  C   UNL     1       0.369  10.132  18.517  0.00  0.00    +0.000 A 
ATOM     17  C   UNL     1       1.080   9.261  19.355  0.00  0.00    +0.000 A 
ATOM     18  C   UNL     1       1.012   9.563  20.737  0.00  0.00    +0.000 A 
ATOM     19  C   UNL     1       0.192  10.580  21.280  0.00  0.00    +0.000 A 
ATOM     20  C   UNL     1      -0.562  11.405  20.435  0.00  0.00    +0.000 A 
BRANCH  15  22
ATOM     21  C   UNL     1      -2.298  11.564  17.546  0.00  0.00    +0.000 C 
ATOM     22  O   UNL     1      -1.172  12.054  18.253  0.00  0.00    +0.000 OA
ENDBRANCH  15  22
BRANCH  19  23
ATOM     23  O   UNL     1       0.262  10.667  22.655  0.00  0.00    +0.000 OA
ATOM     24  C   UNL     1      -0.158   9.529  23.410  0.00  0.00    +0.000 C 
ENDBRANCH  19  23
BRANCH  20  25
ATOM     25  O   UNL     1      -1.248  12.412  21.061  0.00  0.00    +0.000 OA
ATOM     26  C   UNL     1      -0.700  13.705  21.263  0.00  0.00    +0.000 C 
ENDBRANCH  20  25
ENDBRANCH   1  17
TORSDOF 5
ENDMDL
MODEL 4
REMARK VINA RESULT:      -8.0      0.599      2.497
REMARK  Name = 
REMARK  9 active torsions:
REMARK  status: ('A' for Active; 'I' for Inactive)
REMARK    1  A    between atoms: C_1  and  O_2
REMARK    2  A    between atoms: O_2  and  C_3
REMARK    3  A    between atoms: C_5  and  C_6
REMARK    4  A    between atoms: C_7  and  C_8
REMARK    5  A    between atoms: C_11  and  C_12
REMARK    6  A    between atoms: C_21  and  O_22
REMARK    7  A    between atoms: O_22  and  C_23
REMARK    8  A    between atoms: C_24  and  O_25
REMARK    9  A    between atoms: O_25  and  C_26
REMARK                            x       y       z     vdW  Elec       q    Type
REMARK                         _______ _______ _______ _____ _____    ______ ____
ROOT
ATOM      1  C   UNL     1       2.167   8.009  18.555  0.00  0.00    +0.000 C 
ATOM      2  C   UNL     1       1.489   9.165  18.259  0.00  0.00    +0.000 C 
ENDROOT
BRANCH   2   3
ATOM      3  C   UNL     1       0.617   9.874  19.220  0.00  0.00    +0.000 A 
ATOM      4  C   UNL     1      -0.467  10.606  18.758  0.00  0.00    +0.000 A 
ATOM      5  N   UNL     1      -0.689  11.576  19.729  0.00  0.00    +0.000 N 
ATOM      6  C   UNL     1      -0.762  12.969  19.594  0.00  0.00    +0.000 C 
ATOM      7  C   UNL     1      -0.054  13.518  18.393  0.00  0.00    +0.000 C 
ATOM      8  O   UNL     1      -1.173  13.652  20.522  0.00  0.00    +0.000 OA
ATOM      9  C   UNL     1      -0.633  10.864  20.905  0.00  0.00    +0.000 A 
ATOM     10  C   UNL     1      -1.292  11.091  22.120  0.00  0.00    +0.000 A 
ATOM     11  C   UNL     1      -0.877  10.346  23.209  0.00  0.00    +0.000 A 
ATOM     12  C   UNL     1       0.197   9.486  23.090  0.00  0.00    +0.000 A 
ATOM     13  C   UNL     1       0.854   9.261  21.837  0.00  0.00    +0.000 A 
ATOM     14  C   UNL     1       0.391   9.910  20.666  0.00  0.00    +0.000 A 
ENDBRANCH   2   3
BRANCH   1  17
ATOM     15  C   UNL     1       5.397   6.409  17.003  0.00  0.00    +0.000 A 
ATOM     16  C   UNL     1       4.473   7.415  17.447  0.00  0.00    +0.000 A 
ATOM     17  C   UNL     1       3.193   7.091  17.919  0.00  0.00    +0.000 A 
ATOM     18  C   UNL     1       2.843   5.721  17.823  0.00  0.00    +0.000 A 
ATOM     19  C   UNL     1       3.740   4.709  17.409  0.00  0.00    +0.000 A 
ATOM     20  C   UNL     1       5.038   5.040  16.997  0.00  0.00    +0.000 A 
BRANCH  15  22
ATOM     21  C   UNL     1       7.587   7.304  17.415  0.00  0.00    +0.000 C 
ATOM     22  O   UNL     1       6.660   6.687  16.539  0.00  0.00    +0.000 OA
ENDBRANCH  15  22
BRANCH  19  23
ATOM     23  O   UNL     1       3.188   3.445  17.428  0.00  0.00    +0.000 OA
ATOM     24  C   UNL     1       3.149   2.762  18.682  0.00  0.00    +0.000 C 
ENDBRANCH  19  23
BRANCH  20  25
ATOM     25  O   UNL     1       5.788   3.993  16.532  0.00  0.00    +0.000 OA
ATOM     26  C   UNL     1       5.988   3.745  15.150  0.00  0.00    +0.000 C 
ENDBRANCH  20  25
ENDBRANCH   1  17
TORSDOF 5
ENDMDL
MODEL 5
REMARK VINA RESULT:      -7.8      2.132      3.897
REMARK  Name = 
REMARK  9 active torsions:
REMARK  status: ('A' for Active; 'I' for Inactive)
REMARK    1  A    between atoms: C_1  and  O_2
REMARK    2  A    between atoms: O_2  and  C_3
REMARK    3  A    between atoms: C_5  and  C_6
REMARK    4  A    between atoms: C_7  and  C_8
REMARK    5  A    between atoms: C_11  and  C_12
REMARK    6  A    between atoms: C_21  and  O_22
REMARK    7  A    between atoms: O_22  and  C_23
REMARK    8  A    between atoms: C_24  and  O_25
REMARK    9  A    between atoms: O_25  and  C_26
REMARK                            x       y       z     vdW  Elec       q    Type
REMARK                         _______ _______ _______ _____ _____    ______ ____
ROOT
ATOM      1  C   UNL     1       2.246   7.693  18.412  0.00  0.00    +0.000 C 
ATOM      2  C   UNL     1       2.230   8.913  17.783  0.00  0.00    +0.000 C 
ENDROOT
BRANCH   2   3
ATOM      3  C   UNL     1       1.520  10.098  18.308  0.00  0.00    +0.000 A 
ATOM      4  C   UNL     1       0.430   9.931  19.151  0.00  0.00    +0.000 A 
ATOM      5  N   UNL     1      -0.338  11.077  18.980  0.00  0.00    +0.000 N 
ATOM      6  C   UNL     1      -1.691  11.197  18.633  0.00  0.00    +0.000 C 
ATOM      7  C   UNL     1      -2.254  10.019  17.897  0.00  0.00    +0.000 C 
ATOM      8  O   UNL     1      -2.254  12.278  18.733  0.00  0.00    +0.000 OA
ATOM      9  C   UNL     1       0.589  12.091  19.044  0.00  0.00    +0.000 A 
ATOM     10  C   UNL     1       0.441  13.410  19.494  0.00  0.00    +0.000 A 
ATOM     11  C   UNL     1       1.483  14.282  19.235  0.00  0.00    +0.000 A 
ATOM     12  C   UNL     1       2.569  13.862  18.492  0.00  0.00    +0.000 A 
ATOM     13  C   UNL     1       2.706  12.507  18.046  0.00  0.00    +0.000 A 
ATOM     14  C   UNL     1       1.723  11.546  18.387  0.00  0.00    +0.000 A 
ENDBRANCH   2   3
BRANCH   1  17
ATOM     15  C   UNL     1       4.738   4.661  18.405  0.00  0.00    +0.000 A 
ATOM     16  C   UNL     1       4.269   6.020  18.429  0.00  0.00    +0.000 A 
ATOM     17  C   UNL     1       2.914   6.340  18.266  0.00  0.00    +0.000 A 
ATOM     18  C   UNL     1       2.066   5.244  17.969  0.00  0.00    +0.000 A 
ATOM     19  C   UNL     1       2.497   3.897  17.959  0.00  0.00    +0.000 A 
ATOM     20  C   UNL     1       3.845   3.586  18.184  0.00  0.00    +0.000 A 
BRANCH  15  22
ATOM     21  C   UNL     1       6.986   4.670  17.560  0.00  0.00    +0.000 C 
ATOM     22  O   UNL     1       6.056   4.308  18.566  0.00  0.00    +0.000 OA
ENDBRANCH  15  22
BRANCH  19  23
ATOM     23  O   UNL     1       1.488   2.999  17.679  0.00  0.00    +0.000 OA
ATOM     24  C   UNL     1       0.702   2.529  18.775  0.00  0.00    +0.000 C 
ENDBRANCH  19  23
BRANCH  20  25
ATOM     25  O   UNL     1       4.166   2.260  18.062  0.00  0.00    +0.000 OA
ATOM     26  C   UNL     1       4.151   1.361  19.159  0.00  0.00    +0.000 C 
ENDBRANCH  20  25
ENDBRANCH   1  17
TORSDOF 5
ENDMDL
MODEL 6
REMARK VINA RESULT:      -7.8      1.569      3.533
REMARK  Name = 
REMARK  9 active torsions:
REMARK  status: ('A' for Active; 'I' for Inactive)
REMARK    1  A    between atoms: C_1  and  O_2
REMARK    2  A    between atoms: O_2  and  C_3
REMARK    3  A    between atoms: C_5  and  C_6
REMARK    4  A    between atoms: C_7  and  C_8
REMARK    5  A    between atoms: C_11  and  C_12
REMARK    6  A    between atoms: C_21  and  O_22
REMARK    7  A    between atoms: O_22  and  C_23
REMARK    8  A    between atoms: C_24  and  O_25
REMARK    9  A    between atoms: O_25  and  C_26
REMARK                            x       y       z     vdW  Elec       q    Type
REMARK                         _______ _______ _______ _____ _____    ______ ____
ROOT
ATOM      1  C   UNL     1       2.130   8.162  18.357  0.00  0.00    +0.000 C 
ATOM      2  C   UNL     1       1.328   9.180  17.903  0.00  0.00    +0.000 C 
ENDROOT
BRANCH   2   3
ATOM      3  C   UNL     1       0.460   9.994  18.780  0.00  0.00    +0.000 A 
ATOM      4  C   UNL     1       1.005  10.647  19.876  0.00  0.00    +0.000 A 
ATOM      5  N   UNL     1      -0.048  10.786  20.774  0.00  0.00    +0.000 N 
ATOM      6  C   UNL     1      -0.132  10.384  22.114  0.00  0.00    +0.000 C 
ATOM      7  C   UNL     1       0.795   9.268  22.491  0.00  0.00    +0.000 C 
ATOM      8  O   UNL     1      -1.056  10.775  22.813  0.00  0.00    +0.000 OA
ATOM      9  C   UNL     1      -1.077  11.244  19.986  0.00  0.00    +0.000 A 
ATOM     10  C   UNL     1      -2.154  12.076  20.318  0.00  0.00    +0.000 A 
ATOM     11  C   UNL     1      -3.167  12.195  19.383  0.00  0.00    +0.000 A 
ATOM     12  C   UNL     1      -3.128  11.449  18.221  0.00  0.00    +0.000 A 
ATOM     13  C   UNL     1      -2.014  10.610  17.896  0.00  0.00    +0.000 A 
ATOM     14  C   UNL     1      -0.896  10.545  18.764  0.00  0.00    +0.000 A 
ENDBRANCH   2   3
BRANCH   1  17
ATOM     15  C   UNL     1       5.444   6.513  17.054  0.00  0.00    +0.000 A 
ATOM     16  C   UNL     1       4.491   7.533  17.394  0.00  0.00    +0.000 A 
ATOM     17  C   UNL     1       3.194   7.221  17.825  0.00  0.00    +0.000 A 
ATOM     18  C   UNL     1       2.862   5.844  17.796  0.00  0.00    +0.000 A 
ATOM     19  C   UNL     1       3.786   4.820  17.485  0.00  0.00    +0.000 A 
ATOM     20  C   UNL     1       5.099   5.142  17.114  0.00  0.00    +0.000 A 
BRANCH  15  22
ATOM     21  C   UNL     1       7.541   7.623  17.427  0.00  0.00    +0.000 C 
ATOM     22  O   UNL     1       6.725   6.779  16.634  0.00  0.00    +0.000 OA
ENDBRANCH  15  22
BRANCH  19  23
ATOM     23  O   UNL     1       3.246   3.552  17.554  0.00  0.00    +0.000 OA
ATOM     24  C   UNL     1       3.325   2.870  18.807  0.00  0.00    +0.000 C 
ENDBRANCH  19  23
BRANCH  20  25
ATOM     25  O   UNL     1       5.880   4.078  16.748  0.00  0.00    +0.000 OA
ATOM     26  C   UNL     1       6.065   3.689  15.397  0.00  0.00    +0.000 C 
ENDBRANCH  20  25
ENDBRANCH   1  17
TORSDOF 5
ENDMDL
MODEL 7
REMARK VINA RESULT:      -7.8      2.513      8.867
REMARK  Name = 
REMARK  9 active torsions:
REMARK  status: ('A' for Active; 'I' for Inactive)
REMARK    1  A    between atoms: C_1  and  O_2
REMARK    2  A    between atoms: O_2  and  C_3
REMARK    3  A    between atoms: C_5  and  C_6
REMARK    4  A    between atoms: C_7  and  C_8
REMARK    5  A    between atoms: C_11  and  C_12
REMARK    6  A    between atoms: C_21  and  O_22
REMARK    7  A    between atoms: O_22  and  C_23
REMARK    8  A    between atoms: C_24  and  O_25
REMARK    9  A    between atoms: O_25  and  C_26
REMARK                            x       y       z     vdW  Elec       q    Type
REMARK                         _______ _______ _______ _____ _____    ______ ____
ROOT
ATOM      1  C   UNL     1       1.718   8.636  18.822  0.00  0.00    +0.000 C 
ATOM      2  C   UNL     1       2.605   8.244  17.851  0.00  0.00    +0.000 C 
ENDROOT
BRANCH   2   3
ATOM      3  C   UNL     1       3.324   6.953  17.868  0.00  0.00    +0.000 A 
ATOM      4  C   UNL     1       2.609   5.768  17.972  0.00  0.00    +0.000 A 
ATOM      5  N   UNL     1       3.493   4.862  18.549  0.00  0.00    +0.000 N 
ATOM      6  C   UNL     1       3.336   4.077  19.700  0.00  0.00    +0.000 C 
ATOM      7  C   UNL     1       2.337   4.605  20.684  0.00  0.00    +0.000 C 
ATOM      8  O   UNL     1       4.133   3.182  19.942  0.00  0.00    +0.000 OA
ATOM      9  C   UNL     1       4.651   5.051  17.832  0.00  0.00    +0.000 A 
ATOM     10  C   UNL     1       5.670   4.140  17.524  0.00  0.00    +0.000 A 
ATOM     11  C   UNL     1       6.831   4.657  16.979  0.00  0.00    +0.000 A 
ATOM     12  C   UNL     1       6.980   6.023  16.835  0.00  0.00    +0.000 A 
ATOM     13  C   UNL     1       5.924   6.938  17.148  0.00  0.00    +0.000 A 
ATOM     14  C   UNL     1       4.672   6.451  17.598  0.00  0.00    +0.000 A 
ENDBRANCH   2   3
BRANCH   1  17
ATOM     15  C   UNL     1      -1.123  11.338  18.638  0.00  0.00    +0.000 A 
ATOM     16  C   UNL     1      -0.151  10.373  18.202  0.00  0.00    +0.000 A 
ATOM     17  C   UNL     1       0.745   9.767  19.094  0.00  0.00    +0.000 A 
ATOM     18  C   UNL     1       0.695  10.254  20.423  0.00  0.00    +0.000 A 
ATOM     19  C   UNL     1      -0.263  11.188  20.883  0.00  0.00    +0.000 A 
ATOM     20  C   UNL     1      -1.193  11.740  19.993  0.00  0.00    +0.000 A 
BRANCH  15  22
ATOM     21  C   UNL     1      -2.533  11.214  16.698  0.00  0.00    +0.000 C 
ATOM     22  O   UNL     1      -2.020  11.949  17.795  0.00  0.00    +0.000 OA
ENDBRANCH  15  22
BRANCH  19  23
ATOM     23  O   UNL     1      -0.140  11.487  22.224  0.00  0.00    +0.000 OA
ATOM     24  C   UNL     1      -0.841  10.657  23.152  0.00  0.00    +0.000 C 
ENDBRANCH  19  23
BRANCH  20  25
ATOM     25  O   UNL     1      -2.014  12.699  20.526  0.00  0.00    +0.000 OA
ATOM     26  C   UNL     1      -3.347  12.432  20.930  0.00  0.00    +0.000 C 
ENDBRANCH  20  25
ENDBRANCH   1  17
TORSDOF 5
ENDMDL
MODEL 8
REMARK VINA RESULT:      -7.8      1.889      2.965
REMARK  Name = 
REMARK  9 active torsions:
REMARK  status: ('A' for Active; 'I' for Inactive)
REMARK    1  A    between atoms: C_1  and  O_2
REMARK    2  A    between atoms: O_2  and  C_3
REMARK    3  A    between atoms: C_5  and  C_6
REMARK    4  A    between atoms: C_7  and  C_8
REMARK    5  A    between atoms: C_11  and  C_12
REMARK    6  A    between atoms: C_21  and  O_22
REMARK    7  A    between atoms: O_22  and  C_23
REMARK    8  A    between atoms: C_24  and  O_25
REMARK    9  A    between atoms: O_25  and  C_26
REMARK                            x       y       z     vdW  Elec       q    Type
REMARK                         _______ _______ _______ _____ _____    ______ ____
ROOT
ATOM      1  C   UNL     1       2.225   7.859  18.554  0.00  0.00    +0.000 C 
ATOM      2  C   UNL     1       1.557   8.787  17.793  0.00  0.00    +0.000 C 
ENDROOT
BRANCH   2   3
ATOM      3  C   UNL     1       0.540   9.713  18.334  0.00  0.00    +0.000 A 
ATOM      4  C   UNL     1       0.907  10.670  19.269  0.00  0.00    +0.000 A 
ATOM      5  N   UNL     1      -0.253  10.935  19.989  0.00  0.00    +0.000 N 
ATOM      6  C   UNL     1      -0.473  10.880  21.373  0.00  0.00    +0.000 C 
ATOM      7  C   UNL     1       0.470   9.987  22.120  0.00  0.00    +0.000 C 
ATOM      8  O   UNL     1      -1.498  11.349  21.847  0.00  0.00    +0.000 OA
ATOM      9  C   UNL     1      -1.207  11.082  19.009  0.00  0.00    +0.000 A 
ATOM     10  C   UNL     1      -2.366  11.868  19.001  0.00  0.00    +0.000 A 
ATOM     11  C   UNL     1      -3.264  11.652  17.971  0.00  0.00    +0.000 A 
ATOM     12  C   UNL     1      -3.038  10.643  17.056  0.00  0.00    +0.000 A 
ATOM     13  C   UNL     1      -1.842   9.854  17.076  0.00  0.00    +0.000 A 
ATOM     14  C   UNL     1      -0.836  10.114  18.038  0.00  0.00    +0.000 A 
ENDBRANCH   2   3
BRANCH   1  17
ATOM     15  C   UNL     1       4.699   4.832  18.904  0.00  0.00    +0.000 A 
ATOM     16  C   UNL     1       3.683   5.789  19.250  0.00  0.00    +0.000 A 
ATOM     17  C   UNL     1       3.357   6.861  18.407  0.00  0.00    +0.000 A 
ATOM     18  C   UNL     1       4.170   6.992  17.254  0.00  0.00    +0.000 A 
ATOM     19  C   UNL     1       5.161   6.055  16.881  0.00  0.00    +0.000 A 
ATOM     20  C   UNL     1       5.435   4.953  17.703  0.00  0.00    +0.000 A 
BRANCH  15  22
ATOM     21  C   UNL     1       4.129   2.691  19.831  0.00  0.00    +0.000 C 
ATOM     22  O   UNL     1       5.042   3.767  19.701  0.00  0.00    +0.000 OA
ENDBRANCH  15  22
BRANCH  19  23
ATOM     23  O   UNL     1       5.801   6.371  15.701  0.00  0.00    +0.000 OA
ATOM     24  C   UNL     1       5.643   5.471  14.603  0.00  0.00    +0.000 C 
ENDBRANCH  19  23
BRANCH  20  25
ATOM     25  O   UNL     1       6.474   4.161  17.290  0.00  0.00    +0.000 OA
ATOM     26  C   UNL     1       7.827   4.438  17.612  0.00  0.00    +0.000 C 
ENDBRANCH  20  25
ENDBRANCH   1  17
TORSDOF 5
ENDMDL
MODEL 9
REMARK VINA RESULT:      -7.8      2.246      8.724
REMARK  Name = 
REMARK  9 active torsions:
REMARK  status: ('A' for Active; 'I' for Inactive)
REMARK    1  A    between atoms: C_1  and  O_2
REMARK    2  A    between atoms: O_2  and  C_3
REMARK    3  A    between atoms: C_5  and  C_6
REMARK    4  A    between atoms: C_7  and  C_8
REMARK    5  A    between atoms: C_11  and  C_12
REMARK    6  A    between atoms: C_21  and  O_22
REMARK    7  A    between atoms: O_22  and  C_23
REMARK    8  A    between atoms: C_24  and  O_25
REMARK    9  A    between atoms: O_25  and  C_26
REMARK                            x       y       z     vdW  Elec       q    Type
REMARK                         _______ _______ _______ _____ _____    ______ ____
ROOT
ATOM      1  C   UNL     1       1.670   8.123  19.124  0.00  0.00    +0.000 C 
ATOM      2  C   UNL     1       2.493   7.755  18.089  0.00  0.00    +0.000 C 
ENDROOT
BRANCH   2   3
ATOM      3  C   UNL     1       3.061   6.399  17.934  0.00  0.00    +0.000 A 
ATOM      4  C   UNL     1       4.438   6.228  17.901  0.00  0.00    +0.000 A 
ATOM      5  N   UNL     1       4.638   5.056  17.180  0.00  0.00    +0.000 N 
ATOM      6  C   UNL     1       5.427   4.836  16.042  0.00  0.00    +0.000 C 
ATOM      7  C   UNL     1       5.698   6.062  15.224  0.00  0.00    +0.000 C 
ATOM      8  O   UNL     1       5.651   3.695  15.665  0.00  0.00    +0.000 OA
ATOM      9  C   UNL     1       3.725   4.186  17.730  0.00  0.00    +0.000 A 
ATOM     10  C   UNL     1       3.788   2.793  17.865  0.00  0.00    +0.000 A 
ATOM     11  C   UNL     1       2.628   2.148  18.253  0.00  0.00    +0.000 A 
ATOM     12  C   UNL     1       1.458   2.863  18.412  0.00  0.00    +0.000 A 
ATOM     13  C   UNL     1       1.415   4.289  18.277  0.00  0.00    +0.000 A 
ATOM     14  C   UNL     1       2.601   5.011  17.997  0.00  0.00    +0.000 A 
ENDBRANCH   2   3
BRANCH   1  17
ATOM     15  C   UNL     1       0.003  11.101  21.064  0.00  0.00    +0.000 A 
ATOM     16  C   UNL     1       0.719   9.875  20.833  0.00  0.00    +0.000 A 
ATOM     17  C   UNL     1       0.836   9.315  19.554  0.00  0.00    +0.000 A 
ATOM     18  C   UNL     1       0.112   9.980  18.534  0.00  0.00    +0.000 A 
ATOM     19  C   UNL     1      -0.583  11.197  18.730  0.00  0.00    +0.000 A 
ATOM     20  C   UNL     1      -0.641  11.779  20.003  0.00  0.00    +0.000 A 
BRANCH  15  22
ATOM     21  C   UNL     1      -1.144  11.213  23.170  0.00  0.00    +0.000 C 
ATOM     22  O   UNL     1      -0.129  11.683  22.302  0.00  0.00    +0.000 OA
ENDBRANCH  15  22
BRANCH  19  23
ATOM     23  O   UNL     1      -1.184  11.677  17.585  0.00  0.00    +0.000 OA
ATOM     24  C   UNL     1      -2.302  10.950  17.072  0.00  0.00    +0.000 C 
ENDBRANCH  19  23
BRANCH  20  25
ATOM     25  O   UNL     1      -1.414  12.907  20.095  0.00  0.00    +0.000 OA
ATOM     26  C   UNL     1      -2.813  12.862  20.325  0.00  0.00    +0.000 C 
ENDBRANCH  20  25
ENDBRANCH   1  17
TORSDOF 5
ENDMDL
