MODEL 1
REMARK VINA RESULT:      -7.3      0.000      0.000
REMARK  Name = 
REMARK  5 active torsions:
REMARK  status: ('A' for Active; 'I' for Inactive)
REMARK    1  A    between atoms: C_1  and  C_2
REMARK    2  A    between atoms: C_2  and  N_3
REMARK    3  A    between atoms: C_9  and  N_10
REMARK    4  A    between atoms: N_13  and  C_14
REMARK    5  A    between atoms: C_21  and  C_22
REMARK                            x       y       z     vdW  Elec       q    Type
REMARK                         _______ _______ _______ _____ _____    ______ ____
ROOT
ATOM      1  N   UNL     1      -3.439  13.718  22.918  0.00  0.00    +0.000 NA
ATOM      2  C   UNL     1      -2.422  14.690  22.445  0.00  0.00    +0.000 C 
ATOM      3  C   UNL     1      -1.438  14.144  21.377  0.00  0.00    +0.000 C 
ATOM      4  C   UNL     1      -1.006  12.729  21.685  0.00  0.00    +0.000 A 
ATOM      5  C   UNL     1      -1.629  12.036  22.713  0.00  0.00    +0.000 A 
ATOM      6  S   UNL     1      -0.977  10.483  22.928  0.00  0.00    +0.000 S 
ATOM      7  C   UNL     1       0.182  10.754  21.709  0.00  0.00    +0.000 A 
ATOM      8  C   UNL     1      -0.039  11.899  20.966  0.00  0.00    +0.000 A 
ATOM      9  C   UNL     1      -2.745  12.574  23.566  0.00  0.00    +0.000 C 
ENDROOT
BRANCH   8  10
ATOM     10  C   UNL     1       0.590  12.327  19.703  0.00  0.00    +0.000 C 
ATOM     11  O   UNL     1       0.113  11.945  18.634  0.00  0.00    +0.000 OA
ATOM     12  N   UNL     1       1.806  13.035  19.699  0.00  0.00    +0.000 N 
ATOM     13  C   UNL     1       2.611  13.531  20.820  0.00  0.00    +0.000 C 
ATOM     14  C   UNL     1       2.887  15.031  20.624  0.00  0.00    +0.000 C 
ATOM     15  O   UNL     1       3.567  15.273  19.384  0.00  0.00    +0.000 OA
ATOM     16  C   UNL     1       2.757  14.818  18.281  0.00  0.00    +0.000 C 
ATOM     17  C   UNL     1       2.456  13.320  18.412  0.00  0.00    +0.000 C 
ENDBRANCH   8  10
BRANCH   7  18
ATOM     18  N   UNL     1       1.120   9.736  21.675  0.00  0.00    +0.000 N 
ATOM     19  C   UNL     1       1.081   8.788  20.669  0.00  0.00    +0.000 C 
ATOM     20  O   UNL     1       0.328   8.836  19.703  0.00  0.00    +0.000 OA
ATOM     21  N   UNL     1       1.966   7.747  20.942  0.00  0.00    +0.000 N 
ATOM     22  H   UNL     1       2.044   9.985  21.997  0.00  0.00    +0.000 HD
ATOM     23  H   UNL     1       2.147   7.595  21.926  0.00  0.00    +0.000 HD
BRANCH  21  24
ATOM     24  C   UNL     1       2.156   6.639  20.089  0.00  0.00    +0.000 A 
ATOM     25  C   UNL     1       2.786   6.766  18.849  0.00  0.00    +0.000 A 
ATOM     26  C   UNL     1       2.919   5.663  18.004  0.00  0.00    +0.000 A 
ATOM     27  C   UNL     1       2.422   4.427  18.400  0.00  0.00    +0.000 A 
ATOM     28 CL   UNL     1       2.551   3.077  17.341  0.00  0.00    +0.000 Cl
ATOM     29  C   UNL     1       1.814   4.280  19.645  0.00  0.00    +0.000 A 
ATOM     30  C   UNL     1       1.697   5.381  20.498  0.00  0.00    +0.000 A 
ENDBRANCH  21  24
ENDBRANCH   7  18
BRANCH   1  32
ATOM     31  C   UNL     1      -5.777  13.016  22.318  0.00  0.00    +0.000 C 
ATOM     32  C   UNL     1      -4.343  13.245  21.854  0.00  0.00    +0.000 C 
ENDBRANCH   1  32
TORSDOF 4
ENDMDL
MODEL 2
REMARK VINA RESULT:      -7.1      4.259     10.109
REMARK  Name = 
REMARK  5 active torsions:
REMARK  status: ('A' for Active; 'I' for Inactive)
REMARK    1  A    between atoms: C_1  and  C_2
REMARK    2  A    between atoms: C_2  and  N_3
REMARK    3  A    between atoms: C_9  and  N_10
REMARK    4  A    between atoms: N_13  and  C_14
REMARK    5  A    between atoms: C_21  and  C_22
REMARK                            x       y       z     vdW  Elec       q    Type
REMARK                         _______ _______ _______ _____ _____    ______ ____
ROOT
ATOM      1  N   UNL     1       6.606   5.326  15.681  0.00  0.00    +0.000 NA
ATOM      2  C   UNL     1       6.396   4.240  16.669  0.00  0.00    +0.000 C 
ATOM      3  C   UNL     1       4.939   4.089  17.180  0.00  0.00    +0.000 C 
ATOM      4  C   UNL     1       4.289   5.433  17.424  0.00  0.00    +0.000 A 
ATOM      5  C   UNL     1       4.942   6.587  17.018  0.00  0.00    +0.000 A 
ATOM      6  S   UNL     1       4.072   7.990  17.417  0.00  0.00    +0.000 S 
ATOM      7  C   UNL     1       2.865   7.074  18.193  0.00  0.00    +0.000 A 
ATOM      8  C   UNL     1       2.961   5.712  17.970  0.00  0.00    +0.000 A 
ATOM      9  C   UNL     1       6.273   6.627  16.319  0.00  0.00    +0.000 C 
ENDROOT
BRANCH   8  10
ATOM     10  C   UNL     1       1.984   4.647  18.266  0.00  0.00    +0.000 C 
ATOM     11  O   UNL     1       1.348   4.143  17.339  0.00  0.00    +0.000 OA
ATOM     12  N   UNL     1       1.658   4.305  19.590  0.00  0.00    +0.000 N 
ATOM     13  C   UNL     1       2.204   4.810  20.854  0.00  0.00    +0.000 C 
ATOM     14  C   UNL     1       2.667   3.624  21.718  0.00  0.00    +0.000 C 
ATOM     15  O   UNL     1       1.584   2.718  21.974  0.00  0.00    +0.000 OA
ATOM     16  C   UNL     1       1.074   2.195  20.731  0.00  0.00    +0.000 C 
ATOM     17  C   UNL     1       0.582   3.332  19.827  0.00  0.00    +0.000 C 
ENDBRANCH   8  10
BRANCH   7  18
ATOM     18  N   UNL     1       1.982   7.888  18.882  0.00  0.00    +0.000 N 
ATOM     19  C   UNL     1       1.758   9.185  18.458  0.00  0.00    +0.000 C 
ATOM     20  O   UNL     1       2.202   9.659  17.419  0.00  0.00    +0.000 OA
ATOM     21  N   UNL     1       1.015   9.888  19.404  0.00  0.00    +0.000 N 
ATOM     22  H   UNL     1       1.183   7.421  19.284  0.00  0.00    +0.000 HD
ATOM     23  H   UNL     1       1.126   9.561  20.355  0.00  0.00    +0.000 HD
BRANCH  21  24
ATOM     24  C   UNL     1       0.619  11.233  19.244  0.00  0.00    +0.000 A 
ATOM     25  C   UNL     1      -0.569  11.577  18.593  0.00  0.00    +0.000 A 
ATOM     26  C   UNL     1      -0.914  12.916  18.408  0.00  0.00    +0.000 A 
ATOM     27  C   UNL     1      -0.071  13.917  18.874  0.00  0.00    +0.000 A 
ATOM     28 CL   UNL     1      -0.478  15.568  18.608  0.00  0.00    +0.000 Cl
ATOM     29  C   UNL     1       1.105  13.590  19.546  0.00  0.00    +0.000 A 
ATOM     30  C   UNL     1       1.441  12.248  19.749  0.00  0.00    +0.000 A 
ENDBRANCH  21  24
ENDBRANCH   7  18
BRANCH   1  32
ATOM     31  C   UNL     1       6.153   3.846  13.700  0.00  0.00    +0.000 C 
ATOM     32  C   UNL     1       5.841   5.146  14.434  0.00  0.00    +0.000 C 
ENDBRANCH   1  32
TORSDOF 4
ENDMDL
MODEL 3
REMARK VINA RESULT:      -6.9      4.211      9.902
REMARK  Name = 
REMARK  5 active torsions:
REMARK  status: ('A' for Active; 'I' for Inactive)
REMARK    1  A    between atoms: C_1  and  C_2
REMARK    2  A    between atoms: C_2  and  N_3
REMARK    3  A    between atoms: C_9  and  N_10
REMARK    4  A    between atoms: N_13  and  C_14
REMARK    5  A    between atoms: C_21  and  C_22
REMARK                            x       y       z     vdW  Elec       q    Type
REMARK                         _______ _______ _______ _____ _____    ______ ____
ROOT
ATOM      1  N   UNL     1       7.140   4.829  16.814  0.00  0.00    +0.000 NA
ATOM      2  C   UNL     1       6.648   4.130  18.027  0.00  0.00    +0.000 C 
ATOM      3  C   UNL     1       5.104   4.097  18.185  0.00  0.00    +0.000 C 
ATOM      4  C   UNL     1       4.473   5.414  17.795  0.00  0.00    +0.000 A 
ATOM      5  C   UNL     1       5.254   6.392  17.198  0.00  0.00    +0.000 A 
ATOM      6  S   UNL     1       4.374   7.808  16.876  0.00  0.00    +0.000 S 
ATOM      7  C   UNL     1       2.975   7.155  17.594  0.00  0.00    +0.000 A 
ATOM      8  C   UNL     1       3.065   5.803  17.873  0.00  0.00    +0.000 A 
ATOM      9  C   UNL     1       6.717   6.253  16.875  0.00  0.00    +0.000 C 
ENDROOT
BRANCH   8  10
ATOM     10  C   UNL     1       2.000   4.858  18.260  0.00  0.00    +0.000 C 
ATOM     11  O   UNL     1       1.241   4.422  17.394  0.00  0.00    +0.000 OA
ATOM     12  N   UNL     1       1.743   4.565  19.611  0.00  0.00    +0.000 N 
ATOM     13  C   UNL     1       2.439   5.014  20.821  0.00  0.00    +0.000 C 
ATOM     14  C   UNL     1       2.832   3.789  21.665  0.00  0.00    +0.000 C 
ATOM     15  O   UNL     1       1.678   3.014  22.019  0.00  0.00    +0.000 OA
ATOM     16  C   UNL     1       1.017   2.543  20.828  0.00  0.00    +0.000 C 
ATOM     17  C   UNL     1       0.586   3.721  19.946  0.00  0.00    +0.000 C 
ENDBRANCH   8  10
BRANCH   7  18
ATOM     18  N   UNL     1       1.987   8.114  17.730  0.00  0.00    +0.000 N 
ATOM     19  C   UNL     1       1.673   8.616  18.980  0.00  0.00    +0.000 C 
ATOM     20  O   UNL     1       2.296   8.360  20.004  0.00  0.00    +0.000 OA
ATOM     21  N   UNL     1       0.520   9.396  18.919  0.00  0.00    +0.000 N 
ATOM     22  H   UNL     1       1.912   8.773  16.969  0.00  0.00    +0.000 HD
ATOM     23  H   UNL     1      -0.120   9.145  18.177  0.00  0.00    +0.000 HD
BRANCH  21  24
ATOM     24  C   UNL     1      -0.038  10.053  20.036  0.00  0.00    +0.000 A 
ATOM     25  C   UNL     1       0.036   9.509  21.321  0.00  0.00    +0.000 A 
ATOM     26  C   UNL     1      -0.565  10.157  22.402  0.00  0.00    +0.000 A 
ATOM     27  C   UNL     1      -1.242  11.354  22.199  0.00  0.00    +0.000 A 
ATOM     28 CL   UNL     1      -2.017  12.130  23.525  0.00  0.00    +0.000 Cl
ATOM     29  C   UNL     1      -1.302  11.921  20.928  0.00  0.00    +0.000 A 
ATOM     30  C   UNL     1      -0.685  11.281  19.849  0.00  0.00    +0.000 A 
ENDBRANCH  21  24
ENDBRANCH   7  18
BRANCH   1  32
ATOM     31  C   UNL     1       7.021   5.028  14.311  0.00  0.00    +0.000 C 
ATOM     32  C   UNL     1       6.697   4.206  15.553  0.00  0.00    +0.000 C 
ENDBRANCH   1  32
TORSDOF 4
ENDMDL
MODEL 4
REMARK VINA RESULT:      -6.8      3.905      8.985
REMARK  Name = 
REMARK  5 active torsions:
REMARK  status: ('A' for Active; 'I' for Inactive)
REMARK    1  A    between atoms: C_1  and  C_2
REMARK    2  A    between atoms: C_2  and  N_3
REMARK    3  A    between atoms: C_9  and  N_10
REMARK    4  A    between atoms: N_13  and  C_14
REMARK    5  A    between atoms: C_21  and  C_22
REMARK                            x       y       z     vdW  Elec       q    Type
REMARK                         _______ _______ _______ _____ _____    ______ ____
ROOT
ATOM      1  N   UNL     1       1.734   2.056  19.080  0.00  0.00    +0.000 NA
ATOM      2  C   UNL     1       1.727   2.654  17.722  0.00  0.00    +0.000 C 
ATOM      3  C   UNL     1       2.519   3.981  17.585  0.00  0.00    +0.000 C 
ATOM      4  C   UNL     1       2.311   4.883  18.780  0.00  0.00    +0.000 A 
ATOM      5  C   UNL     1       1.635   4.398  19.889  0.00  0.00    +0.000 A 
ATOM      6  S   UNL     1       1.469   5.572  21.105  0.00  0.00    +0.000 S 
ATOM      7  C   UNL     1       2.228   6.747  20.134  0.00  0.00    +0.000 A 
ATOM      8  C   UNL     1       2.822   6.237  18.994  0.00  0.00    +0.000 A 
ATOM      9  C   UNL     1       1.087   3.004  20.025  0.00  0.00    +0.000 C 
ENDROOT
BRANCH   8  10
ATOM     10  C   UNL     1       3.758   6.890  18.059  0.00  0.00    +0.000 C 
ATOM     11  O   UNL     1       3.345   7.789  17.325  0.00  0.00    +0.000 OA
ATOM     12  N   UNL     1       5.067   6.406  17.883  0.00  0.00    +0.000 N 
ATOM     13  C   UNL     1       5.766   5.311  18.563  0.00  0.00    +0.000 C 
ATOM     14  C   UNL     1       7.101   5.830  19.123  0.00  0.00    +0.000 C 
ATOM     15  O   UNL     1       7.925   6.367  18.078  0.00  0.00    +0.000 OA
ATOM     16  C   UNL     1       7.250   7.467  17.435  0.00  0.00    +0.000 C 
ATOM     17  C   UNL     1       5.912   7.010  16.842  0.00  0.00    +0.000 C 
ENDBRANCH   8  10
BRANCH   7  18
ATOM     18  N   UNL     1       2.130   8.006  20.702  0.00  0.00    +0.000 N 
ATOM     19  C   UNL     1       0.889   8.563  20.947  0.00  0.00    +0.000 C 
ATOM     20  O   UNL     1      -0.175   7.972  20.805  0.00  0.00    +0.000 OA
ATOM     21  N   UNL     1       1.017   9.902  21.313  0.00  0.00    +0.000 N 
ATOM     22  H   UNL     1       2.847   8.236  21.374  0.00  0.00    +0.000 HD
ATOM     23  H   UNL     1       1.838  10.363  20.943  0.00  0.00    +0.000 HD
BRANCH  21  24
ATOM     24  C   UNL     1      -0.078  10.731  21.637  0.00  0.00    +0.000 A 
ATOM     25  C   UNL     1      -0.659  10.717  22.908  0.00  0.00    +0.000 A 
ATOM     26  C   UNL     1      -1.771  11.513  23.189  0.00  0.00    +0.000 A 
ATOM     27  C   UNL     1      -2.304  12.328  22.197  0.00  0.00    +0.000 A 
ATOM     28 CL   UNL     1      -3.699  13.278  22.533  0.00  0.00    +0.000 Cl
ATOM     29  C   UNL     1      -1.720  12.371  20.933  0.00  0.00    +0.000 A 
ATOM     30  C   UNL     1      -0.596  11.587  20.657  0.00  0.00    +0.000 A 
ENDBRANCH  21  24
ENDBRANCH   7  18
BRANCH   1  32
ATOM     31  C   UNL     1       3.960   1.053  18.481  0.00  0.00    +0.000 C 
ATOM     32  C   UNL     1       3.079   1.683  19.554  0.00  0.00    +0.000 C 
ENDBRANCH   1  32
TORSDOF 4
ENDMDL
MODEL 5
REMARK VINA RESULT:      -6.6      3.878      8.974
REMARK  Name = 
REMARK  5 active torsions:
REMARK  status: ('A' for Active; 'I' for Inactive)
REMARK    1  A    between atoms: C_1  and  C_2
REMARK    2  A    between atoms: C_2  and  N_3
REMARK    3  A    between atoms: C_9  and  N_10
REMARK    4  A    between atoms: N_13  and  C_14
REMARK    5  A    between atoms: C_21  and  C_22
REMARK                            x       y       z     vdW  Elec       q    Type
REMARK                         _______ _______ _______ _____ _____    ______ ____
ROOT
ATOM      1  N   UNL     1       1.687   2.072  18.870  0.00  0.00    +0.000 NA
ATOM      2  C   UNL     1       1.818   2.660  17.514  0.00  0.00    +0.000 C 
ATOM      3  C   UNL     1       2.640   3.974  17.444  0.00  0.00    +0.000 C 
ATOM      4  C   UNL     1       2.334   4.888  18.609  0.00  0.00    +0.000 A 
ATOM      5  C   UNL     1       1.549   4.421  19.652  0.00  0.00    +0.000 A 
ATOM      6  S   UNL     1       1.287   5.606  20.840  0.00  0.00    +0.000 S 
ATOM      7  C   UNL     1       2.152   6.763  19.937  0.00  0.00    +0.000 A 
ATOM      8  C   UNL     1       2.844   6.236  18.862  0.00  0.00    +0.000 A 
ATOM      9  C   UNL     1       0.968   3.036  19.744  0.00  0.00    +0.000 C 
ENDROOT
BRANCH   8  10
ATOM     10  C   UNL     1       3.873   6.868  18.015  0.00  0.00    +0.000 C 
ATOM     11  O   UNL     1       3.554   7.801  17.278  0.00  0.00    +0.000 OA
ATOM     12  N   UNL     1       5.170   6.330  17.923  0.00  0.00    +0.000 N 
ATOM     13  C   UNL     1       5.768   5.189  18.623  0.00  0.00    +0.000 C 
ATOM     14  C   UNL     1       7.079   5.635  19.293  0.00  0.00    +0.000 C 
ATOM     15  O   UNL     1       8.001   6.159  18.326  0.00  0.00    +0.000 OA
ATOM     16  C   UNL     1       7.424   7.303  17.665  0.00  0.00    +0.000 C 
ATOM     17  C   UNL     1       6.115   6.920  16.964  0.00  0.00    +0.000 C 
ENDBRANCH   8  10
BRANCH   7  18
ATOM     18  N   UNL     1       2.020   8.028  20.486  0.00  0.00    +0.000 N 
ATOM     19  C   UNL     1       1.448   9.048  19.750  0.00  0.00    +0.000 C 
ATOM     20  O   UNL     1       0.922   8.899  18.653  0.00  0.00    +0.000 OA
ATOM     21  N   UNL     1       1.610  10.271  20.399  0.00  0.00    +0.000 N 
ATOM     22  H   UNL     1       1.835   8.054  21.478  0.00  0.00    +0.000 HD
ATOM     23  H   UNL     1       2.423  10.324  21.000  0.00  0.00    +0.000 HD
BRANCH  21  24
ATOM     24  C   UNL     1       1.118  11.494  19.896  0.00  0.00    +0.000 A 
ATOM     25  C   UNL     1       1.820  12.229  18.937  0.00  0.00    +0.000 A 
ATOM     26  C   UNL     1       1.333  13.459  18.490  0.00  0.00    +0.000 A 
ATOM     27  C   UNL     1       0.140  13.956  19.001  0.00  0.00    +0.000 A 
ATOM     28 CL   UNL     1      -0.437  15.491  18.479  0.00  0.00    +0.000 Cl
ATOM     29  C   UNL     1      -0.582  13.222  19.939  0.00  0.00    +0.000 A 
ATOM     30  C   UNL     1      -0.104  11.982  20.373  0.00  0.00    +0.000 A 
ENDBRANCH  21  24
ENDBRANCH   7  18
BRANCH   1  32
ATOM     31  C   UNL     1       3.993   1.155  18.465  0.00  0.00    +0.000 C 
ATOM     32  C   UNL     1       2.976   1.683  19.471  0.00  0.00    +0.000 C 
ENDBRANCH   1  32
TORSDOF 4
ENDMDL
MODEL 6
REMARK VINA RESULT:      -6.6      0.837      1.232
REMARK  Name = 
REMARK  5 active torsions:
REMARK  status: ('A' for Active; 'I' for Inactive)
REMARK    1  A    between atoms: C_1  and  C_2
REMARK    2  A    between atoms: C_2  and  N_3
REMARK    3  A    between atoms: C_9  and  N_10
REMARK    4  A    between atoms: N_13  and  C_14
REMARK    5  A    between atoms: C_21  and  C_22
REMARK                            x       y       z     vdW  Elec       q    Type
REMARK                         _______ _______ _______ _____ _____    ______ ____
ROOT
ATOM      1  N   UNL     1      -3.774  14.461  22.342  0.00  0.00    +0.000 NA
ATOM      2  C   UNL     1      -2.737  15.406  21.858  0.00  0.00    +0.000 C 
ATOM      3  C   UNL     1      -1.707  14.801  20.868  0.00  0.00    +0.000 C 
ATOM      4  C   UNL     1      -1.289  13.407  21.276  0.00  0.00    +0.000 A 
ATOM      5  C   UNL     1      -1.956  12.774  22.314  0.00  0.00    +0.000 A 
ATOM      6  S   UNL     1      -1.314  11.238  22.648  0.00  0.00    +0.000 S 
ATOM      7  C   UNL     1      -0.103  11.440  21.467  0.00  0.00    +0.000 A 
ATOM      8  C   UNL     1      -0.292  12.539  20.649  0.00  0.00    +0.000 A 
ATOM      9  C   UNL     1      -3.109  13.358  23.085  0.00  0.00    +0.000 C 
ENDROOT
BRANCH   8  10
ATOM     10  C   UNL     1       0.392  12.895  19.392  0.00  0.00    +0.000 C 
ATOM     11  O   UNL     1      -0.194  12.730  18.322  0.00  0.00    +0.000 OA
ATOM     12  N   UNL     1       1.746  13.275  19.383  0.00  0.00    +0.000 N 
ATOM     13  C   UNL     1       2.679  13.463  20.499  0.00  0.00    +0.000 C 
ATOM     14  C   UNL     1       3.320  14.858  20.395  0.00  0.00    +0.000 C 
ATOM     15  O   UNL     1       4.006  15.019  19.145  0.00  0.00    +0.000 OA
ATOM     16  C   UNL     1       3.080  14.870  18.052  0.00  0.00    +0.000 C 
ATOM     17  C   UNL     1       2.414  13.489  18.091  0.00  0.00    +0.000 C 
ENDBRANCH   8  10
BRANCH   7  18
ATOM     18  N   UNL     1       0.836  10.425  21.533  0.00  0.00    +0.000 N 
ATOM     19  C   UNL     1       0.847   9.425  20.578  0.00  0.00    +0.000 C 
ATOM     20  O   UNL     1       0.143   9.420  19.575  0.00  0.00    +0.000 OA
ATOM     21  N   UNL     1       1.717   8.402  20.949  0.00  0.00    +0.000 N 
ATOM     22  H   UNL     1       1.743  10.693  21.887  0.00  0.00    +0.000 HD
ATOM     23  H   UNL     1       1.849   8.303  21.947  0.00  0.00    +0.000 HD
BRANCH  21  24
ATOM     24  C   UNL     1       1.949   7.251  20.166  0.00  0.00    +0.000 A 
ATOM     25  C   UNL     1       1.651   5.970  20.637  0.00  0.00    +0.000 A 
ATOM     26  C   UNL     1       1.934   4.845  19.860  0.00  0.00    +0.000 A 
ATOM     27  C   UNL     1       2.515   5.000  18.607  0.00  0.00    +0.000 A 
ATOM     28 CL   UNL     1       2.900   3.611  17.668  0.00  0.00    +0.000 Cl
ATOM     29  C   UNL     1       2.794   6.273  18.114  0.00  0.00    +0.000 A 
ATOM     30  C   UNL     1       2.494   7.401  18.885  0.00  0.00    +0.000 A 
ENDBRANCH  21  24
ENDBRANCH   7  18
BRANCH   1  32
ATOM     31  C   UNL     1      -5.466  14.983  20.558  0.00  0.00    +0.000 C 
ATOM     32  C   UNL     1      -4.630  13.924  21.269  0.00  0.00    +0.000 C 
ENDBRANCH   1  32
TORSDOF 4
ENDMDL
MODEL 7
REMARK VINA RESULT:      -6.5      4.401     10.180
REMARK  Name = 
REMARK  5 active torsions:
REMARK  status: ('A' for Active; 'I' for Inactive)
REMARK    1  A    between atoms: C_1  and  C_2
REMARK    2  A    between atoms: C_2  and  N_3
REMARK    3  A    between atoms: C_9  and  N_10
REMARK    4  A    between atoms: N_13  and  C_14
REMARK    5  A    between atoms: C_21  and  C_22
REMARK                            x       y       z     vdW  Elec       q    Type
REMARK                         _______ _______ _______ _____ _____    ______ ____
ROOT
ATOM      1  N   UNL     1       6.434   4.293  14.968  0.00  0.00    +0.000 NA
ATOM      2  C   UNL     1       6.111   3.273  15.996  0.00  0.00    +0.000 C 
ATOM      3  C   UNL     1       4.730   3.448  16.683  0.00  0.00    +0.000 C 
ATOM      4  C   UNL     1       4.431   4.900  16.977  0.00  0.00    +0.000 A 
ATOM      5  C   UNL     1       5.269   5.883  16.472  0.00  0.00    +0.000 A 
ATOM      6  S   UNL     1       4.789   7.441  16.945  0.00  0.00    +0.000 S 
ATOM      7  C   UNL     1       3.513   6.811  17.880  0.00  0.00    +0.000 A 
ATOM      8  C   UNL     1       3.276   5.464  17.675  0.00  0.00    +0.000 A 
ATOM      9  C   UNL     1       6.480   5.630  15.615  0.00  0.00    +0.000 C 
ENDROOT
BRANCH   8  10
ATOM     10  C   UNL     1       2.130   4.642  18.108  0.00  0.00    +0.000 C 
ATOM     11  O   UNL     1       1.306   4.272  17.270  0.00  0.00    +0.000 OA
ATOM     12  N   UNL     1       1.881   4.401  19.471  0.00  0.00    +0.000 N 
ATOM     13  C   UNL     1       2.652   4.796  20.653  0.00  0.00    +0.000 C 
ATOM     14  C   UNL     1       2.939   3.552  21.512  0.00  0.00    +0.000 C 
ATOM     15  O   UNL     1       1.721   2.907  21.910  0.00  0.00    +0.000 OA
ATOM     16  C   UNL     1       0.983   2.487  20.745  0.00  0.00    +0.000 C 
ATOM     17  C   UNL     1       0.652   3.689  19.852  0.00  0.00    +0.000 C 
ENDBRANCH   8  10
BRANCH   7  18
ATOM     18  N   UNL     1       2.925   7.797  18.655  0.00  0.00    +0.000 N 
ATOM     19  C   UNL     1       1.671   8.281  18.329  0.00  0.00    +0.000 C 
ATOM     20  O   UNL     1       0.958   7.817  17.447  0.00  0.00    +0.000 OA
ATOM     21  N   UNL     1       1.365   9.403  19.097  0.00  0.00    +0.000 N 
ATOM     22  H   UNL     1       3.127   7.752  19.643  0.00  0.00    +0.000 HD
ATOM     23  H   UNL     1       2.169   9.933  19.409  0.00  0.00    +0.000 HD
BRANCH  21  24
ATOM     24  C   UNL     1       0.147  10.109  18.998  0.00  0.00    +0.000 A 
ATOM     25  C   UNL     1      -0.302  10.947  20.021  0.00  0.00    +0.000 A 
ATOM     26  C   UNL     1      -1.533  11.597  19.918  0.00  0.00    +0.000 A 
ATOM     27  C   UNL     1      -2.319  11.410  18.786  0.00  0.00    +0.000 A 
ATOM     28 CL   UNL     1      -3.854  12.180  18.678  0.00  0.00    +0.000 Cl
ATOM     29  C   UNL     1      -1.872  10.597  17.747  0.00  0.00    +0.000 A 
ATOM     30  C   UNL     1      -0.631   9.961  17.843  0.00  0.00    +0.000 A 
ENDBRANCH  21  24
ENDBRANCH   7  18
BRANCH   1  32
ATOM     31  C   UNL     1       5.990   3.497  12.625  0.00  0.00    +0.000 C 
ATOM     32  C   UNL     1       5.501   4.297  13.827  0.00  0.00    +0.000 C 
ENDBRANCH   1  32
TORSDOF 4
ENDMDL
MODEL 8
REMARK VINA RESULT:      -6.3      3.329      5.002
REMARK  Name = 
REMARK  5 active torsions:
REMARK  status: ('A' for Active; 'I' for Inactive)
REMARK    1  A    between atoms: C_1  and  C_2
REMARK    2  A    between atoms: C_2  and  N_3
REMARK    3  A    between atoms: C_9  and  N_10
REMARK    4  A    between atoms: N_13  and  C_14
REMARK    5  A    between atoms: C_21  and  C_22
REMARK                            x       y       z     vdW  Elec       q    Type
REMARK                         _______ _______ _______ _____ _____    ______ ____
ROOT
ATOM      1  N   UNL     1       1.149  15.562  19.688  0.00  0.00    +0.000 NA
ATOM      2  C   UNL     1      -0.212  15.419  19.113  0.00  0.00    +0.000 C 
ATOM      3  C   UNL     1      -0.787  13.978  19.137  0.00  0.00    +0.000 C 
ATOM      4  C   UNL     1       0.265  12.950  18.787  0.00  0.00    +0.000 A 
ATOM      5  C   UNL     1       1.590  13.344  18.672  0.00  0.00    +0.000 A 
ATOM      6  S   UNL     1       2.607  12.057  18.234  0.00  0.00    +0.000 S 
ATOM      7  C   UNL     1       1.283  10.991  18.124  0.00  0.00    +0.000 A 
ATOM      8  C   UNL     1       0.103  11.504  18.632  0.00  0.00    +0.000 A 
ATOM      9  C   UNL     1       2.097  14.744  18.888  0.00  0.00    +0.000 C 
ENDROOT
BRANCH   8  10
ATOM     10  C   UNL     1      -1.164  10.811  18.927  0.00  0.00    +0.000 C 
ATOM     11  O   UNL     1      -1.369  10.395  20.069  0.00  0.00    +0.000 OA
ATOM     12  N   UNL     1      -2.071  10.484  17.903  0.00  0.00    +0.000 N 
ATOM     13  C   UNL     1      -2.022  10.787  16.469  0.00  0.00    +0.000 C 
ATOM     14  C   UNL     1      -3.334  11.470  16.048  0.00  0.00    +0.000 C 
ATOM     15  O   UNL     1      -4.466  10.637  16.338  0.00  0.00    +0.000 OA
ATOM     16  C   UNL     1      -4.533  10.372  17.753  0.00  0.00    +0.000 C 
ATOM     17  C   UNL     1      -3.254   9.676  18.235  0.00  0.00    +0.000 C 
ENDBRANCH   8  10
BRANCH   7  18
ATOM     18  N   UNL     1       1.659   9.780  17.567  0.00  0.00    +0.000 N 
ATOM     19  C   UNL     1       1.902   8.688  18.380  0.00  0.00    +0.000 C 
ATOM     20  O   UNL     1       1.696   8.665  19.587  0.00  0.00    +0.000 OA
ATOM     21  N   UNL     1       2.471   7.649  17.646  0.00  0.00    +0.000 N 
ATOM     22  H   UNL     1       1.249   9.568  16.670  0.00  0.00    +0.000 HD
ATOM     23  H   UNL     1       3.000   7.945  16.836  0.00  0.00    +0.000 HD
BRANCH  21  24
ATOM     24  C   UNL     1       2.818   6.399  18.202  0.00  0.00    +0.000 A 
ATOM     25  C   UNL     1       4.017   6.210  18.894  0.00  0.00    +0.000 A 
ATOM     26  C   UNL     1       4.357   4.952  19.394  0.00  0.00    +0.000 A 
ATOM     27  C   UNL     1       3.496   3.878  19.203  0.00  0.00    +0.000 A 
ATOM     28 CL   UNL     1       3.935   2.319  19.785  0.00  0.00    +0.000 Cl
ATOM     29  C   UNL     1       2.285   4.057  18.537  0.00  0.00    +0.000 A 
ATOM     30  C   UNL     1       1.936   5.321  18.053  0.00  0.00    +0.000 A 
ENDBRANCH  21  24
ENDBRANCH   7  18
BRANCH   1  32
ATOM     31  C   UNL     1       2.640  15.245  21.687  0.00  0.00    +0.000 C 
ATOM     32  C   UNL     1       1.226  15.204  21.116  0.00  0.00    +0.000 C 
ENDBRANCH   1  32
TORSDOF 4
ENDMDL
MODEL 9
REMARK VINA RESULT:      -6.2      2.016      2.542
REMARK  Name = 
REMARK  5 active torsions:
REMARK  status: ('A' for Active; 'I' for Inactive)
REMARK    1  A    between atoms: C_1  and  C_2
REMARK    2  A    between atoms: C_2  and  N_3
REMARK    3  A    between atoms: C_9  and  N_10
REMARK    4  A    between atoms: N_13  and  C_14
REMARK    5  A    between atoms: C_21  and  C_22
REMARK                            x       y       z     vdW  Elec       q    Type
REMARK                         _______ _______ _______ _____ _____    ______ ____
ROOT
ATOM      1  N   UNL     1      -3.854  13.920  21.622  0.00  0.00    +0.000 NA
ATOM      2  C   UNL     1      -2.837  13.790  22.696  0.00  0.00    +0.000 C 
ATOM      3  C   UNL     1      -1.365  13.764  22.207  0.00  0.00    +0.000 C 
ATOM      4  C   UNL     1      -1.207  12.940  20.949  0.00  0.00    +0.000 A 
ATOM      5  C   UNL     1      -2.337  12.476  20.293  0.00  0.00    +0.000 A 
ATOM      6  S   UNL     1      -1.950  11.539  18.931  0.00  0.00    +0.000 S 
ATOM      7  C   UNL     1      -0.284  11.685  19.250  0.00  0.00    +0.000 A 
ATOM      8  C   UNL     1       0.023  12.615  20.227  0.00  0.00    +0.000 A 
ATOM      9  C   UNL     1      -3.755  12.741  20.722  0.00  0.00    +0.000 C 
ENDROOT
BRANCH   8  10
ATOM     10  C   UNL     1       1.334  13.182  20.596  0.00  0.00    +0.000 C 
ATOM     11  O   UNL     1       2.113  12.505  21.268  0.00  0.00    +0.000 OA
ATOM     12  N   UNL     1       1.648  14.526  20.325  0.00  0.00    +0.000 N 
ATOM     13  C   UNL     1       0.870  15.552  19.622  0.00  0.00    +0.000 C 
ATOM     14  C   UNL     1       1.731  16.166  18.505  0.00  0.00    +0.000 C 
ATOM     15  O   UNL     1       2.936  16.737  19.037  0.00  0.00    +0.000 OA
ATOM     16  C   UNL     1       3.715  15.719  19.695  0.00  0.00    +0.000 C 
ATOM     17  C   UNL     1       2.914  15.075  20.832  0.00  0.00    +0.000 C 
ENDBRANCH   8  10
BRANCH   7  18
ATOM     18  N   UNL     1       0.459  10.853  18.430  0.00  0.00    +0.000 N 
ATOM     19  C   UNL     1       1.015   9.693  18.937  0.00  0.00    +0.000 C 
ATOM     20  O   UNL     1       0.807   9.262  20.065  0.00  0.00    +0.000 OA
ATOM     21  N   UNL     1       1.890   9.125  18.013  0.00  0.00    +0.000 N 
ATOM     22  H   UNL     1       0.149  10.799  17.470  0.00  0.00    +0.000 HD
ATOM     23  H   UNL     1       2.315   9.785  17.374  0.00  0.00    +0.000 HD
BRANCH  21  24
ATOM     24  C   UNL     1       2.599   7.927  18.244  0.00  0.00    +0.000 A 
ATOM     25  C   UNL     1       2.311   7.101  19.333  0.00  0.00    +0.000 A 
ATOM     26  C   UNL     1       3.058   5.944  19.563  0.00  0.00    +0.000 A 
ATOM     27  C   UNL     1       4.097   5.611  18.702  0.00  0.00    +0.000 A 
ATOM     28 CL   UNL     1       5.043   4.207  19.011  0.00  0.00    +0.000 Cl
ATOM     29  C   UNL     1       4.379   6.412  17.598  0.00  0.00    +0.000 A 
ATOM     30  C   UNL     1       3.619   7.560  17.357  0.00  0.00    +0.000 A 
ENDBRANCH  21  24
ENDBRANCH   7  18
BRANCH   1  32
ATOM     31  C   UNL     1      -5.033  15.984  20.805  0.00  0.00    +0.000 C 
ATOM     32  C   UNL     1      -3.743  15.173  20.854  0.00  0.00    +0.000 C 
ENDBRANCH   1  32
TORSDOF 4
ENDMDL
