MODEL 1
REMARK VINA RESULT:      -7.8      0.000      0.000
REMARK  Name = 
REMARK  5 active torsions:
REMARK  status: ('A' for Active; 'I' for Inactive)
REMARK    1  A    between atoms: C_1  and  C_2
REMARK    2  A    between atoms: C_2  and  C_3
REMARK    3  A    between atoms: C_3  and  C_4
REMARK    4  A    between atoms: N_10  and  C_11
REMARK    5  A    between atoms: C_11  and  C_12
REMARK                            x       y       z     vdW  Elec       q    Type
REMARK                         _______ _______ _______ _____ _____    ______ ____
ROOT
ATOM      1  C   UNL     1       6.725   3.918  13.084  0.00  0.00    +0.000 A 
ATOM      2  N   UNL     1       6.036   3.759  14.181  0.00  0.00    +0.000 NA
ATOM      3  C   UNL     1       6.540   4.737  14.998  0.00  0.00    +0.000 A 
ATOM      4  N   UNL     1       6.001   4.914  16.217  0.00  0.00    +0.000 N 
ATOM      5  C   UNL     1       6.497   5.951  17.123  0.00  0.00    +0.000 C 
ATOM      6  C   UNL     1       5.344   6.864  17.620  0.00  0.00    +0.000 C 
ATOM      7  N   UNL     1       4.134   6.153  18.125  0.00  0.00    +0.000 NA
ATOM      8  C   UNL     1       3.699   5.253  17.028  0.00  0.00    +0.000 C 
ATOM      9  C   UNL     1       4.768   4.225  16.597  0.00  0.00    +0.000 C 
ATOM     10  N   UNL     1       7.535   5.448  14.440  0.00  0.00    +0.000 NA
ATOM     11  O   UNL     1       7.669   4.897  13.172  0.00  0.00    +0.000 OA
ENDROOT
BRANCH   1  12
ATOM     12  C   UNL     1       6.580   3.255  11.764  0.00  0.00    +0.000 C 
BRANCH  12  14
ATOM     13  C   UNL     1       4.130   3.247  11.187  0.00  0.00    +0.000 C 
ATOM     14  C   UNL     1       5.302   2.420  11.697  0.00  0.00    +0.000 C 
ENDBRANCH  12  14
ENDBRANCH   1  12
BRANCH   7  15
ATOM     15  C   UNL     1       4.468   5.445  19.391  0.00  0.00    +0.000 C 
BRANCH  15  16
ATOM     16  C   UNL     1       3.418   4.483  19.941  0.00  0.00    +0.000 A 
ATOM     17  C   UNL     1       2.168   4.922  20.345  0.00  0.00    +0.000 A 
ATOM     18  C   UNL     1       1.249   4.017  20.876  0.00  0.00    +0.000 A 
ATOM     19  C   UNL     1       1.595   2.672  20.951  0.00  0.00    +0.000 A 
ATOM     20  C   UNL     1       2.845   2.303  20.503  0.00  0.00    +0.000 A 
ATOM     21  N   UNL     1       3.772   3.169  20.025  0.00  0.00    +0.000 NA
ENDBRANCH  15  16
ENDBRANCH   7  15
TORSDOF 4
ENDMDL
MODEL 2
REMARK VINA RESULT:      -7.5      0.766      1.260
REMARK  Name = 
REMARK  5 active torsions:
REMARK  status: ('A' for Active; 'I' for Inactive)
REMARK    1  A    between atoms: C_1  and  C_2
REMARK    2  A    between atoms: C_2  and  C_3
REMARK    3  A    between atoms: C_3  and  C_4
REMARK    4  A    between atoms: N_10  and  C_11
REMARK    5  A    between atoms: C_11  and  C_12
REMARK                            x       y       z     vdW  Elec       q    Type
REMARK                         _______ _______ _______ _____ _____    ______ ____
ROOT
ATOM      1  C   UNL     1       6.888   4.021  12.920  0.00  0.00    +0.000 A 
ATOM      2  N   UNL     1       6.195   3.839  14.011  0.00  0.00    +0.000 NA
ATOM      3  C   UNL     1       6.712   4.784  14.859  0.00  0.00    +0.000 A 
ATOM      4  N   UNL     1       6.175   4.931  16.081  0.00  0.00    +0.000 N 
ATOM      5  C   UNL     1       6.685   5.932  17.019  0.00  0.00    +0.000 C 
ATOM      6  C   UNL     1       5.545   6.846  17.543  0.00  0.00    +0.000 C 
ATOM      7  N   UNL     1       4.324   6.139  18.026  0.00  0.00    +0.000 NA
ATOM      8  C   UNL     1       3.877   5.279  16.900  0.00  0.00    +0.000 C 
ATOM      9  C   UNL     1       4.931   4.250  16.439  0.00  0.00    +0.000 C 
ATOM     10  N   UNL     1       7.719   5.496  14.324  0.00  0.00    +0.000 NA
ATOM     11  O   UNL     1       7.846   4.982  13.039  0.00  0.00    +0.000 OA
ENDROOT
BRANCH   1  12
ATOM     12  C   UNL     1       6.734   3.401  11.580  0.00  0.00    +0.000 C 
BRANCH  12  14
ATOM     13  C   UNL     1       6.241   0.991  11.049  0.00  0.00    +0.000 C 
ATOM     14  C   UNL     1       5.679   2.296  11.595  0.00  0.00    +0.000 C 
ENDBRANCH  12  14
ENDBRANCH   1  12
BRANCH   7  15
ATOM     15  C   UNL     1       4.646   5.387  19.269  0.00  0.00    +0.000 C 
BRANCH  15  16
ATOM     16  C   UNL     1       3.531   4.532  19.866  0.00  0.00    +0.000 A 
ATOM     17  C   UNL     1       3.674   3.165  20.039  0.00  0.00    +0.000 A 
ATOM     18  C   UNL     1       2.619   2.413  20.554  0.00  0.00    +0.000 A 
ATOM     19  C   UNL     1       1.447   3.063  20.927  0.00  0.00    +0.000 A 
ATOM     20  C   UNL     1       1.387   4.429  20.754  0.00  0.00    +0.000 A 
ATOM     21  N   UNL     1       2.381   5.176  20.215  0.00  0.00    +0.000 NA
ENDBRANCH  15  16
ENDBRANCH   7  15
TORSDOF 4
ENDMDL
MODEL 3
REMARK VINA RESULT:      -7.3      0.942      1.331
REMARK  Name = 
REMARK  5 active torsions:
REMARK  status: ('A' for Active; 'I' for Inactive)
REMARK    1  A    between atoms: C_1  and  C_2
REMARK    2  A    between atoms: C_2  and  C_3
REMARK    3  A    between atoms: C_3  and  C_4
REMARK    4  A    between atoms: N_10  and  C_11
REMARK    5  A    between atoms: C_11  and  C_12
REMARK                            x       y       z     vdW  Elec       q    Type
REMARK                         _______ _______ _______ _____ _____    ______ ____
ROOT
ATOM      1  C   UNL     1       5.858   3.663  12.684  0.00  0.00    +0.000 A 
ATOM      2  N   UNL     1       5.269   3.635  13.848  0.00  0.00    +0.000 NA
ATOM      3  C   UNL     1       6.173   4.274  14.658  0.00  0.00    +0.000 A 
ATOM      4  N   UNL     1       5.858   4.491  15.946  0.00  0.00    +0.000 N 
ATOM      5  C   UNL     1       6.784   5.177  16.848  0.00  0.00    +0.000 C 
ATOM      6  C   UNL     1       6.097   6.377  17.555  0.00  0.00    +0.000 C 
ATOM      7  N   UNL     1       4.767   6.088  18.166  0.00  0.00    +0.000 NA
ATOM      8  C   UNL     1       3.929   5.529  17.075  0.00  0.00    +0.000 C 
ATOM      9  C   UNL     1       4.502   4.245  16.437  0.00  0.00    +0.000 C 
ATOM     10  N   UNL     1       7.299   4.645  14.024  0.00  0.00    +0.000 NA
ATOM     11  O   UNL     1       7.097   4.228  12.714  0.00  0.00    +0.000 OA
ENDROOT
BRANCH   1  12
ATOM     12  C   UNL     1       5.352   3.246  11.352  0.00  0.00    +0.000 C 
BRANCH  12  14
ATOM     13  C   UNL     1       3.313   3.865  10.013  0.00  0.00    +0.000 C 
ATOM     14  C   UNL     1       3.825   3.252  11.308  0.00  0.00    +0.000 C 
ENDBRANCH  12  14
ENDBRANCH   1  12
BRANCH   7  15
ATOM     15  C   UNL     1       4.943   5.170  19.324  0.00  0.00    +0.000 C 
BRANCH  15  16
ATOM     16  C   UNL     1       3.684   4.507  19.876  0.00  0.00    +0.000 A 
ATOM     17  C   UNL     1       3.564   3.130  19.964  0.00  0.00    +0.000 A 
ATOM     18  C   UNL     1       2.384   2.561  20.440  0.00  0.00    +0.000 A 
ATOM     19  C   UNL     1       1.354   3.397  20.860  0.00  0.00    +0.000 A 
ATOM     20  C   UNL     1       1.555   4.758  20.770  0.00  0.00    +0.000 A 
ATOM     21  N   UNL     1       2.674   5.334  20.270  0.00  0.00    +0.000 NA
ENDBRANCH  15  16
ENDBRANCH   7  15
TORSDOF 4
ENDMDL
MODEL 4
REMARK VINA RESULT:      -6.4      2.987      7.835
REMARK  Name = 
REMARK  5 active torsions:
REMARK  status: ('A' for Active; 'I' for Inactive)
REMARK    1  A    between atoms: C_1  and  C_2
REMARK    2  A    between atoms: C_2  and  C_3
REMARK    3  A    between atoms: C_3  and  C_4
REMARK    4  A    between atoms: N_10  and  C_11
REMARK    5  A    between atoms: C_11  and  C_12
REMARK                            x       y       z     vdW  Elec       q    Type
REMARK                         _______ _______ _______ _____ _____    ______ ____
ROOT
ATOM      1  C   UNL     1       1.816   7.485  20.086  0.00  0.00    +0.000 A 
ATOM      2  N   UNL     1       2.503   6.457  19.667  0.00  0.00    +0.000 NA
ATOM      3  C   UNL     1       3.018   6.903  18.478  0.00  0.00    +0.000 A 
ATOM      4  N   UNL     1       3.853   6.108  17.787  0.00  0.00    +0.000 N 
ATOM      5  C   UNL     1       4.438   6.542  16.518  0.00  0.00    +0.000 C 
ATOM      6  C   UNL     1       5.984   6.407  16.534  0.00  0.00    +0.000 C 
ATOM      7  N   UNL     1       6.510   5.099  17.020  0.00  0.00    +0.000 NA
ATOM      8  C   UNL     1       5.918   4.895  18.367  0.00  0.00    +0.000 C 
ATOM      9  C   UNL     1       4.374   4.877  18.379  0.00  0.00    +0.000 C 
ATOM     10  N   UNL     1       2.629   8.148  18.153  0.00  0.00    +0.000 NA
ATOM     11  O   UNL     1       1.819   8.532  19.215  0.00  0.00    +0.000 OA
ENDROOT
BRANCH   1  12
ATOM     12  C   UNL     1       1.114   7.699  21.376  0.00  0.00    +0.000 C 
BRANCH  12  14
ATOM     13  C   UNL     1       0.326   9.934  22.224  0.00  0.00    +0.000 C 
ATOM     14  C   UNL     1       0.051   8.790  21.258  0.00  0.00    +0.000 C 
ENDBRANCH  12  14
ENDBRANCH   1  12
BRANCH   7  15
ATOM     15  C   UNL     1       6.166   4.031  16.042  0.00  0.00    +0.000 C 
BRANCH  15  16
ATOM     16  C   UNL     1       6.589   4.261  14.593  0.00  0.00    +0.000 A 
ATOM     17  C   UNL     1       6.007   3.567  13.545  0.00  0.00    +0.000 A 
ATOM     18  C   UNL     1       6.446   3.780  12.239  0.00  0.00    +0.000 A 
ATOM     19  C   UNL     1       7.441   4.725  12.008  0.00  0.00    +0.000 A 
ATOM     20  C   UNL     1       7.952   5.399  13.096  0.00  0.00    +0.000 A 
ATOM     21  N   UNL     1       7.574   5.179  14.378  0.00  0.00    +0.000 NA
ENDBRANCH  15  16
ENDBRANCH   7  15
TORSDOF 4
ENDMDL
MODEL 5
REMARK VINA RESULT:      -6.4      1.151      1.338
REMARK  Name = 
REMARK  5 active torsions:
REMARK  status: ('A' for Active; 'I' for Inactive)
REMARK    1  A    between atoms: C_1  and  C_2
REMARK    2  A    between atoms: C_2  and  C_3
REMARK    3  A    between atoms: C_3  and  C_4
REMARK    4  A    between atoms: N_10  and  C_11
REMARK    5  A    between atoms: C_11  and  C_12
REMARK                            x       y       z     vdW  Elec       q    Type
REMARK                         _______ _______ _______ _____ _____    ______ ____
ROOT
ATOM      1  C   UNL     1       6.154   4.034  14.147  0.00  0.00    +0.000 A 
ATOM      2  N   UNL     1       5.418   3.902  15.216  0.00  0.00    +0.000 NA
ATOM      3  C   UNL     1       5.507   5.140  15.799  0.00  0.00    +0.000 A 
ATOM      4  N   UNL     1       4.799   5.391  16.913  0.00  0.00    +0.000 N 
ATOM      5  C   UNL     1       4.852   6.699  17.567  0.00  0.00    +0.000 C 
ATOM      6  C   UNL     1       3.429   7.282  17.776  0.00  0.00    +0.000 C 
ATOM      7  N   UNL     1       2.434   6.350  18.380  0.00  0.00    +0.000 NA
ATOM      8  C   UNL     1       2.421   5.146  17.511  0.00  0.00    +0.000 C 
ATOM      9  C   UNL     1       3.791   4.444  17.388  0.00  0.00    +0.000 C 
ATOM     10  N   UNL     1       6.304   5.994  15.134  0.00  0.00    +0.000 NA
ATOM     11  O   UNL     1       6.746   5.257  14.042  0.00  0.00    +0.000 OA
ENDROOT
BRANCH   1  12
ATOM     12  C   UNL     1       6.371   3.095  13.018  0.00  0.00    +0.000 C 
BRANCH  12  14
ATOM     13  C   UNL     1       4.357   3.209  11.514  0.00  0.00    +0.000 C 
ATOM     14  C   UNL     1       5.800   3.648  11.714  0.00  0.00    +0.000 C 
ENDBRANCH  12  14
ENDBRANCH   1  12
BRANCH   7  15
ATOM     15  C   UNL     1       2.810   6.070  19.793  0.00  0.00    +0.000 C 
BRANCH  15  16
ATOM     16  C   UNL     1       2.446   4.695  20.345  0.00  0.00    +0.000 A 
ATOM     17  C   UNL     1       1.129   4.306  20.522  0.00  0.00    +0.000 A 
ATOM     18  C   UNL     1       0.837   3.054  21.063  0.00  0.00    +0.000 A 
ATOM     19  C   UNL     1       1.885   2.195  21.378  0.00  0.00    +0.000 A 
ATOM     20  C   UNL     1       3.170   2.638  21.146  0.00  0.00    +0.000 A 
ATOM     21  N   UNL     1       3.481   3.866  20.664  0.00  0.00    +0.000 NA
ENDBRANCH  15  16
ENDBRANCH   7  15
TORSDOF 4
ENDMDL
MODEL 6
REMARK VINA RESULT:      -6.3      4.407      7.786
REMARK  Name = 
REMARK  5 active torsions:
REMARK  status: ('A' for Active; 'I' for Inactive)
REMARK    1  A    between atoms: C_1  and  C_2
REMARK    2  A    between atoms: C_2  and  C_3
REMARK    3  A    between atoms: C_3  and  C_4
REMARK    4  A    between atoms: N_10  and  C_11
REMARK    5  A    between atoms: C_11  and  C_12
REMARK                            x       y       z     vdW  Elec       q    Type
REMARK                         _______ _______ _______ _____ _____    ______ ____
ROOT
ATOM      1  C   UNL     1       0.638   9.766  20.033  0.00  0.00    +0.000 A 
ATOM      2  N   UNL     1       1.512   8.956  19.503  0.00  0.00    +0.000 NA
ATOM      3  C   UNL     1       1.437   7.856  20.318  0.00  0.00    +0.000 A 
ATOM      4  N   UNL     1       2.171   6.770  20.021  0.00  0.00    +0.000 N 
ATOM      5  C   UNL     1       2.119   5.568  20.855  0.00  0.00    +0.000 C 
ATOM      6  C   UNL     1       1.802   4.308  20.006  0.00  0.00    +0.000 C 
ATOM      7  N   UNL     1       2.617   4.144  18.767  0.00  0.00    +0.000 NA
ATOM      8  C   UNL     1       2.439   5.398  17.992  0.00  0.00    +0.000 C 
ATOM      9  C   UNL     1       2.880   6.671  18.746  0.00  0.00    +0.000 C 
ATOM     10  N   UNL     1       0.577   8.000  21.341  0.00  0.00    +0.000 NA
ATOM     11  O   UNL     1       0.053   9.274  21.161  0.00  0.00    +0.000 OA
ENDROOT
BRANCH   1  12
ATOM     12  C   UNL     1       0.145  11.082  19.552  0.00  0.00    +0.000 C 
BRANCH  12  14
ATOM     13  C   UNL     1      -2.203  11.305  18.673  0.00  0.00    +0.000 C 
ATOM     14  C   UNL     1      -0.768  10.925  18.337  0.00  0.00    +0.000 C 
ENDBRANCH  12  14
ENDBRANCH   1  12
BRANCH   7  15
ATOM     15  C   UNL     1       4.030   3.859  19.138  0.00  0.00    +0.000 C 
BRANCH  15  16
ATOM     16  C   UNL     1       5.081   4.051  18.049  0.00  0.00    +0.000 A 
ATOM     17  C   UNL     1       4.811   3.775  16.719  0.00  0.00    +0.000 A 
ATOM     18  C   UNL     1       5.810   3.929  15.757  0.00  0.00    +0.000 A 
ATOM     19  C   UNL     1       7.057   4.402  16.152  0.00  0.00    +0.000 A 
ATOM     20  C   UNL     1       7.245   4.684  17.488  0.00  0.00    +0.000 A 
ATOM     21  N   UNL     1       6.305   4.500  18.447  0.00  0.00    +0.000 NA
ENDBRANCH  15  16
ENDBRANCH   7  15
TORSDOF 4
ENDMDL
MODEL 7
REMARK VINA RESULT:      -6.1      4.436      7.848
REMARK  Name = 
REMARK  5 active torsions:
REMARK  status: ('A' for Active; 'I' for Inactive)
REMARK    1  A    between atoms: C_1  and  C_2
REMARK    2  A    between atoms: C_2  and  C_3
REMARK    3  A    between atoms: C_3  and  C_4
REMARK    4  A    between atoms: N_10  and  C_11
REMARK    5  A    between atoms: C_11  and  C_12
REMARK                            x       y       z     vdW  Elec       q    Type
REMARK                         _______ _______ _______ _____ _____    ______ ____
ROOT
ATOM      1  C   UNL     1       0.635   9.693  20.202  0.00  0.00    +0.000 A 
ATOM      2  N   UNL     1       1.528   8.923  19.642  0.00  0.00    +0.000 NA
ATOM      3  C   UNL     1       1.442   7.773  20.385  0.00  0.00    +0.000 A 
ATOM      4  N   UNL     1       2.191   6.713  20.037  0.00  0.00    +0.000 N 
ATOM      5  C   UNL     1       2.128   5.460  20.792  0.00  0.00    +0.000 C 
ATOM      6  C   UNL     1       1.840   4.254  19.858  0.00  0.00    +0.000 C 
ATOM      7  N   UNL     1       2.684   4.174  18.631  0.00  0.00    +0.000 NA
ATOM      8  C   UNL     1       2.514   5.473  17.933  0.00  0.00    +0.000 C 
ATOM      9  C   UNL     1       2.929   6.699  18.775  0.00  0.00    +0.000 C 
ATOM     10  N   UNL     1       0.558   7.847  21.394  0.00  0.00    +0.000 NA
ATOM     11  O   UNL     1       0.029   9.127  21.283  0.00  0.00    +0.000 OA
ENDROOT
BRANCH   1  12
ATOM     12  C   UNL     1       0.144  11.033  19.794  0.00  0.00    +0.000 C 
BRANCH  12  14
ATOM     13  C   UNL     1      -1.635  12.171  18.424  0.00  0.00    +0.000 C 
ATOM     14  C   UNL     1      -0.737  10.948  18.548  0.00  0.00    +0.000 C 
ENDBRANCH  12  14
ENDBRANCH   1  12
BRANCH   7  15
ATOM     15  C   UNL     1       4.090   3.874  19.016  0.00  0.00    +0.000 C 
BRANCH  15  16
ATOM     16  C   UNL     1       5.161   4.110  17.954  0.00  0.00    +0.000 A 
ATOM     17  C   UNL     1       6.349   4.757  18.249  0.00  0.00    +0.000 A 
ATOM     18  C   UNL     1       7.288   4.986  17.242  0.00  0.00    +0.000 A 
ATOM     19  C   UNL     1       7.026   4.517  15.959  0.00  0.00    +0.000 A 
ATOM     20  C   UNL     1       5.836   3.854  15.746  0.00  0.00    +0.000 A 
ATOM     21  N   UNL     1       4.890   3.659  16.696  0.00  0.00    +0.000 NA
ENDBRANCH  15  16
ENDBRANCH   7  15
TORSDOF 4
ENDMDL
MODEL 8
REMARK VINA RESULT:      -6.1      2.220      7.189
REMARK  Name = 
REMARK  5 active torsions:
REMARK  status: ('A' for Active; 'I' for Inactive)
REMARK    1  A    between atoms: C_1  and  C_2
REMARK    2  A    between atoms: C_2  and  C_3
REMARK    3  A    between atoms: C_3  and  C_4
REMARK    4  A    between atoms: N_10  and  C_11
REMARK    5  A    between atoms: C_11  and  C_12
REMARK                            x       y       z     vdW  Elec       q    Type
REMARK                         _______ _______ _______ _____ _____    ______ ____
ROOT
ATOM      1  C   UNL     1       1.946   4.775  19.380  0.00  0.00    +0.000 A 
ATOM      2  N   UNL     1       2.489   4.462  18.235  0.00  0.00    +0.000 NA
ATOM      3  C   UNL     1       3.498   5.382  18.119  0.00  0.00    +0.000 A 
ATOM      4  N   UNL     1       4.329   5.313  17.065  0.00  0.00    +0.000 N 
ATOM      5  C   UNL     1       5.428   6.266  16.901  0.00  0.00    +0.000 C 
ATOM      6  C   UNL     1       6.782   5.535  16.700  0.00  0.00    +0.000 C 
ATOM      7  N   UNL     1       6.779   4.442  15.685  0.00  0.00    +0.000 NA
ATOM      8  C   UNL     1       5.697   3.510  16.091  0.00  0.00    +0.000 C 
ATOM      9  C   UNL     1       4.300   4.162  16.163  0.00  0.00    +0.000 C 
ATOM     10  N   UNL     1       3.549   6.260  19.136  0.00  0.00    +0.000 NA
ATOM     11  O   UNL     1       2.510   5.865  19.970  0.00  0.00    +0.000 OA
ENDROOT
BRANCH   1  12
ATOM     12  C   UNL     1       0.879   4.084  20.147  0.00  0.00    +0.000 C 
BRANCH  12  14
ATOM     13  C   UNL     1       2.393   2.779  21.677  0.00  0.00    +0.000 C 
ATOM     14  C   UNL     1       1.326   2.693  20.595  0.00  0.00    +0.000 C 
ENDBRANCH  12  14
ENDBRANCH   1  12
BRANCH   7  15
ATOM     15  C   UNL     1       6.596   5.026  14.328  0.00  0.00    +0.000 C 
BRANCH  15  16
ATOM     16  C   UNL     1       6.202   4.064  13.211  0.00  0.00    +0.000 A 
ATOM     17  C   UNL     1       4.898   3.972  12.754  0.00  0.00    +0.000 A 
ATOM     18  C   UNL     1       4.571   3.055  11.756  0.00  0.00    +0.000 A 
ATOM     19  C   UNL     1       5.580   2.272  11.204  0.00  0.00    +0.000 A 
ATOM     20  C   UNL     1       6.860   2.439  11.687  0.00  0.00    +0.000 A 
ATOM     21  N   UNL     1       7.195   3.290  12.686  0.00  0.00    +0.000 NA
ENDBRANCH  15  16
ENDBRANCH   7  15
TORSDOF 4
ENDMDL
MODEL 9
REMARK VINA RESULT:      -6.0      4.721      7.873
REMARK  Name = 
REMARK  5 active torsions:
REMARK  status: ('A' for Active; 'I' for Inactive)
REMARK    1  A    between atoms: C_1  and  C_2
REMARK    2  A    between atoms: C_2  and  C_3
REMARK    3  A    between atoms: C_3  and  C_4
REMARK    4  A    between atoms: N_10  and  C_11
REMARK    5  A    between atoms: C_11  and  C_12
REMARK                            x       y       z     vdW  Elec       q    Type
REMARK                         _______ _______ _______ _____ _____    ______ ____
ROOT
ATOM      1  C   UNL     1      -0.036  10.502  19.225  0.00  0.00    +0.000 A 
ATOM      2  N   UNL     1       0.947   9.753  18.808  0.00  0.00    +0.000 NA
ATOM      3  C   UNL     1       1.080   8.839  19.821  0.00  0.00    +0.000 A 
ATOM      4  N   UNL     1       1.978   7.846  19.694  0.00  0.00    +0.000 N 
ATOM      5  C   UNL     1       2.150   6.840  20.743  0.00  0.00    +0.000 C 
ATOM      6  C   UNL     1       2.026   5.403  20.170  0.00  0.00    +0.000 C 
ATOM      7  N   UNL     1       2.823   5.130  18.940  0.00  0.00    +0.000 NA
ATOM      8  C   UNL     1       2.416   6.161  17.952  0.00  0.00    +0.000 C 
ATOM      9  C   UNL     1       2.658   7.611  18.421  0.00  0.00    +0.000 C 
ATOM     10  N   UNL     1       0.236   9.043  20.847  0.00  0.00    +0.000 NA
ATOM     11  O   UNL     1      -0.499  10.156  20.459  0.00  0.00    +0.000 OA
ENDROOT
BRANCH   1  12
ATOM     12  C   UNL     1      -0.755  11.601  18.532  0.00  0.00    +0.000 C 
BRANCH  12  14
ATOM     13  C   UNL     1      -2.199   9.985  17.253  0.00  0.00    +0.000 C 
ATOM     14  C   UNL     1      -2.184  11.194  18.176  0.00  0.00    +0.000 C 
ENDBRANCH  12  14
ENDBRANCH   1  12
BRANCH   7  15
ATOM     15  C   UNL     1       4.273   5.152  19.274  0.00  0.00    +0.000 C 
BRANCH  15  16
ATOM     16  C   UNL     1       5.252   5.070  18.105  0.00  0.00    +0.000 A 
ATOM     17  C   UNL     1       6.275   5.989  17.945  0.00  0.00    +0.000 A 
ATOM     18  C   UNL     1       7.126   5.901  16.844  0.00  0.00    +0.000 A 
ATOM     19  C   UNL     1       6.954   4.857  15.941  0.00  0.00    +0.000 A 
ATOM     20  C   UNL     1       5.934   3.962  16.181  0.00  0.00    +0.000 A 
ATOM     21  N   UNL     1       5.066   4.051  17.218  0.00  0.00    +0.000 NA
ENDBRANCH  15  16
ENDBRANCH   7  15
TORSDOF 4
ENDMDL
