MODEL 1
REMARK VINA RESULT:      -7.6      0.000      0.000
REMARK  Name = 
REMARK  11 active torsions:
REMARK  status: ('A' for Active; 'I' for Inactive)
REMARK    1  A    between atoms: C_1  and  C_2
REMARK    2  A    between atoms: C_6  and  N_7
REMARK    3  A    between atoms: C_8  and  C_10
REMARK    4  A    between atoms: C_10  and  C_11
REMARK    5  A    between atoms: C_10  and  C_12
REMARK    6  A    between atoms: C_14  and  C_15
REMARK    7  A    between atoms: N_17  and  C_18
REMARK    8  A    between atoms: C_18  and  C_19
REMARK    9  A    between atoms: C_19  and  N_20
REMARK   10  A    between atoms: N_27  and  C_28
REMARK   11  A    between atoms: C_28  and  C_29
REMARK                            x       y       z     vdW  Elec       q    Type
REMARK                         _______ _______ _______ _____ _____    ______ ____
ROOT
ATOM      1  C   UNL     1       1.471   3.714  19.468  0.00  0.00    +0.000 C 
ATOM      2  C   UNL     1       2.587   3.953  18.500  0.00  0.00    +0.000 A 
ATOM      3  N   UNL     1       2.742   3.291  17.389  0.00  0.00    +0.000 NA
ATOM      4  C   UNL     1       3.843   3.825  16.783  0.00  0.00    +0.000 A 
ATOM      5  C   UNL     1       4.379   3.419  15.552  0.00  0.00    +0.000 A 
ATOM      6  C   UNL     1       5.510   4.041  15.056  0.00  0.00    +0.000 A 
ATOM      7  C   UNL     1       6.116   5.035  15.814  0.00  0.00    +0.000 A 
ATOM      8  C   UNL     1       5.646   5.459  17.086  0.00  0.00    +0.000 A 
ATOM      9  C   UNL     1       4.437   4.848  17.547  0.00  0.00    +0.000 A 
ATOM     10  N   UNL     1       3.546   4.956  18.618  0.00  0.00    +0.000 N 
ENDROOT
BRANCH   6  11
ATOM     11  N   UNL     1       6.150   3.699  13.850  0.00  0.00    +0.000 N 
ATOM     12  C   UNL     1       5.556   3.445  12.628  0.00  0.00    +0.000 C 
ATOM     13  O   UNL     1       4.357   3.540  12.371  0.00  0.00    +0.000 OA
ATOM     14  H   UNL     1       7.148   3.552  13.909  0.00  0.00    +0.000 HD
BRANCH  12  15
ATOM     15  C   UNL     1       6.537   3.002  11.552  0.00  0.00    +0.000 C 
ATOM     16  C   UNL     1       7.956   3.449  11.888  0.00  0.00    +0.000 C 
ATOM     17  C   UNL     1       6.451   1.498  11.314  0.00  0.00    +0.000 C 
ENDBRANCH  12  15
ENDBRANCH   6  11
BRANCH   8  18
ATOM     18  C   UNL     1       6.594   6.327  17.871  0.00  0.00    +0.000 C 
ATOM     19  O   UNL     1       7.051   5.947  18.932  0.00  0.00    +0.000 OA
ATOM     20  N   UNL     1       6.984   7.527  17.264  0.00  0.00    +0.000 N 
ATOM     21  H   UNL     1       6.410   7.908  16.520  0.00  0.00    +0.000 HD
BRANCH  20  22
ATOM     22  C   UNL     1       8.066   8.382  17.734  0.00  0.00    +0.000 C 
BRANCH  22  23
ATOM     23  C   UNL     1       7.833   9.914  17.672  0.00  0.00    +0.000 C 
BRANCH  23  24
ATOM     24  N   UNL     1       8.813  10.722  18.372  0.00  0.00    +0.000 N 
ATOM     25  C   UNL     1       9.584  10.256  19.507  0.00  0.00    +0.000 C 
ATOM     26  C   UNL     1      10.603  11.372  19.709  0.00  0.00    +0.000 C 
ATOM     27  N   UNL     1      10.024  12.491  19.012  0.00  0.00    +0.000 N 
ATOM     28  C   UNL     1       9.057  12.066  18.119  0.00  0.00    +0.000 C 
ATOM     29  O   UNL     1       8.534  12.760  17.263  0.00  0.00    +0.000 OA
ATOM     30  H   UNL     1      10.472  13.386  18.868  0.00  0.00    +0.000 HD
ENDBRANCH  23  24
ENDBRANCH  22  23
ENDBRANCH  20  22
ENDBRANCH   8  18
BRANCH  10  31
ATOM     31  C   UNL     1       3.462   5.972  19.662  0.00  0.00    +0.000 C 
BRANCH  31  32
ATOM     32  C   UNL     1       2.646   7.201  19.298  0.00  0.00    +0.000 A 
ATOM     33  C   UNL     1       2.659   7.814  18.034  0.00  0.00    +0.000 A 
ATOM     34  C   UNL     1       1.917   8.974  17.790  0.00  0.00    +0.000 A 
ATOM     35  C   UNL     1       1.142   9.537  18.800  0.00  0.00    +0.000 A 
ATOM     36  C   UNL     1       1.094   8.930  20.052  0.00  0.00    +0.000 A 
ATOM     37  C   UNL     1       1.829   7.768  20.295  0.00  0.00    +0.000 A 
ENDBRANCH  31  32
ENDBRANCH  10  31
TORSDOF 8
ENDMDL
MODEL 2
REMARK VINA RESULT:      -7.6      7.440     11.605
REMARK  Name = 
REMARK  11 active torsions:
REMARK  status: ('A' for Active; 'I' for Inactive)
REMARK    1  A    between atoms: C_1  and  C_2
REMARK    2  A    between atoms: C_6  and  N_7
REMARK    3  A    between atoms: C_8  and  C_10
REMARK    4  A    between atoms: C_10  and  C_11
REMARK    5  A    between atoms: C_10  and  C_12
REMARK    6  A    between atoms: C_14  and  C_15
REMARK    7  A    between atoms: N_17  and  C_18
REMARK    8  A    between atoms: C_18  and  C_19
REMARK    9  A    between atoms: C_19  and  N_20
REMARK   10  A    between atoms: N_27  and  C_28
REMARK   11  A    between atoms: C_28  and  C_29
REMARK                            x       y       z     vdW  Elec       q    Type
REMARK                         _______ _______ _______ _____ _____    ______ ____
ROOT
ATOM      1  C   UNL     1      -0.140  15.383  22.368  0.00  0.00    +0.000 C 
ATOM      2  C   UNL     1      -0.142  14.101  21.596  0.00  0.00    +0.000 A 
ATOM      3  N   UNL     1       0.801  13.205  21.671  0.00  0.00    +0.000 NA
ATOM      4  C   UNL     1       0.416  12.184  20.850  0.00  0.00    +0.000 A 
ATOM      5  C   UNL     1       1.131  10.998  20.625  0.00  0.00    +0.000 A 
ATOM      6  C   UNL     1       0.629  10.047  19.756  0.00  0.00    +0.000 A 
ATOM      7  C   UNL     1      -0.563  10.308  19.091  0.00  0.00    +0.000 A 
ATOM      8  C   UNL     1      -1.310  11.507  19.244  0.00  0.00    +0.000 A 
ATOM      9  C   UNL     1      -0.805  12.446  20.199  0.00  0.00    +0.000 A 
ATOM     10  N   UNL     1      -1.175  13.667  20.770  0.00  0.00    +0.000 N 
ENDROOT
BRANCH   6  11
ATOM     11  N   UNL     1       1.271   8.837  19.433  0.00  0.00    +0.000 N 
ATOM     12  C   UNL     1       2.008   8.556  18.298  0.00  0.00    +0.000 C 
ATOM     13  O   UNL     1       2.284   9.348  17.399  0.00  0.00    +0.000 OA
ATOM     14  H   UNL     1       1.108   8.070  20.070  0.00  0.00    +0.000 HD
BRANCH  12  15
ATOM     15  C   UNL     1       2.479   7.111  18.218  0.00  0.00    +0.000 C 
ATOM     16  C   UNL     1       3.848   7.018  17.553  0.00  0.00    +0.000 C 
ATOM     17  C   UNL     1       2.463   6.450  19.592  0.00  0.00    +0.000 C 
ENDBRANCH  12  15
ENDBRANCH   6  11
BRANCH   8  18
ATOM     18  C   UNL     1      -2.403  11.724  18.231  0.00  0.00    +0.000 C 
ATOM     19  O   UNL     1      -2.167  11.660  17.040  0.00  0.00    +0.000 OA
ATOM     20  N   UNL     1      -3.695  11.896  18.740  0.00  0.00    +0.000 N 
ATOM     21  H   UNL     1      -3.807  12.180  19.707  0.00  0.00    +0.000 HD
BRANCH  20  22
ATOM     22  C   UNL     1      -4.913  11.875  17.939  0.00  0.00    +0.000 C 
BRANCH  22  23
ATOM     23  C   UNL     1      -6.024  10.883  18.372  0.00  0.00    +0.000 C 
BRANCH  23  24
ATOM     24  N   UNL     1      -6.665  11.179  19.639  0.00  0.00    +0.000 N 
ATOM     25  C   UNL     1      -6.645  12.483  20.271  0.00  0.00    +0.000 C 
ATOM     26  C   UNL     1      -7.633  12.321  21.420  0.00  0.00    +0.000 C 
ATOM     27  N   UNL     1      -7.732  10.894  21.585  0.00  0.00    +0.000 N 
ATOM     28  C   UNL     1      -7.279  10.237  20.455  0.00  0.00    +0.000 C 
ATOM     29  O   UNL     1      -7.415   9.046  20.229  0.00  0.00    +0.000 OA
ATOM     30  H   UNL     1      -8.368  10.420  22.212  0.00  0.00    +0.000 HD
ENDBRANCH  23  24
ENDBRANCH  22  23
ENDBRANCH  20  22
ENDBRANCH   8  18
BRANCH  10  31
ATOM     31  C   UNL     1      -2.441  14.388  20.689  0.00  0.00    +0.000 C 
BRANCH  31  32
ATOM     32  C   UNL     1      -3.425  14.088  21.807  0.00  0.00    +0.000 A 
ATOM     33  C   UNL     1      -4.465  14.947  22.197  0.00  0.00    +0.000 A 
ATOM     34  C   UNL     1      -5.302  14.623  23.270  0.00  0.00    +0.000 A 
ATOM     35  C   UNL     1      -5.119  13.432  23.967  0.00  0.00    +0.000 A 
ATOM     36  C   UNL     1      -4.110  12.553  23.579  0.00  0.00    +0.000 A 
ATOM     37  C   UNL     1      -3.279  12.873  22.503  0.00  0.00    +0.000 A 
ENDBRANCH  31  32
ENDBRANCH  10  31
TORSDOF 8
ENDMDL
MODEL 3
REMARK VINA RESULT:      -7.2      8.420     13.265
REMARK  Name = 
REMARK  11 active torsions:
REMARK  status: ('A' for Active; 'I' for Inactive)
REMARK    1  A    between atoms: C_1  and  C_2
REMARK    2  A    between atoms: C_6  and  N_7
REMARK    3  A    between atoms: C_8  and  C_10
REMARK    4  A    between atoms: C_10  and  C_11
REMARK    5  A    between atoms: C_10  and  C_12
REMARK    6  A    between atoms: C_14  and  C_15
REMARK    7  A    between atoms: N_17  and  C_18
REMARK    8  A    between atoms: C_18  and  C_19
REMARK    9  A    between atoms: C_19  and  N_20
REMARK   10  A    between atoms: N_27  and  C_28
REMARK   11  A    between atoms: C_28  and  C_29
REMARK                            x       y       z     vdW  Elec       q    Type
REMARK                         _______ _______ _______ _____ _____    ______ ____
ROOT
ATOM      1  C   UNL     1       1.449   9.207  22.575  0.00  0.00    +0.000 C 
ATOM      2  C   UNL     1       0.283  10.121  22.363  0.00  0.00    +0.000 A 
ATOM      3  N   UNL     1      -0.527  10.499  23.311  0.00  0.00    +0.000 NA
ATOM      4  C   UNL     1      -1.425  11.344  22.724  0.00  0.00    +0.000 A 
ATOM      5  C   UNL     1      -2.482  11.997  23.375  0.00  0.00    +0.000 A 
ATOM      6  C   UNL     1      -3.328  12.821  22.656  0.00  0.00    +0.000 A 
ATOM      7  C   UNL     1      -3.132  12.953  21.286  0.00  0.00    +0.000 A 
ATOM      8  C   UNL     1      -2.107  12.285  20.565  0.00  0.00    +0.000 A 
ATOM      9  C   UNL     1      -1.203  11.491  21.341  0.00  0.00    +0.000 A 
ATOM     10  N   UNL     1      -0.037  10.743  21.160  0.00  0.00    +0.000 N 
ENDROOT
BRANCH   6  11
ATOM     11  N   UNL     1      -4.435  13.502  23.195  0.00  0.00    +0.000 N 
ATOM     12  C   UNL     1      -5.768  13.321  22.878  0.00  0.00    +0.000 C 
ATOM     13  O   UNL     1      -6.220  12.476  22.107  0.00  0.00    +0.000 OA
ATOM     14  H   UNL     1      -4.219  14.259  23.829  0.00  0.00    +0.000 HD
BRANCH  12  15
ATOM     15  C   UNL     1      -6.701  14.299  23.576  0.00  0.00    +0.000 C 
ATOM     16  C   UNL     1      -7.278  15.306  22.587  0.00  0.00    +0.000 C 
ATOM     17  C   UNL     1      -7.793  13.564  24.347  0.00  0.00    +0.000 C 
ENDBRANCH  12  15
ENDBRANCH   6  11
BRANCH   8  18
ATOM     18  C   UNL     1      -2.238  12.325  19.065  0.00  0.00    +0.000 C 
ATOM     19  O   UNL     1      -1.342  12.772  18.375  0.00  0.00    +0.000 OA
ATOM     20  N   UNL     1      -3.386  11.733  18.527  0.00  0.00    +0.000 N 
ATOM     21  H   UNL     1      -4.194  11.598  19.125  0.00  0.00    +0.000 HD
BRANCH  20  22
ATOM     22  C   UNL     1      -3.588  11.448  17.112  0.00  0.00    +0.000 C 
BRANCH  22  23
ATOM     23  C   UNL     1      -5.054  11.369  16.611  0.00  0.00    +0.000 C 
BRANCH  23  24
ATOM     24  N   UNL     1      -6.047  11.950  17.494  0.00  0.00    +0.000 N 
ATOM     25  C   UNL     1      -6.545  13.306  17.372  0.00  0.00    +0.000 C 
ATOM     26  C   UNL     1      -7.705  13.335  18.360  0.00  0.00    +0.000 C 
ATOM     27  N   UNL     1      -7.446  12.210  19.221  0.00  0.00    +0.000 N 
ATOM     28  C   UNL     1      -6.563  11.328  18.624  0.00  0.00    +0.000 C 
ATOM     29  O   UNL     1      -6.306  10.206  19.027  0.00  0.00    +0.000 OA
ATOM     30  H   UNL     1      -8.064  11.876  19.949  0.00  0.00    +0.000 HD
ENDBRANCH  23  24
ENDBRANCH  22  23
ENDBRANCH  20  22
ENDBRANCH   8  18
BRANCH  10  31
ATOM     31  C   UNL     1       0.842  10.656  19.999  0.00  0.00    +0.000 C 
BRANCH  31  32
ATOM     32  C   UNL     1       1.614  11.926  19.680  0.00  0.00    +0.000 A 
ATOM     33  C   UNL     1       2.167  12.221  18.424  0.00  0.00    +0.000 A 
ATOM     34  C   UNL     1       2.908  13.390  18.221  0.00  0.00    +0.000 A 
ATOM     35  C   UNL     1       3.102  14.288  19.266  0.00  0.00    +0.000 A 
ATOM     36  C   UNL     1       2.539  14.028  20.513  0.00  0.00    +0.000 A 
ATOM     37  C   UNL     1       1.793  12.864  20.714  0.00  0.00    +0.000 A 
ENDBRANCH  31  32
ENDBRANCH  10  31
TORSDOF 8
ENDMDL
MODEL 4
REMARK VINA RESULT:      -7.2      8.366     13.254
REMARK  Name = 
REMARK  11 active torsions:
REMARK  status: ('A' for Active; 'I' for Inactive)
REMARK    1  A    between atoms: C_1  and  C_2
REMARK    2  A    between atoms: C_6  and  N_7
REMARK    3  A    between atoms: C_8  and  C_10
REMARK    4  A    between atoms: C_10  and  C_11
REMARK    5  A    between atoms: C_10  and  C_12
REMARK    6  A    between atoms: C_14  and  C_15
REMARK    7  A    between atoms: N_17  and  C_18
REMARK    8  A    between atoms: C_18  and  C_19
REMARK    9  A    between atoms: C_19  and  N_20
REMARK   10  A    between atoms: N_27  and  C_28
REMARK   11  A    between atoms: C_28  and  C_29
REMARK                            x       y       z     vdW  Elec       q    Type
REMARK                         _______ _______ _______ _____ _____    ______ ____
ROOT
ATOM      1  C   UNL     1       1.459   9.100  22.485  0.00  0.00    +0.000 C 
ATOM      2  C   UNL     1       0.315  10.050  22.322  0.00  0.00    +0.000 A 
ATOM      3  N   UNL     1      -0.456  10.435  23.299  0.00  0.00    +0.000 NA
ATOM      4  C   UNL     1      -1.346  11.315  22.753  0.00  0.00    +0.000 A 
ATOM      5  C   UNL     1      -2.365  11.987  23.446  0.00  0.00    +0.000 A 
ATOM      6  C   UNL     1      -3.207  12.846  22.765  0.00  0.00    +0.000 A 
ATOM      7  C   UNL     1      -3.047  12.995  21.392  0.00  0.00    +0.000 A 
ATOM      8  C   UNL     1      -2.063  12.311  20.630  0.00  0.00    +0.000 A 
ATOM      9  C   UNL     1      -1.161  11.479  21.367  0.00  0.00    +0.000 A 
ATOM     10  N   UNL     1      -0.022  10.701  21.139  0.00  0.00    +0.000 N 
ENDROOT
BRANCH   6  11
ATOM     11  N   UNL     1      -4.278  13.549  23.347  0.00  0.00    +0.000 N 
ATOM     12  C   UNL     1      -5.626  13.258  23.248  0.00  0.00    +0.000 C 
ATOM     13  O   UNL     1      -6.116  12.285  22.679  0.00  0.00    +0.000 OA
ATOM     14  H   UNL     1      -4.033  14.403  23.828  0.00  0.00    +0.000 HD
BRANCH  12  15
ATOM     15  C   UNL     1      -6.524  14.287  23.919  0.00  0.00    +0.000 C 
ATOM     16  C   UNL     1      -6.624  15.556  23.080  0.00  0.00    +0.000 C 
ATOM     17  C   UNL     1      -7.895  13.699  24.235  0.00  0.00    +0.000 C 
ENDBRANCH  12  15
ENDBRANCH   6  11
BRANCH   8  18
ATOM     18  C   UNL     1      -2.237  12.379  19.136  0.00  0.00    +0.000 C 
ATOM     19  O   UNL     1      -1.438  12.980  18.444  0.00  0.00    +0.000 OA
ATOM     20  N   UNL     1      -3.296  11.636  18.600  0.00  0.00    +0.000 N 
ATOM     21  H   UNL     1      -4.058  11.360  19.208  0.00  0.00    +0.000 HD
BRANCH  20  22
ATOM     22  C   UNL     1      -3.488  11.370  17.180  0.00  0.00    +0.000 C 
BRANCH  22  23
ATOM     23  C   UNL     1      -4.895  11.655  16.593  0.00  0.00    +0.000 C 
BRANCH  23  24
ATOM     24  N   UNL     1      -5.952  11.841  17.569  0.00  0.00    +0.000 N 
ATOM     25  C   UNL     1      -6.452  10.787  18.431  0.00  0.00    +0.000 C 
ATOM     26  C   UNL     1      -7.357  11.539  19.400  0.00  0.00    +0.000 C 
ATOM     27  N   UNL     1      -7.623  12.781  18.722  0.00  0.00    +0.000 N 
ATOM     28  C   UNL     1      -6.689  13.008  17.727  0.00  0.00    +0.000 C 
ATOM     29  O   UNL     1      -6.547  14.055  17.118  0.00  0.00    +0.000 OA
ATOM     30  H   UNL     1      -8.130  13.564  19.114  0.00  0.00    +0.000 HD
ENDBRANCH  23  24
ENDBRANCH  22  23
ENDBRANCH  20  22
ENDBRANCH   8  18
BRANCH  10  31
ATOM     31  C   UNL     1       0.820  10.609  19.951  0.00  0.00    +0.000 C 
BRANCH  31  32
ATOM     32  C   UNL     1       1.620  11.860  19.632  0.00  0.00    +0.000 A 
ATOM     33  C   UNL     1       1.894  12.881  20.557  0.00  0.00    +0.000 A 
ATOM     34  C   UNL     1       2.597  14.028  20.174  0.00  0.00    +0.000 A 
ATOM     35  C   UNL     1       3.045  14.172  18.864  0.00  0.00    +0.000 A 
ATOM     36  C   UNL     1       2.807  13.160  17.938  0.00  0.00    +0.000 A 
ATOM     37  C   UNL     1       2.111  12.011  18.321  0.00  0.00    +0.000 A 
ENDBRANCH  31  32
ENDBRANCH  10  31
TORSDOF 8
ENDMDL
MODEL 5
REMARK VINA RESULT:      -7.0      5.388      7.898
REMARK  Name = 
REMARK  11 active torsions:
REMARK  status: ('A' for Active; 'I' for Inactive)
REMARK    1  A    between atoms: C_1  and  C_2
REMARK    2  A    between atoms: C_6  and  N_7
REMARK    3  A    between atoms: C_8  and  C_10
REMARK    4  A    between atoms: C_10  and  C_11
REMARK    5  A    between atoms: C_10  and  C_12
REMARK    6  A    between atoms: C_14  and  C_15
REMARK    7  A    between atoms: N_17  and  C_18
REMARK    8  A    between atoms: C_18  and  C_19
REMARK    9  A    between atoms: C_19  and  N_20
REMARK   10  A    between atoms: N_27  and  C_28
REMARK   11  A    between atoms: C_28  and  C_29
REMARK                            x       y       z     vdW  Elec       q    Type
REMARK                         _______ _______ _______ _____ _____    ______ ____
ROOT
ATOM      1  C   UNL     1      -2.029  12.116  23.081  0.00  0.00    +0.000 C 
ATOM      2  C   UNL     1      -1.138  11.153  22.361  0.00  0.00    +0.000 A 
ATOM      3  N   UNL     1      -0.791   9.990  22.834  0.00  0.00    +0.000 NA
ATOM      4  C   UNL     1      -0.010   9.411  21.875  0.00  0.00    +0.000 A 
ATOM      5  C   UNL     1       0.583   8.142  21.957  0.00  0.00    +0.000 A 
ATOM      6  C   UNL     1       1.362   7.680  20.912  0.00  0.00    +0.000 A 
ATOM      7  C   UNL     1       1.572   8.506  19.814  0.00  0.00    +0.000 A 
ATOM      8  C   UNL     1       1.034   9.815  19.693  0.00  0.00    +0.000 A 
ATOM      9  C   UNL     1       0.176  10.245  20.756  0.00  0.00    +0.000 A 
ATOM     10  N   UNL     1      -0.637  11.336  21.075  0.00  0.00    +0.000 N 
ENDROOT
BRANCH   6  11
ATOM     11  N   UNL     1       2.027   6.440  20.895  0.00  0.00    +0.000 N 
ATOM     12  C   UNL     1       2.358   5.680  19.789  0.00  0.00    +0.000 C 
ATOM     13  O   UNL     1       2.180   5.996  18.614  0.00  0.00    +0.000 OA
ATOM     14  H   UNL     1       2.215   6.030  21.800  0.00  0.00    +0.000 HD
BRANCH  12  15
ATOM     15  C   UNL     1       2.986   4.338  20.135  0.00  0.00    +0.000 C 
ATOM     16  C   UNL     1       2.240   3.665  21.283  0.00  0.00    +0.000 C 
ATOM     17  C   UNL     1       3.077   3.439  18.907  0.00  0.00    +0.000 C 
ENDBRANCH  12  15
ENDBRANCH   6  11
BRANCH   8  18
ATOM     18  C   UNL     1       1.608  10.651  18.580  0.00  0.00    +0.000 C 
ATOM     19  O   UNL     1       1.671  10.217  17.446  0.00  0.00    +0.000 OA
ATOM     20  N   UNL     1       1.958  11.965  18.910  0.00  0.00    +0.000 N 
ATOM     21  H   UNL     1       2.116  12.202  19.883  0.00  0.00    +0.000 HD
BRANCH  20  22
ATOM     22  C   UNL     1       2.295  13.002  17.943  0.00  0.00    +0.000 C 
BRANCH  22  23
ATOM     23  C   UNL     1       3.284  14.104  18.405  0.00  0.00    +0.000 C 
BRANCH  23  24
ATOM     24  N   UNL     1       2.988  14.709  19.689  0.00  0.00    +0.000 N 
ATOM     25  C   UNL     1       3.646  14.340  20.928  0.00  0.00    +0.000 C 
ATOM     26  C   UNL     1       3.157  15.405  21.904  0.00  0.00    +0.000 C 
ATOM     27  N   UNL     1       1.981  15.937  21.265  0.00  0.00    +0.000 N 
ATOM     28  C   UNL     1       1.973  15.629  19.916  0.00  0.00    +0.000 C 
ATOM     29  O   UNL     1       1.209  16.100  19.090  0.00  0.00    +0.000 OA
ATOM     30  H   UNL     1       1.442  16.726  21.596  0.00  0.00    +0.000 HD
ENDBRANCH  23  24
ENDBRANCH  22  23
ENDBRANCH  20  22
ENDBRANCH   8  18
BRANCH  10  31
ATOM     31  C   UNL     1      -1.058  12.458  20.245  0.00  0.00    +0.000 C 
BRANCH  31  32
ATOM     32  C   UNL     1      -2.182  12.150  19.269  0.00  0.00    +0.000 A 
ATOM     33  C   UNL     1      -3.548  12.265  19.575  0.00  0.00    +0.000 A 
ATOM     34  C   UNL     1      -4.526  11.916  18.638  0.00  0.00    +0.000 A 
ATOM     35  C   UNL     1      -4.157  11.452  17.379  0.00  0.00    +0.000 A 
ATOM     36  C   UNL     1      -2.809  11.357  17.046  0.00  0.00    +0.000 A 
ATOM     37  C   UNL     1      -1.831  11.712  17.979  0.00  0.00    +0.000 A 
ENDBRANCH  31  32
ENDBRANCH  10  31
TORSDOF 8
ENDMDL
MODEL 6
REMARK VINA RESULT:      -6.9      6.364     10.218
REMARK  Name = 
REMARK  11 active torsions:
REMARK  status: ('A' for Active; 'I' for Inactive)
REMARK    1  A    between atoms: C_1  and  C_2
REMARK    2  A    between atoms: C_6  and  N_7
REMARK    3  A    between atoms: C_8  and  C_10
REMARK    4  A    between atoms: C_10  and  C_11
REMARK    5  A    between atoms: C_10  and  C_12
REMARK    6  A    between atoms: C_14  and  C_15
REMARK    7  A    between atoms: N_17  and  C_18
REMARK    8  A    between atoms: C_18  and  C_19
REMARK    9  A    between atoms: C_19  and  N_20
REMARK   10  A    between atoms: N_27  and  C_28
REMARK   11  A    between atoms: C_28  and  C_29
REMARK                            x       y       z     vdW  Elec       q    Type
REMARK                         _______ _______ _______ _____ _____    ______ ____
ROOT
ATOM      1  C   UNL     1       1.668  15.035  18.765  0.00  0.00    +0.000 C 
ATOM      2  C   UNL     1       1.480  13.561  18.589  0.00  0.00    +0.000 A 
ATOM      3  N   UNL     1       2.455  12.722  18.386  0.00  0.00    +0.000 NA
ATOM      4  C   UNL     1       1.880  11.486  18.311  0.00  0.00    +0.000 A 
ATOM      5  C   UNL     1       2.559  10.276  18.106  0.00  0.00    +0.000 A 
ATOM      6  C   UNL     1       1.849   9.091  18.040  0.00  0.00    +0.000 A 
ATOM      7  C   UNL     1       0.463   9.133  18.142  0.00  0.00    +0.000 A 
ATOM      8  C   UNL     1      -0.283  10.330  18.308  0.00  0.00    +0.000 A 
ATOM      9  C   UNL     1       0.478  11.535  18.441  0.00  0.00    +0.000 A 
ATOM     10  N   UNL     1       0.264  12.892  18.699  0.00  0.00    +0.000 N 
ENDROOT
BRANCH   6  11
ATOM     11  N   UNL     1       2.419   7.826  17.809  0.00  0.00    +0.000 N 
ATOM     12  C   UNL     1       2.648   6.827  18.737  0.00  0.00    +0.000 C 
ATOM     13  O   UNL     1       2.328   6.854  19.924  0.00  0.00    +0.000 OA
ATOM     14  H   UNL     1       2.765   7.664  16.874  0.00  0.00    +0.000 HD
BRANCH  12  15
ATOM     15  C   UNL     1       3.376   5.619  18.166  0.00  0.00    +0.000 C 
ATOM     16  C   UNL     1       2.390   4.589  17.627  0.00  0.00    +0.000 C 
ATOM     17  C   UNL     1       4.399   6.038  17.115  0.00  0.00    +0.000 C 
ENDBRANCH  12  15
ENDBRANCH   6  11
BRANCH   8  18
ATOM     18  C   UNL     1      -1.770  10.201  18.104  0.00  0.00    +0.000 C 
ATOM     19  O   UNL     1      -2.530  10.217  19.053  0.00  0.00    +0.000 OA
ATOM     20  N   UNL     1      -2.213  10.165  16.778  0.00  0.00    +0.000 N 
ATOM     21  H   UNL     1      -1.556   9.914  16.048  0.00  0.00    +0.000 HD
BRANCH  20  22
ATOM     22  C   UNL     1      -3.605  10.290  16.364  0.00  0.00    +0.000 C 
BRANCH  22  23
ATOM     23  C   UNL     1      -4.282  11.670  16.571  0.00  0.00    +0.000 C 
BRANCH  23  24
ATOM     24  N   UNL     1      -5.465  11.664  17.409  0.00  0.00    +0.000 N 
ATOM     25  C   UNL     1      -5.820  10.578  18.301  0.00  0.00    +0.000 C 
ATOM     26  C   UNL     1      -6.983  11.157  19.099  0.00  0.00    +0.000 C 
ATOM     27  N   UNL     1      -7.433  12.260  18.291  0.00  0.00    +0.000 N 
ATOM     28  C   UNL     1      -6.458  12.636  17.385  0.00  0.00    +0.000 C 
ATOM     29  O   UNL     1      -6.479  13.649  16.705  0.00  0.00    +0.000 OA
ATOM     30  H   UNL     1      -8.146  12.928  18.557  0.00  0.00    +0.000 HD
ENDBRANCH  23  24
ENDBRANCH  22  23
ENDBRANCH  20  22
ENDBRANCH   8  18
BRANCH  10  31
ATOM     31  C   UNL     1      -0.947  13.577  19.138  0.00  0.00    +0.000 C 
BRANCH  31  32
ATOM     32  C   UNL     1      -1.476  13.140  20.493  0.00  0.00    +0.000 A 
ATOM     33  C   UNL     1      -2.839  13.024  20.810  0.00  0.00    +0.000 A 
ATOM     34  C   UNL     1      -3.251  12.664  22.097  0.00  0.00    +0.000 A 
ATOM     35  C   UNL     1      -2.308  12.406  23.088  0.00  0.00    +0.000 A 
ATOM     36  C   UNL     1      -0.951  12.489  22.788  0.00  0.00    +0.000 A 
ATOM     37  C   UNL     1      -0.539  12.842  21.501  0.00  0.00    +0.000 A 
ENDBRANCH  31  32
ENDBRANCH  10  31
TORSDOF 8
ENDMDL
MODEL 7
REMARK VINA RESULT:      -6.8      7.117     11.197
REMARK  Name = 
REMARK  11 active torsions:
REMARK  status: ('A' for Active; 'I' for Inactive)
REMARK    1  A    between atoms: C_1  and  C_2
REMARK    2  A    between atoms: C_6  and  N_7
REMARK    3  A    between atoms: C_8  and  C_10
REMARK    4  A    between atoms: C_10  and  C_11
REMARK    5  A    between atoms: C_10  and  C_12
REMARK    6  A    between atoms: C_14  and  C_15
REMARK    7  A    between atoms: N_17  and  C_18
REMARK    8  A    between atoms: C_18  and  C_19
REMARK    9  A    between atoms: C_19  and  N_20
REMARK   10  A    between atoms: N_27  and  C_28
REMARK   11  A    between atoms: C_28  and  C_29
REMARK                            x       y       z     vdW  Elec       q    Type
REMARK                         _______ _______ _______ _____ _____    ______ ____
ROOT
ATOM      1  C   UNL     1       0.652  15.250  21.231  0.00  0.00    +0.000 C 
ATOM      2  C   UNL     1       0.555  13.954  20.488  0.00  0.00    +0.000 A 
ATOM      3  N   UNL     1       1.538  13.108  20.369  0.00  0.00    +0.000 NA
ATOM      4  C   UNL     1       1.043  12.053  19.657  0.00  0.00    +0.000 A 
ATOM      5  C   UNL     1       1.757  10.900  19.297  0.00  0.00    +0.000 A 
ATOM      6  C   UNL     1       1.134   9.908  18.562  0.00  0.00    +0.000 A 
ATOM      7  C   UNL     1      -0.184  10.097  18.162  0.00  0.00    +0.000 A 
ATOM      8  C   UNL     1      -0.944  11.259  18.459  0.00  0.00    +0.000 A 
ATOM      9  C   UNL     1      -0.300  12.241  19.277  0.00  0.00    +0.000 A 
ATOM     10  N   UNL     1      -0.605  13.453  19.903  0.00  0.00    +0.000 N 
ENDROOT
BRANCH   6  11
ATOM     11  N   UNL     1       1.756   8.726  18.121  0.00  0.00    +0.000 N 
ATOM     12  C   UNL     1       2.209   7.675  18.897  0.00  0.00    +0.000 C 
ATOM     13  O   UNL     1       2.082   7.569  20.116  0.00  0.00    +0.000 OA
ATOM     14  H   UNL     1       1.959   8.679  17.132  0.00  0.00    +0.000 HD
BRANCH  12  15
ATOM     15  C   UNL     1       2.928   6.595  18.104  0.00  0.00    +0.000 C 
ATOM     16  C   UNL     1       4.014   7.197  17.219  0.00  0.00    +0.000 C 
ATOM     17  C   UNL     1       3.475   5.508  19.024  0.00  0.00    +0.000 C 
ENDBRANCH  12  15
ENDBRANCH   6  11
BRANCH   8  18
ATOM     18  C   UNL     1      -2.236  11.402  17.698  0.00  0.00    +0.000 C 
ATOM     19  O   UNL     1      -2.310  11.065  16.532  0.00  0.00    +0.000 OA
ATOM     20  N   UNL     1      -3.343  11.839  18.433  0.00  0.00    +0.000 N 
ATOM     21  H   UNL     1      -3.190  12.326  19.308  0.00  0.00    +0.000 HD
BRANCH  20  22
ATOM     22  C   UNL     1      -4.720  11.809  17.956  0.00  0.00    +0.000 C 
BRANCH  22  23
ATOM     23  C   UNL     1      -5.698  10.849  18.683  0.00  0.00    +0.000 C 
BRANCH  23  24
ATOM     24  N   UNL     1      -6.524  11.458  19.707  0.00  0.00    +0.000 N 
ATOM     25  C   UNL     1      -6.583  12.886  19.956  0.00  0.00    +0.000 C 
ATOM     26  C   UNL     1      -7.741  13.013  20.940  0.00  0.00    +0.000 C 
ATOM     27  N   UNL     1      -7.886  11.681  21.468  0.00  0.00    +0.000 N 
ATOM     28  C   UNL     1      -7.273  10.756  20.643  0.00  0.00    +0.000 C 
ATOM     29  O   UNL     1      -7.390   9.544  20.731  0.00  0.00    +0.000 OA
ATOM     30  H   UNL     1      -8.620  11.377  22.094  0.00  0.00    +0.000 HD
ENDBRANCH  23  24
ENDBRANCH  22  23
ENDBRANCH  20  22
ENDBRANCH   8  18
BRANCH  10  31
ATOM     31  C   UNL     1      -1.895  14.109  20.085  0.00  0.00    +0.000 C 
BRANCH  31  32
ATOM     32  C   UNL     1      -2.621  13.753  21.372  0.00  0.00    +0.000 A 
ATOM     33  C   UNL     1      -3.634  14.535  21.950  0.00  0.00    +0.000 A 
ATOM     34  C   UNL     1      -4.222  14.166  23.164  0.00  0.00    +0.000 A 
ATOM     35  C   UNL     1      -3.815  13.007  23.818  0.00  0.00    +0.000 A 
ATOM     36  C   UNL     1      -2.831  12.203  23.248  0.00  0.00    +0.000 A 
ATOM     37  C   UNL     1      -2.248  12.567  22.031  0.00  0.00    +0.000 A 
ENDBRANCH  31  32
ENDBRANCH  10  31
TORSDOF 8
ENDMDL
MODEL 8
REMARK VINA RESULT:      -6.7      3.956      7.270
REMARK  Name = 
REMARK  11 active torsions:
REMARK  status: ('A' for Active; 'I' for Inactive)
REMARK    1  A    between atoms: C_1  and  C_2
REMARK    2  A    between atoms: C_6  and  N_7
REMARK    3  A    between atoms: C_8  and  C_10
REMARK    4  A    between atoms: C_10  and  C_11
REMARK    5  A    between atoms: C_10  and  C_12
REMARK    6  A    between atoms: C_14  and  C_15
REMARK    7  A    between atoms: N_17  and  C_18
REMARK    8  A    between atoms: C_18  and  C_19
REMARK    9  A    between atoms: C_19  and  N_20
REMARK   10  A    between atoms: N_27  and  C_28
REMARK   11  A    between atoms: C_28  and  C_29
REMARK                            x       y       z     vdW  Elec       q    Type
REMARK                         _______ _______ _______ _____ _____    ______ ____
ROOT
ATOM      1  C   UNL     1      -0.546  11.251  18.417  0.00  0.00    +0.000 C 
ATOM      2  C   UNL     1       0.474  10.156  18.420  0.00  0.00    +0.000 A 
ATOM      3  N   UNL     1       1.341   9.966  17.467  0.00  0.00    +0.000 NA
ATOM      4  C   UNL     1       2.103   8.902  17.857  0.00  0.00    +0.000 A 
ATOM      5  C   UNL     1       3.170   8.349  17.134  0.00  0.00    +0.000 A 
ATOM      6  C   UNL     1       3.853   7.260  17.643  0.00  0.00    +0.000 A 
ATOM      7  C   UNL     1       3.439   6.712  18.851  0.00  0.00    +0.000 A 
ATOM      8  C   UNL     1       2.341   7.201  19.607  0.00  0.00    +0.000 A 
ATOM      9  C   UNL     1       1.691   8.369  19.094  0.00  0.00    +0.000 A 
ATOM     10  N   UNL     1       0.681   9.261  19.466  0.00  0.00    +0.000 N 
ENDROOT
BRANCH   6  11
ATOM     11  N   UNL     1       4.917   6.605  16.994  0.00  0.00    +0.000 N 
ATOM     12  C   UNL     1       4.969   5.284  16.591  0.00  0.00    +0.000 C 
ATOM     13  O   UNL     1       4.055   4.465  16.676  0.00  0.00    +0.000 OA
ATOM     14  H   UNL     1       5.762   7.147  16.881  0.00  0.00    +0.000 HD
BRANCH  12  15
ATOM     15  C   UNL     1       6.313   4.875  16.010  0.00  0.00    +0.000 C 
ATOM     16  C   UNL     1       7.306   4.531  17.115  0.00  0.00    +0.000 C 
ATOM     17  C   UNL     1       6.156   3.737  15.007  0.00  0.00    +0.000 C 
ENDBRANCH  12  15
ENDBRANCH   6  11
BRANCH   8  18
ATOM     18  C   UNL     1       1.871   6.305  20.723  0.00  0.00    +0.000 C 
ATOM     19  O   UNL     1       0.847   6.553  21.330  0.00  0.00    +0.000 OA
ATOM     20  N   UNL     1       2.618   5.142  20.941  0.00  0.00    +0.000 N 
ATOM     21  H   UNL     1       3.569   5.098  20.593  0.00  0.00    +0.000 HD
BRANCH  20  22
ATOM     22  C   UNL     1       2.202   4.034  21.791  0.00  0.00    +0.000 C 
BRANCH  22  23
ATOM     23  C   UNL     1       1.510   2.832  21.097  0.00  0.00    +0.000 C 
BRANCH  23  24
ATOM     24  N   UNL     1       2.129   2.384  19.864  0.00  0.00    +0.000 N 
ATOM     25  C   UNL     1       3.557   2.190  19.700  0.00  0.00    +0.000 C 
ATOM     26  C   UNL     1       3.654   1.506  18.341  0.00  0.00    +0.000 C 
ATOM     27  N   UNL     1       2.390   1.803  17.719  0.00  0.00    +0.000 N 
ATOM     28  C   UNL     1       1.456   2.189  18.664  0.00  0.00    +0.000 C 
ATOM     29  O   UNL     1       0.260   2.320  18.463  0.00  0.00    +0.000 OA
ATOM     30  H   UNL     1       2.072   1.435  16.832  0.00  0.00    +0.000 HD
ENDBRANCH  23  24
ENDBRANCH  22  23
ENDBRANCH  20  22
ENDBRANCH   8  18
BRANCH  10  31
ATOM     31  C   UNL     1      -0.014   9.401  20.740  0.00  0.00    +0.000 C 
BRANCH  31  32
ATOM     32  C   UNL     1      -0.103  10.823  21.270  0.00  0.00    +0.000 A 
ATOM     33  C   UNL     1       0.836  11.829  20.995  0.00  0.00    +0.000 A 
ATOM     34  C   UNL     1       0.712  13.103  21.561  0.00  0.00    +0.000 A 
ATOM     35  C   UNL     1      -0.356  13.395  22.404  0.00  0.00    +0.000 A 
ATOM     36  C   UNL     1      -1.313  12.419  22.668  0.00  0.00    +0.000 A 
ATOM     37  C   UNL     1      -1.194  11.149  22.098  0.00  0.00    +0.000 A 
ENDBRANCH  31  32
ENDBRANCH  10  31
TORSDOF 8
ENDMDL
MODEL 9
REMARK VINA RESULT:      -6.7      7.536     12.536
REMARK  Name = 
REMARK  11 active torsions:
REMARK  status: ('A' for Active; 'I' for Inactive)
REMARK    1  A    between atoms: C_1  and  C_2
REMARK    2  A    between atoms: C_6  and  N_7
REMARK    3  A    between atoms: C_8  and  C_10
REMARK    4  A    between atoms: C_10  and  C_11
REMARK    5  A    between atoms: C_10  and  C_12
REMARK    6  A    between atoms: C_14  and  C_15
REMARK    7  A    between atoms: N_17  and  C_18
REMARK    8  A    between atoms: C_18  and  C_19
REMARK    9  A    between atoms: C_19  and  N_20
REMARK   10  A    between atoms: N_27  and  C_28
REMARK   11  A    between atoms: C_28  and  C_29
REMARK                            x       y       z     vdW  Elec       q    Type
REMARK                         _______ _______ _______ _____ _____    ______ ____
ROOT
ATOM      1  C   UNL     1       1.616   9.546  17.623  0.00  0.00    +0.000 C 
ATOM      2  C   UNL     1       1.431  10.672  18.591  0.00  0.00    +0.000 A 
ATOM      3  N   UNL     1       2.243  11.686  18.692  0.00  0.00    +0.000 NA
ATOM      4  C   UNL     1       1.714  12.498  19.654  0.00  0.00    +0.000 A 
ATOM      5  C   UNL     1       2.259  13.716  20.089  0.00  0.00    +0.000 A 
ATOM      6  C   UNL     1       1.624  14.437  21.083  0.00  0.00    +0.000 A 
ATOM      7  C   UNL     1       0.471  13.914  21.659  0.00  0.00    +0.000 A 
ATOM      8  C   UNL     1      -0.103  12.669  21.290  0.00  0.00    +0.000 A 
ATOM      9  C   UNL     1       0.534  11.973  20.214  0.00  0.00    +0.000 A 
ATOM     10  N   UNL     1       0.340  10.824  19.442  0.00  0.00    +0.000 N 
ENDROOT
BRANCH   6  11
ATOM     11  N   UNL     1       2.091  15.651  21.617  0.00  0.00    +0.000 N 
ATOM     12  C   UNL     1       3.066  15.824  22.582  0.00  0.00    +0.000 C 
ATOM     13  O   UNL     1       3.742  14.934  23.096  0.00  0.00    +0.000 OA
ATOM     14  H   UNL     1       1.604  16.482  21.311  0.00  0.00    +0.000 HD
BRANCH  12  15
ATOM     15  C   UNL     1       3.256  17.272  23.006  0.00  0.00    +0.000 C 
ATOM     16  C   UNL     1       3.623  18.148  21.813  0.00  0.00    +0.000 C 
ATOM     17  C   UNL     1       2.029  17.796  23.745  0.00  0.00    +0.000 C 
ENDBRANCH  12  15
ENDBRANCH   6  11
BRANCH   8  18
ATOM     18  C   UNL     1      -1.167  12.145  22.220  0.00  0.00    +0.000 C 
ATOM     19  O   UNL     1      -1.068  11.040  22.717  0.00  0.00    +0.000 OA
ATOM     20  N   UNL     1      -2.198  13.034  22.545  0.00  0.00    +0.000 N 
ATOM     21  H   UNL     1      -2.370  13.828  21.939  0.00  0.00    +0.000 HD
BRANCH  20  22
ATOM     22  C   UNL     1      -3.177  12.817  23.603  0.00  0.00    +0.000 C 
BRANCH  22  23
ATOM     23  C   UNL     1      -4.463  13.685  23.562  0.00  0.00    +0.000 C 
BRANCH  23  24
ATOM     24  N   UNL     1      -5.659  13.005  23.103  0.00  0.00    +0.000 N 
ATOM     25  C   UNL     1      -6.760  12.630  23.969  0.00  0.00    +0.000 C 
ATOM     26  C   UNL     1      -7.831  12.177  22.984  0.00  0.00    +0.000 C 
ATOM     27  N   UNL     1      -7.092  11.912  21.777  0.00  0.00    +0.000 N 
ATOM     28  C   UNL     1      -5.856  12.533  21.811  0.00  0.00    +0.000 C 
ATOM     29  O   UNL     1      -5.095  12.643  20.864  0.00  0.00    +0.000 OA
ATOM     30  H   UNL     1      -7.498  11.668  20.883  0.00  0.00    +0.000 HD
ENDBRANCH  23  24
ENDBRANCH  22  23
ENDBRANCH  20  22
ENDBRANCH   8  18
BRANCH  10  31
ATOM     31  C   UNL     1      -0.816   9.938  19.365  0.00  0.00    +0.000 C 
BRANCH  31  32
ATOM     32  C   UNL     1      -1.882  10.356  18.365  0.00  0.00    +0.000 A 
ATOM     33  C   UNL     1      -2.871  11.319  18.620  0.00  0.00    +0.000 A 
ATOM     34  C   UNL     1      -3.849  11.615  17.666  0.00  0.00    +0.000 A 
ATOM     35  C   UNL     1      -3.852  10.960  16.438  0.00  0.00    +0.000 A 
ATOM     36  C   UNL     1      -2.864  10.020  16.155  0.00  0.00    +0.000 A 
ATOM     37  C   UNL     1      -1.882   9.729  17.105  0.00  0.00    +0.000 A 
ENDBRANCH  31  32
ENDBRANCH  10  31
TORSDOF 8
ENDMDL
