MODEL 1
REMARK VINA RESULT:      -8.5      0.000      0.000
REMARK  Name = 
REMARK  9 active torsions:
REMARK  status: ('A' for Active; 'I' for Inactive)
REMARK    1  A    between atoms: C_1  and  C_2
REMARK    2  A    between atoms: C_5  and  C_6
REMARK    3  A    between atoms: C_6  and  C_7
REMARK    4  A    between atoms: N_9  and  N_10
REMARK    5  A    between atoms: C_11  and  C_12
REMARK    6  A    between atoms: C_15  and  O_16
REMARK    7  A    between atoms: O_16  and  C_17
REMARK    8  A    between atoms: C_17  and  C_19
REMARK    9  A    between atoms: C_22  and  N_23
REMARK                            x       y       z     vdW  Elec       q    Type
REMARK                         _______ _______ _______ _____ _____    ______ ____
ROOT
ATOM      1  C   UNL     1       1.567   6.889  20.555  0.00  0.00    +0.000 A 
ATOM      2  C   UNL     1       2.338   7.332  19.469  0.00  0.00    +0.000 A 
ATOM      3  C   UNL     1       3.020   6.422  18.665  0.00  0.00    +0.000 A 
ATOM      4  C   UNL     1       2.940   5.061  18.953  0.00  0.00    +0.000 A 
ATOM      5  C   UNL     1       2.176   4.610  20.036  0.00  0.00    +0.000 A 
ATOM      6  C   UNL     1       1.491   5.528  20.845  0.00  0.00    +0.000 A 
ENDROOT
BRANCH   1   8
ATOM      7  N   UNL     1       1.266   9.098  21.363  0.00  0.00    +0.000 NA
ATOM      8  C   UNL     1       0.830   7.884  21.367  0.00  0.00    +0.000 C 
BRANCH   7  11
ATOM      9  C   UNL     1       0.407  11.281  21.521  0.00  0.00    +0.000 C 
ATOM     10  O   UNL     1      -0.143  12.179  22.160  0.00  0.00    +0.000 OA
ATOM     11  N   UNL     1       0.639  10.043  22.087  0.00  0.00    +0.000 N 
ATOM     12  H   UNL     1       0.365   9.890  23.052  0.00  0.00    +0.000 HD
BRANCH   9  13
ATOM     13  C   UNL     1       0.868  11.467  20.075  0.00  0.00    +0.000 C 
BRANCH  13  18
ATOM     14  C   UNL     1      -3.339  10.291  16.198  0.00  0.00    +0.000 C 
ATOM     15  C   UNL     1      -2.231  10.601  17.161  0.00  0.00    +0.000 A 
ATOM     16  C   UNL     1      -1.185   9.699  17.379  0.00  0.00    +0.000 A 
ATOM     17  C   UNL     1      -0.178   9.996  18.304  0.00  0.00    +0.000 A 
ATOM     18  C   UNL     1      -0.189  11.202  19.023  0.00  0.00    +0.000 A 
ATOM     19  C   UNL     1      -1.241  12.098  18.800  0.00  0.00    +0.000 A 
ATOM     20  C   UNL     1      -2.246  11.805  17.874  0.00  0.00    +0.000 A 
ENDBRANCH  13  18
ENDBRANCH   9  13
ENDBRANCH   7  11
ENDBRANCH   1   8
BRANCH   4  21
ATOM     21  O   UNL     1       3.596   4.208  18.034  0.00  0.00    +0.000 OA
BRANCH  21  22
ATOM     22  C   UNL     1       4.964   3.998  18.094  0.00  0.00    +0.000 C 
ATOM     23  O   UNL     1       5.605   3.626  19.065  0.00  0.00    +0.000 OA
BRANCH  22  24
ATOM     24  C   UNL     1       5.607   4.287  16.775  0.00  0.00    +0.000 A 
ATOM     25  C   UNL     1       6.936   4.745  16.795  0.00  0.00    +0.000 A 
ATOM     26  C   UNL     1       7.623   5.017  15.606  0.00  0.00    +0.000 A 
ATOM     27  C   UNL     1       6.977   4.831  14.380  0.00  0.00    +0.000 A 
ATOM     28  C   UNL     1       5.646   4.387  14.342  0.00  0.00    +0.000 A 
ATOM     29  C   UNL     1       4.963   4.118  15.540  0.00  0.00    +0.000 A 
BRANCH  27  30
ATOM     30  N   UNL     1       7.702   5.093  13.128  0.00  0.00    +0.000 N 
ATOM     31  O   UNL     1       8.652   5.888  13.170  0.00  0.00    +0.000 OA
ATOM     32  O   UNL     1       7.322   4.503  12.108  0.00  0.00    +0.000 OA
ENDBRANCH  27  30
ENDBRANCH  22  24
ENDBRANCH  21  22
ENDBRANCH   4  21
TORSDOF 8
ENDMDL
MODEL 2
REMARK VINA RESULT:      -8.4      3.532     10.394
REMARK  Name = 
REMARK  9 active torsions:
REMARK  status: ('A' for Active; 'I' for Inactive)
REMARK    1  A    between atoms: C_1  and  C_2
REMARK    2  A    between atoms: C_5  and  C_6
REMARK    3  A    between atoms: C_6  and  C_7
REMARK    4  A    between atoms: N_9  and  N_10
REMARK    5  A    between atoms: C_11  and  C_12
REMARK    6  A    between atoms: C_15  and  O_16
REMARK    7  A    between atoms: O_16  and  C_17
REMARK    8  A    between atoms: C_17  and  C_19
REMARK    9  A    between atoms: C_22  and  N_23
REMARK                            x       y       z     vdW  Elec       q    Type
REMARK                         _______ _______ _______ _____ _____    ______ ____
ROOT
ATOM      1  C   UNL     1       2.051   6.944  19.878  0.00  0.00    +0.000 A 
ATOM      2  C   UNL     1       1.364   7.546  20.943  0.00  0.00    +0.000 A 
ATOM      3  C   UNL     1       0.875   8.845  20.827  0.00  0.00    +0.000 A 
ATOM      4  C   UNL     1       1.081   9.551  19.643  0.00  0.00    +0.000 A 
ATOM      5  C   UNL     1       1.768   8.959  18.576  0.00  0.00    +0.000 A 
ATOM      6  C   UNL     1       2.261   7.651  18.695  0.00  0.00    +0.000 A 
ENDROOT
BRANCH   1   8
ATOM      7  N   UNL     1       2.161   4.694  19.134  0.00  0.00    +0.000 NA
ATOM      8  C   UNL     1       2.528   5.549  20.027  0.00  0.00    +0.000 C 
BRANCH   7  11
ATOM      9  C   UNL     1       3.289   2.862  18.187  0.00  0.00    +0.000 C 
ATOM     10  O   UNL     1       3.652   1.685  18.221  0.00  0.00    +0.000 OA
ATOM     11  N   UNL     1       2.559   3.412  19.223  0.00  0.00    +0.000 N 
ATOM     12  H   UNL     1       2.308   2.823  20.009  0.00  0.00    +0.000 HD
BRANCH   9  13
ATOM     13  C   UNL     1       3.614   3.787  17.014  0.00  0.00    +0.000 C 
BRANCH  13  18
ATOM     14  C   UNL     1       7.940   7.612  17.891  0.00  0.00    +0.000 C 
ATOM     15  C   UNL     1       6.812   6.641  17.704  0.00  0.00    +0.000 A 
ATOM     16  C   UNL     1       6.773   5.431  18.403  0.00  0.00    +0.000 A 
ATOM     17  C   UNL     1       5.726   4.526  18.192  0.00  0.00    +0.000 A 
ATOM     18  C   UNL     1       4.694   4.815  17.285  0.00  0.00    +0.000 A 
ATOM     19  C   UNL     1       4.742   6.028  16.588  0.00  0.00    +0.000 A 
ATOM     20  C   UNL     1       5.785   6.934  16.801  0.00  0.00    +0.000 A 
ENDBRANCH  13  18
ENDBRANCH   9  13
ENDBRANCH   7  11
ENDBRANCH   1   8
BRANCH   4  21
ATOM     21  O   UNL     1       0.477  10.829  19.587  0.00  0.00    +0.000 OA
BRANCH  21  22
ATOM     22  C   UNL     1       0.583  11.724  20.639  0.00  0.00    +0.000 C 
ATOM     23  O   UNL     1       1.606  12.242  21.058  0.00  0.00    +0.000 OA
BRANCH  22  24
ATOM     24  C   UNL     1      -0.759  12.007  21.237  0.00  0.00    +0.000 A 
ATOM     25  C   UNL     1      -1.747  12.524  20.381  0.00  0.00    +0.000 A 
ATOM     26  C   UNL     1      -3.038  12.794  20.851  0.00  0.00    +0.000 A 
ATOM     27  C   UNL     1      -3.349  12.547  22.191  0.00  0.00    +0.000 A 
ATOM     28  C   UNL     1      -2.370  12.042  23.063  0.00  0.00    +0.000 A 
ATOM     29  C   UNL     1      -1.077  11.775  22.584  0.00  0.00    +0.000 A 
BRANCH  27  30
ATOM     30  N   UNL     1      -4.709  12.807  22.684  0.00  0.00    +0.000 N 
ATOM     31  O   UNL     1      -4.828  13.506  23.701  0.00  0.00    +0.000 OA
ATOM     32  O   UNL     1      -5.655  12.317  22.052  0.00  0.00    +0.000 OA
ENDBRANCH  27  30
ENDBRANCH  22  24
ENDBRANCH  21  22
ENDBRANCH   4  21
TORSDOF 8
ENDMDL
MODEL 3
REMARK VINA RESULT:      -8.4      1.864      2.414
REMARK  Name = 
REMARK  9 active torsions:
REMARK  status: ('A' for Active; 'I' for Inactive)
REMARK    1  A    between atoms: C_1  and  C_2
REMARK    2  A    between atoms: C_5  and  C_6
REMARK    3  A    between atoms: C_6  and  C_7
REMARK    4  A    between atoms: N_9  and  N_10
REMARK    5  A    between atoms: C_11  and  C_12
REMARK    6  A    between atoms: C_15  and  O_16
REMARK    7  A    between atoms: O_16  and  C_17
REMARK    8  A    between atoms: C_17  and  C_19
REMARK    9  A    between atoms: C_22  and  N_23
REMARK                            x       y       z     vdW  Elec       q    Type
REMARK                         _______ _______ _______ _____ _____    ______ ____
ROOT
ATOM      1  C   UNL     1       1.665   6.706  20.358  0.00  0.00    +0.000 A 
ATOM      2  C   UNL     1       1.539   5.416  20.899  0.00  0.00    +0.000 A 
ATOM      3  C   UNL     1       1.688   4.291  20.092  0.00  0.00    +0.000 A 
ATOM      4  C   UNL     1       1.956   4.453  18.735  0.00  0.00    +0.000 A 
ATOM      5  C   UNL     1       2.080   5.735  18.186  0.00  0.00    +0.000 A 
ATOM      6  C   UNL     1       1.928   6.868  18.999  0.00  0.00    +0.000 A 
ENDROOT
BRANCH   1   8
ATOM      7  N   UNL     1       0.508   8.643  21.086  0.00  0.00    +0.000 NA
ATOM      8  C   UNL     1       1.532   7.877  21.254  0.00  0.00    +0.000 C 
BRANCH   7  11
ATOM      9  C   UNL     1       0.418  10.983  21.302  0.00  0.00    +0.000 C 
ATOM     10  O   UNL     1       0.292  11.998  21.988  0.00  0.00    +0.000 OA
ATOM     11  N   UNL     1       0.339   9.725  21.868  0.00  0.00    +0.000 N 
ATOM     12  H   UNL     1       0.196   9.650  22.869  0.00  0.00    +0.000 HD
BRANCH   9  13
ATOM     13  C   UNL     1       0.666  11.038  19.794  0.00  0.00    +0.000 C 
BRANCH  13  18
ATOM     14  C   UNL     1      -4.239  10.818  16.631  0.00  0.00    +0.000 C 
ATOM     15  C   UNL     1      -2.959  10.893  17.410  0.00  0.00    +0.000 A 
ATOM     16  C   UNL     1      -1.902  10.014  17.155  0.00  0.00    +0.000 A 
ATOM     17  C   UNL     1      -0.728  10.082  17.913  0.00  0.00    +0.000 A 
ATOM     18  C   UNL     1      -0.582  11.034  18.935  0.00  0.00    +0.000 A 
ATOM     19  C   UNL     1      -1.645  11.909  19.185  0.00  0.00    +0.000 A 
ATOM     20  C   UNL     1      -2.817  11.844  18.426  0.00  0.00    +0.000 A 
ENDBRANCH  13  18
ENDBRANCH   9  13
ENDBRANCH   7  11
ENDBRANCH   1   8
BRANCH   4  21
ATOM     21  O   UNL     1       2.174   3.256  18.013  0.00  0.00    +0.000 OA
BRANCH  21  22
ATOM     22  C   UNL     1       3.435   2.688  17.922  0.00  0.00    +0.000 C 
ATOM     23  O   UNL     1       3.702   1.497  17.935  0.00  0.00    +0.000 OA
BRANCH  22  24
ATOM     24  C   UNL     1       4.488   3.743  17.797  0.00  0.00    +0.000 A 
ATOM     25  C   UNL     1       5.143   4.139  18.976  0.00  0.00    +0.000 A 
ATOM     26  C   UNL     1       6.159   5.103  18.947  0.00  0.00    +0.000 A 
ATOM     27  C   UNL     1       6.526   5.679  17.728  0.00  0.00    +0.000 A 
ATOM     28  C   UNL     1       5.873   5.305  16.543  0.00  0.00    +0.000 A 
ATOM     29  C   UNL     1       4.854   4.338  16.580  0.00  0.00    +0.000 A 
BRANCH  27  30
ATOM     30  N   UNL     1       7.607   6.675  17.689  0.00  0.00    +0.000 N 
ATOM     31  O   UNL     1       7.825   7.245  16.611  0.00  0.00    +0.000 OA
ATOM     32  O   UNL     1       8.233   6.886  18.737  0.00  0.00    +0.000 OA
ENDBRANCH  27  30
ENDBRANCH  22  24
ENDBRANCH  21  22
ENDBRANCH   4  21
TORSDOF 8
ENDMDL
MODEL 4
REMARK VINA RESULT:      -8.3      1.456      2.264
REMARK  Name = 
REMARK  9 active torsions:
REMARK  status: ('A' for Active; 'I' for Inactive)
REMARK    1  A    between atoms: C_1  and  C_2
REMARK    2  A    between atoms: C_5  and  C_6
REMARK    3  A    between atoms: C_6  and  C_7
REMARK    4  A    between atoms: N_9  and  N_10
REMARK    5  A    between atoms: C_11  and  C_12
REMARK    6  A    between atoms: C_15  and  O_16
REMARK    7  A    between atoms: O_16  and  C_17
REMARK    8  A    between atoms: C_17  and  C_19
REMARK    9  A    between atoms: C_22  and  N_23
REMARK                            x       y       z     vdW  Elec       q    Type
REMARK                         _______ _______ _______ _____ _____    ______ ____
ROOT
ATOM      1  C   UNL     1       1.908   9.011  18.836  0.00  0.00    +0.000 A 
ATOM      2  C   UNL     1       2.619   8.456  17.761  0.00  0.00    +0.000 A 
ATOM      3  C   UNL     1       3.093   7.148  17.824  0.00  0.00    +0.000 A 
ATOM      4  C   UNL     1       2.864   6.392  18.972  0.00  0.00    +0.000 A 
ATOM      5  C   UNL     1       2.159   6.938  20.051  0.00  0.00    +0.000 A 
ATOM      6  C   UNL     1       1.684   8.256  19.986  0.00  0.00    +0.000 A 
ENDROOT
BRANCH   1   8
ATOM      7  N   UNL     1       0.925  10.949  19.785  0.00  0.00    +0.000 NA
ATOM      8  C   UNL     1       1.392  10.394  18.719  0.00  0.00    +0.000 C 
BRANCH   7  11
ATOM      9  C   UNL     1      -0.924  12.390  19.595  0.00  0.00    +0.000 C 
ATOM     10  O   UNL     1      -1.406  13.521  19.522  0.00  0.00    +0.000 OA
ATOM     11  N   UNL     1       0.437  12.202  19.736  0.00  0.00    +0.000 N 
ATOM     12  H   UNL     1       1.041  13.017  19.759  0.00  0.00    +0.000 HD
BRANCH   9  13
ATOM     13  C   UNL     1      -1.784  11.126  19.534  0.00  0.00    +0.000 C 
BRANCH  13  18
ATOM     14  C   UNL     1      -3.909  10.124  14.187  0.00  0.00    +0.000 C 
ATOM     15  C   UNL     1      -3.395  10.357  15.577  0.00  0.00    +0.000 A 
ATOM     16  C   UNL     1      -4.043  11.232  16.454  0.00  0.00    +0.000 A 
ATOM     17  C   UNL     1      -3.530  11.458  17.736  0.00  0.00    +0.000 A 
ATOM     18  C   UNL     1      -2.364  10.807  18.171  0.00  0.00    +0.000 A 
ATOM     19  C   UNL     1      -1.721   9.934  17.287  0.00  0.00    +0.000 A 
ATOM     20  C   UNL     1      -2.235   9.706  16.008  0.00  0.00    +0.000 A 
ENDBRANCH  13  18
ENDBRANCH   9  13
ENDBRANCH   7  11
ENDBRANCH   1   8
BRANCH   4  21
ATOM     21  O   UNL     1       3.308   5.050  18.912  0.00  0.00    +0.000 OA
BRANCH  21  22
ATOM     22  C   UNL     1       4.657   4.733  18.956  0.00  0.00    +0.000 C 
ATOM     23  O   UNL     1       5.312   4.463  19.950  0.00  0.00    +0.000 OA
BRANCH  22  24
ATOM     24  C   UNL     1       5.255   4.755  17.585  0.00  0.00    +0.000 A 
ATOM     25  C   UNL     1       6.446   5.482  17.416  0.00  0.00    +0.000 A 
ATOM     26  C   UNL     1       7.088   5.536  16.173  0.00  0.00    +0.000 A 
ATOM     27  C   UNL     1       6.535   4.856  15.084  0.00  0.00    +0.000 A 
ATOM     28  C   UNL     1       5.339   4.136  15.231  0.00  0.00    +0.000 A 
ATOM     29  C   UNL     1       4.701   4.088  16.482  0.00  0.00    +0.000 A 
BRANCH  27  30
ATOM     30  N   UNL     1       7.217   4.891  13.782  0.00  0.00    +0.000 N 
ATOM     31  O   UNL     1       6.801   4.133  12.894  0.00  0.00    +0.000 OA
ATOM     32  O   UNL     1       8.165   5.677  13.648  0.00  0.00    +0.000 OA
ENDBRANCH  27  30
ENDBRANCH  22  24
ENDBRANCH  21  22
ENDBRANCH   4  21
TORSDOF 8
ENDMDL
MODEL 5
REMARK VINA RESULT:      -8.3      3.487     10.225
REMARK  Name = 
REMARK  9 active torsions:
REMARK  status: ('A' for Active; 'I' for Inactive)
REMARK    1  A    between atoms: C_1  and  C_2
REMARK    2  A    between atoms: C_5  and  C_6
REMARK    3  A    between atoms: C_6  and  C_7
REMARK    4  A    between atoms: N_9  and  N_10
REMARK    5  A    between atoms: C_11  and  C_12
REMARK    6  A    between atoms: C_15  and  O_16
REMARK    7  A    between atoms: O_16  and  C_17
REMARK    8  A    between atoms: C_17  and  C_19
REMARK    9  A    between atoms: C_22  and  N_23
REMARK                            x       y       z     vdW  Elec       q    Type
REMARK                         _______ _______ _______ _____ _____    ______ ____
ROOT
ATOM      1  C   UNL     1       2.091   7.008  19.863  0.00  0.00    +0.000 A 
ATOM      2  C   UNL     1       2.256   7.607  18.605  0.00  0.00    +0.000 A 
ATOM      3  C   UNL     1       1.796   8.900  18.369  0.00  0.00    +0.000 A 
ATOM      4  C   UNL     1       1.157   9.596  19.393  0.00  0.00    +0.000 A 
ATOM      5  C   UNL     1       0.985   9.006  20.651  0.00  0.00    +0.000 A 
ATOM      6  C   UNL     1       1.448   7.703  20.887  0.00  0.00    +0.000 A 
ENDROOT
BRANCH   1   8
ATOM      7  N   UNL     1       2.268   4.722  19.256  0.00  0.00    +0.000 NA
ATOM      8  C   UNL     1       2.622   5.643  20.086  0.00  0.00    +0.000 C 
BRANCH   7  11
ATOM      9  C   UNL     1       3.428   2.870  18.389  0.00  0.00    +0.000 C 
ATOM     10  O   UNL     1       3.834   1.711  18.485  0.00  0.00    +0.000 OA
ATOM     11  N   UNL     1       2.716   3.464  19.413  0.00  0.00    +0.000 N 
ATOM     12  H   UNL     1       2.514   2.919  20.244  0.00  0.00    +0.000 HD
BRANCH   9  13
ATOM     13  C   UNL     1       3.678   3.726  17.146  0.00  0.00    +0.000 C 
BRANCH  13  18
ATOM     14  C   UNL     1       7.884   7.724  17.808  0.00  0.00    +0.000 C 
ATOM     15  C   UNL     1       6.819   6.689  17.599  0.00  0.00    +0.000 A 
ATOM     16  C   UNL     1       5.724   6.932  16.764  0.00  0.00    +0.000 A 
ATOM     17  C   UNL     1       4.727   5.963  16.606  0.00  0.00    +0.000 A 
ATOM     18  C   UNL     1       4.807   4.729  17.271  0.00  0.00    +0.000 A 
ATOM     19  C   UNL     1       5.905   4.494  18.106  0.00  0.00    +0.000 A 
ATOM     20  C   UNL     1       6.903   5.460  18.262  0.00  0.00    +0.000 A 
ENDBRANCH  13  18
ENDBRANCH   9  13
ENDBRANCH   7  11
ENDBRANCH   1   8
BRANCH   4  21
ATOM     21  O   UNL     1       0.800  10.931  19.087  0.00  0.00    +0.000 OA
BRANCH  21  22
ATOM     22  C   UNL     1       0.887  11.937  20.035  0.00  0.00    +0.000 C 
ATOM     23  O   UNL     1       1.873  12.605  20.304  0.00  0.00    +0.000 OA
BRANCH  22  24
ATOM     24  C   UNL     1      -0.424  12.131  20.729  0.00  0.00    +0.000 A 
ATOM     25  C   UNL     1      -0.461  11.885  22.113  0.00  0.00    +0.000 A 
ATOM     26  C   UNL     1      -1.640  12.065  22.846  0.00  0.00    +0.000 A 
ATOM     27  C   UNL     1      -2.797  12.496  22.192  0.00  0.00    +0.000 A 
ATOM     28  C   UNL     1      -2.782  12.735  20.809  0.00  0.00    +0.000 A 
ATOM     29  C   UNL     1      -1.595  12.551  20.080  0.00  0.00    +0.000 A 
BRANCH  27  30
ATOM     30  N   UNL     1      -4.032  12.709  22.962  0.00  0.00    +0.000 N 
ATOM     31  O   UNL     1      -4.830  13.561  22.545  0.00  0.00    +0.000 OA
ATOM     32  O   UNL     1      -4.202  12.023  23.979  0.00  0.00    +0.000 OA
ENDBRANCH  27  30
ENDBRANCH  22  24
ENDBRANCH  21  22
ENDBRANCH   4  21
TORSDOF 8
ENDMDL
MODEL 6
REMARK VINA RESULT:      -8.3      3.303      9.707
REMARK  Name = 
REMARK  9 active torsions:
REMARK  status: ('A' for Active; 'I' for Inactive)
REMARK    1  A    between atoms: C_1  and  C_2
REMARK    2  A    between atoms: C_5  and  C_6
REMARK    3  A    between atoms: C_6  and  C_7
REMARK    4  A    between atoms: N_9  and  N_10
REMARK    5  A    between atoms: C_11  and  C_12
REMARK    6  A    between atoms: C_15  and  O_16
REMARK    7  A    between atoms: O_16  and  C_17
REMARK    8  A    between atoms: C_17  and  C_19
REMARK    9  A    between atoms: C_22  and  N_23
REMARK                            x       y       z     vdW  Elec       q    Type
REMARK                         _______ _______ _______ _____ _____    ______ ____
ROOT
ATOM      1  C   UNL     1       2.148   6.706  19.969  0.00  0.00    +0.000 A 
ATOM      2  C   UNL     1       1.489   7.185  21.111  0.00  0.00    +0.000 A 
ATOM      3  C   UNL     1       0.970   8.478  21.141  0.00  0.00    +0.000 A 
ATOM      4  C   UNL     1       1.120   9.300  20.026  0.00  0.00    +0.000 A 
ATOM      5  C   UNL     1       1.779   8.832  18.883  0.00  0.00    +0.000 A 
ATOM      6  C   UNL     1       2.302   7.531  18.855  0.00  0.00    +0.000 A 
ENDROOT
BRANCH   1   8
ATOM      7  N   UNL     1       2.111   4.483  19.143  0.00  0.00    +0.000 NA
ATOM      8  C   UNL     1       2.657   5.315  19.963  0.00  0.00    +0.000 C 
BRANCH   7  11
ATOM      9  C   UNL     1       3.242   2.768  17.999  0.00  0.00    +0.000 C 
ATOM     10  O   UNL     1       3.621   1.599  17.911  0.00  0.00    +0.000 OA
ATOM     11  N   UNL     1       2.530   3.205  19.099  0.00  0.00    +0.000 N 
ATOM     12  H   UNL     1       2.305   2.539  19.830  0.00  0.00    +0.000 HD
BRANCH   9  13
ATOM     13  C   UNL     1       3.525   3.807  16.913  0.00  0.00    +0.000 C 
BRANCH  13  18
ATOM     14  C   UNL     1       7.970   7.401  18.111  0.00  0.00    +0.000 C 
ATOM     15  C   UNL     1       6.846   6.471  17.764  0.00  0.00    +0.000 A 
ATOM     16  C   UNL     1       5.824   6.860  16.893  0.00  0.00    +0.000 A 
ATOM     17  C   UNL     1       4.768   5.987  16.606  0.00  0.00    +0.000 A 
ATOM     18  C   UNL     1       4.716   4.705  17.176  0.00  0.00    +0.000 A 
ATOM     19  C   UNL     1       5.742   4.324  18.048  0.00  0.00    +0.000 A 
ATOM     20  C   UNL     1       6.798   5.194  18.333  0.00  0.00    +0.000 A 
ENDBRANCH  13  18
ENDBRANCH   9  13
ENDBRANCH   7  11
ENDBRANCH   1   8
BRANCH   4  21
ATOM     21  O   UNL     1       0.490  10.564  20.117  0.00  0.00    +0.000 OA
BRANCH  21  22
ATOM     22  C   UNL     1       0.185  11.302  18.985  0.00  0.00    +0.000 C 
ATOM     23  O   UNL     1       0.963  11.953  18.305  0.00  0.00    +0.000 OA
BRANCH  22  24
ATOM     24  C   UNL     1      -1.273  11.209  18.663  0.00  0.00    +0.000 A 
ATOM     25  C   UNL     1      -2.136  12.091  19.335  0.00  0.00    +0.000 A 
ATOM     26  C   UNL     1      -3.512  12.090  19.077  0.00  0.00    +0.000 A 
ATOM     27  C   UNL     1      -4.035  11.197  18.138  0.00  0.00    +0.000 A 
ATOM     28  C   UNL     1      -3.190  10.299  17.467  0.00  0.00    +0.000 A 
ATOM     29  C   UNL     1      -1.810  10.306  17.732  0.00  0.00    +0.000 A 
BRANCH  27  30
ATOM     30  N   UNL     1      -5.477  11.207  17.848  0.00  0.00    +0.000 N 
ATOM     31  O   UNL     1      -6.188  10.381  18.438  0.00  0.00    +0.000 OA
ATOM     32  O   UNL     1      -5.895  12.042  17.034  0.00  0.00    +0.000 OA
ENDBRANCH  27  30
ENDBRANCH  22  24
ENDBRANCH  21  22
ENDBRANCH   4  21
TORSDOF 8
ENDMDL
MODEL 7
REMARK VINA RESULT:      -8.2      3.542     10.383
REMARK  Name = 
REMARK  9 active torsions:
REMARK  status: ('A' for Active; 'I' for Inactive)
REMARK    1  A    between atoms: C_1  and  C_2
REMARK    2  A    between atoms: C_5  and  C_6
REMARK    3  A    between atoms: C_6  and  C_7
REMARK    4  A    between atoms: N_9  and  N_10
REMARK    5  A    between atoms: C_11  and  C_12
REMARK    6  A    between atoms: C_15  and  O_16
REMARK    7  A    between atoms: O_16  and  C_17
REMARK    8  A    between atoms: C_17  and  C_19
REMARK    9  A    between atoms: C_22  and  N_23
REMARK                            x       y       z     vdW  Elec       q    Type
REMARK                         _______ _______ _______ _____ _____    ______ ____
ROOT
ATOM      1  C   UNL     1       2.151   6.979  19.808  0.00  0.00    +0.000 A 
ATOM      2  C   UNL     1       1.482   7.651  20.843  0.00  0.00    +0.000 A 
ATOM      3  C   UNL     1       0.967   8.929  20.642  0.00  0.00    +0.000 A 
ATOM      4  C   UNL     1       1.130   9.545  19.403  0.00  0.00    +0.000 A 
ATOM      5  C   UNL     1       1.798   8.884  18.365  0.00  0.00    +0.000 A 
ATOM      6  C   UNL     1       2.317   7.597  18.570  0.00  0.00    +0.000 A 
ENDROOT
BRANCH   1   8
ATOM      7  N   UNL     1       2.275   4.680  19.240  0.00  0.00    +0.000 NA
ATOM      8  C   UNL     1       2.655   5.608  20.050  0.00  0.00    +0.000 C 
BRANCH   7  11
ATOM      9  C   UNL     1       3.408   2.796  18.404  0.00  0.00    +0.000 C 
ATOM     10  O   UNL     1       3.791   1.631  18.518  0.00  0.00    +0.000 OA
ATOM     11  N   UNL     1       2.697   3.415  19.415  0.00  0.00    +0.000 N 
ATOM     12  H   UNL     1       2.477   2.884  20.251  0.00  0.00    +0.000 HD
BRANCH   9  13
ATOM     13  C   UNL     1       3.684   3.633  17.155  0.00  0.00    +0.000 C 
BRANCH  13  18
ATOM     14  C   UNL     1       7.869   7.652  17.831  0.00  0.00    +0.000 C 
ATOM     15  C   UNL     1       6.812   6.608  17.620  0.00  0.00    +0.000 A 
ATOM     16  C   UNL     1       5.784   6.793  16.690  0.00  0.00    +0.000 A 
ATOM     17  C   UNL     1       4.792   5.819  16.530  0.00  0.00    +0.000 A 
ATOM     18  C   UNL     1       4.811   4.637  17.289  0.00  0.00    +0.000 A 
ATOM     19  C   UNL     1       5.842   4.461  18.218  0.00  0.00    +0.000 A 
ATOM     20  C   UNL     1       6.836   5.432  18.376  0.00  0.00    +0.000 A 
ENDBRANCH  13  18
ENDBRANCH   9  13
ENDBRANCH   7  11
ENDBRANCH   1   8
BRANCH   4  21
ATOM     21  O   UNL     1       0.502  10.806  19.266  0.00  0.00    +0.000 OA
BRANCH  21  22
ATOM     22  C   UNL     1       0.708  11.819  20.189  0.00  0.00    +0.000 C 
ATOM     23  O   UNL     1       1.759  12.395  20.420  0.00  0.00    +0.000 OA
BRANCH  22  24
ATOM     24  C   UNL     1      -0.561  12.151  20.908  0.00  0.00    +0.000 A 
ATOM     25  C   UNL     1      -1.549  12.840  20.183  0.00  0.00    +0.000 A 
ATOM     26  C   UNL     1      -2.776  13.170  20.771  0.00  0.00    +0.000 A 
ATOM     27  C   UNL     1      -3.022  12.808  22.098  0.00  0.00    +0.000 A 
ATOM     28  C   UNL     1      -2.042  12.131  22.841  0.00  0.00    +0.000 A 
ATOM     29  C   UNL     1      -0.813  11.805  22.244  0.00  0.00    +0.000 A 
BRANCH  27  30
ATOM     30  N   UNL     1      -4.319  13.132  22.712  0.00  0.00    +0.000 N 
ATOM     31  O   UNL     1      -4.982  12.196  23.181  0.00  0.00    +0.000 OA
ATOM     32  O   UNL     1      -4.668  14.320  22.728  0.00  0.00    +0.000 OA
ENDBRANCH  27  30
ENDBRANCH  22  24
ENDBRANCH  21  22
ENDBRANCH   4  21
TORSDOF 8
ENDMDL
MODEL 8
REMARK VINA RESULT:      -8.2      1.392      1.985
REMARK  Name = 
REMARK  9 active torsions:
REMARK  status: ('A' for Active; 'I' for Inactive)
REMARK    1  A    between atoms: C_1  and  C_2
REMARK    2  A    between atoms: C_5  and  C_6
REMARK    3  A    between atoms: C_6  and  C_7
REMARK    4  A    between atoms: N_9  and  N_10
REMARK    5  A    between atoms: C_11  and  C_12
REMARK    6  A    between atoms: C_15  and  O_16
REMARK    7  A    between atoms: O_16  and  C_17
REMARK    8  A    between atoms: C_17  and  C_19
REMARK    9  A    between atoms: C_22  and  N_23
REMARK                            x       y       z     vdW  Elec       q    Type
REMARK                         _______ _______ _______ _____ _____    ______ ____
ROOT
ATOM      1  C   UNL     1       1.915   8.949  18.867  0.00  0.00    +0.000 A 
ATOM      2  C   UNL     1       2.512   8.439  17.704  0.00  0.00    +0.000 A 
ATOM      3  C   UNL     1       2.967   7.124  17.658  0.00  0.00    +0.000 A 
ATOM      4  C   UNL     1       2.835   6.315  18.785  0.00  0.00    +0.000 A 
ATOM      5  C   UNL     1       2.244   6.816  19.951  0.00  0.00    +0.000 A 
ATOM      6  C   UNL     1       1.787   8.141  19.996  0.00  0.00    +0.000 A 
ENDROOT
BRANCH   1   8
ATOM      7  N   UNL     1       0.741  10.736  19.894  0.00  0.00    +0.000 NA
ATOM      8  C   UNL     1       1.414  10.343  18.866  0.00  0.00    +0.000 C 
BRANCH   7  11
ATOM      9  C   UNL     1      -1.092  12.199  19.732  0.00  0.00    +0.000 C 
ATOM     10  O   UNL     1      -1.569  13.334  19.747  0.00  0.00    +0.000 OA
ATOM     11  N   UNL     1       0.257  11.990  19.945  0.00  0.00    +0.000 N 
ATOM     12  H   UNL     1       0.856  12.794  20.096  0.00  0.00    +0.000 HD
BRANCH   9  13
ATOM     13  C   UNL     1      -1.943  10.954  19.480  0.00  0.00    +0.000 C 
BRANCH  13  18
ATOM     14  C   UNL     1      -3.960  10.085  14.067  0.00  0.00    +0.000 C 
ATOM     15  C   UNL     1      -3.410  10.332  15.441  0.00  0.00    +0.000 A 
ATOM     16  C   UNL     1      -2.266   9.668  15.895  0.00  0.00    +0.000 A 
ATOM     17  C   UNL     1      -1.786   9.891  17.191  0.00  0.00    +0.000 A 
ATOM     18  C   UNL     1      -2.434  10.788  18.056  0.00  0.00    +0.000 A 
ATOM     19  C   UNL     1      -3.580  11.446  17.594  0.00  0.00    +0.000 A 
ATOM     20  C   UNL     1      -4.057  11.227  16.299  0.00  0.00    +0.000 A 
ENDBRANCH  13  18
ENDBRANCH   9  13
ENDBRANCH   7  11
ENDBRANCH   1   8
BRANCH   4  21
ATOM     21  O   UNL     1       3.249   4.972  18.618  0.00  0.00    +0.000 OA
BRANCH  21  22
ATOM     22  C   UNL     1       4.585   4.613  18.699  0.00  0.00    +0.000 C 
ATOM     23  O   UNL     1       5.192   4.279  19.704  0.00  0.00    +0.000 OA
BRANCH  22  24
ATOM     24  C   UNL     1       5.238   4.678  17.355  0.00  0.00    +0.000 A 
ATOM     25  C   UNL     1       6.352   5.524  17.223  0.00  0.00    +0.000 A 
ATOM     26  C   UNL     1       7.039   5.628  16.007  0.00  0.00    +0.000 A 
ATOM     27  C   UNL     1       6.609   4.878  14.908  0.00  0.00    +0.000 A 
ATOM     28  C   UNL     1       5.490   4.037  15.019  0.00  0.00    +0.000 A 
ATOM     29  C   UNL     1       4.806   3.940  16.242  0.00  0.00    +0.000 A 
BRANCH  27  30
ATOM     30  N   UNL     1       7.341   4.966  13.636  0.00  0.00    +0.000 N 
ATOM     31  O   UNL     1       8.316   5.729  13.585  0.00  0.00    +0.000 OA
ATOM     32  O   UNL     1       6.942   4.270  12.692  0.00  0.00    +0.000 OA
ENDBRANCH  27  30
ENDBRANCH  22  24
ENDBRANCH  21  22
ENDBRANCH   4  21
TORSDOF 8
ENDMDL
MODEL 9
REMARK VINA RESULT:      -8.2      3.590     10.346
REMARK  Name = 
REMARK  9 active torsions:
REMARK  status: ('A' for Active; 'I' for Inactive)
REMARK    1  A    between atoms: C_1  and  C_2
REMARK    2  A    between atoms: C_5  and  C_6
REMARK    3  A    between atoms: C_6  and  C_7
REMARK    4  A    between atoms: N_9  and  N_10
REMARK    5  A    between atoms: C_11  and  C_12
REMARK    6  A    between atoms: C_15  and  O_16
REMARK    7  A    between atoms: O_16  and  C_17
REMARK    8  A    between atoms: C_17  and  C_19
REMARK    9  A    between atoms: C_22  and  N_23
REMARK                            x       y       z     vdW  Elec       q    Type
REMARK                         _______ _______ _______ _____ _____    ______ ____
ROOT
ATOM      1  C   UNL     1       1.965   6.827  20.088  0.00  0.00    +0.000 A 
ATOM      2  C   UNL     1       2.222   7.567  18.923  0.00  0.00    +0.000 A 
ATOM      3  C   UNL     1       1.743   8.868  18.789  0.00  0.00    +0.000 A 
ATOM      4  C   UNL     1       0.995   9.430  19.820  0.00  0.00    +0.000 A 
ATOM      5  C   UNL     1       0.731   8.700  20.985  0.00  0.00    +0.000 A 
ATOM      6  C   UNL     1       1.212   7.389  21.118  0.00  0.00    +0.000 A 
ENDROOT
BRANCH   1   8
ATOM      7  N   UNL     1       2.106   4.572  19.366  0.00  0.00    +0.000 NA
ATOM      8  C   UNL     1       2.518   5.458  20.207  0.00  0.00    +0.000 C 
BRANCH   7  11
ATOM      9  C   UNL     1       3.288   2.803  18.366  0.00  0.00    +0.000 C 
ATOM     10  O   UNL     1       3.709   1.645  18.378  0.00  0.00    +0.000 OA
ATOM     11  N   UNL     1       2.570   3.312  19.431  0.00  0.00    +0.000 N 
ATOM     12  H   UNL     1       2.377   2.706  20.221  0.00  0.00    +0.000 HD
BRANCH   9  13
ATOM     13  C   UNL     1       3.523   3.749  17.188  0.00  0.00    +0.000 C 
BRANCH  13  18
ATOM     14  C   UNL     1       7.901   7.565  17.810  0.00  0.00    +0.000 C 
ATOM     15  C   UNL     1       6.762   6.596  17.689  0.00  0.00    +0.000 A 
ATOM     16  C   UNL     1       6.762   5.385  18.388  0.00  0.00    +0.000 A 
ATOM     17  C   UNL     1       5.703   4.483  18.238  0.00  0.00    +0.000 A 
ATOM     18  C   UNL     1       4.619   4.775  17.395  0.00  0.00    +0.000 A 
ATOM     19  C   UNL     1       4.628   5.988  16.698  0.00  0.00    +0.000 A 
ATOM     20  C   UNL     1       5.683   6.892  16.849  0.00  0.00    +0.000 A 
ENDBRANCH  13  18
ENDBRANCH   9  13
ENDBRANCH   7  11
ENDBRANCH   1   8
BRANCH   4  21
ATOM     21  O   UNL     1       0.623  10.783  19.631  0.00  0.00    +0.000 OA
BRANCH  21  22
ATOM     22  C   UNL     1       0.703  11.705  20.662  0.00  0.00    +0.000 C 
ATOM     23  O   UNL     1       1.721  12.180  21.141  0.00  0.00    +0.000 OA
BRANCH  22  24
ATOM     24  C   UNL     1      -0.660  12.078  21.151  0.00  0.00    +0.000 A 
ATOM     25  C   UNL     1      -1.022  11.645  22.439  0.00  0.00    +0.000 A 
ATOM     26  C   UNL     1      -2.269  11.970  22.985  0.00  0.00    +0.000 A 
ATOM     27  C   UNL     1      -3.168  12.737  22.239  0.00  0.00    +0.000 A 
ATOM     28  C   UNL     1      -2.828  13.168  20.947  0.00  0.00    +0.000 A 
ATOM     29  C   UNL     1      -1.575  12.836  20.405  0.00  0.00    +0.000 A 
BRANCH  27  30
ATOM     30  N   UNL     1      -4.470  13.101  22.818  0.00  0.00    +0.000 N 
ATOM     31  O   UNL     1      -5.345  12.224  22.859  0.00  0.00    +0.000 OA
ATOM     32  O   UNL     1      -4.613  14.259  23.232  0.00  0.00    +0.000 OA
ENDBRANCH  27  30
ENDBRANCH  22  24
ENDBRANCH  21  22
ENDBRANCH   4  21
TORSDOF 8
ENDMDL
