MODEL 1
REMARK VINA RESULT:      -7.1      0.000      0.000
REMARK  Name = 
REMARK  9 active torsions:
REMARK  status: ('A' for Active; 'I' for Inactive)
REMARK    1  A    between atoms: C_1  and  C_2
REMARK    2  A    between atoms: C_2  and  C_3
REMARK    3  A    between atoms: C_5  and  C_6
REMARK    4  A    between atoms: C_6  and  N_7
REMARK    5  A    between atoms: N_7  and  C_8
REMARK    6  A    between atoms: C_8  and  C_9
REMARK    7  A    between atoms: C_8  and  C_10
REMARK    8  A    between atoms: C_13  and  O_14
REMARK    9  A    between atoms: O_14  and  C_15
REMARK                            x       y       z     vdW  Elec       q    Type
REMARK                         _______ _______ _______ _____ _____    ______ ____
ROOT
ATOM      1  N   UNL     1       3.953   7.241  16.879  0.00  0.00    +0.000 NA
ATOM      2  H   UNL     1       3.515   6.407  16.484  0.00  0.00    +0.000 HD
ENDROOT
BRANCH   1   3
ATOM      3  C   UNL     1       3.184   7.634  18.068  0.00  0.00    +0.000 C 
ATOM      4  C   UNL     1       2.053   8.615  17.738  0.00  0.00    +0.000 C 
BRANCH   3   5
ATOM      5  C   UNL     1       2.624   6.381  18.734  0.00  0.00    +0.000 A 
ATOM      6  C   UNL     1       2.234   5.279  17.960  0.00  0.00    +0.000 A 
ATOM      7  C   UNL     1       1.674   4.149  18.564  0.00  0.00    +0.000 A 
ATOM      8  C   UNL     1       1.509   4.088  19.948  0.00  0.00    +0.000 A 
ATOM      9  C   UNL     1       1.894   5.175  20.730  0.00  0.00    +0.000 A 
ATOM     10  C   UNL     1       2.446   6.311  20.127  0.00  0.00    +0.000 A 
BRANCH   8  11
ATOM     11  O   UNL     1       0.916   2.945  20.412  0.00  0.00    +0.000 OA
ATOM     12  C   UNL     1       1.356   2.490  21.687  0.00  0.00    +0.000 C 
ENDBRANCH   8  11
ENDBRANCH   3   5
ENDBRANCH   1   3
BRANCH   1  13
ATOM     13  C   UNL     1       5.356   6.931  17.154  0.00  0.00    +0.000 C 
BRANCH  13  16
ATOM     14  C   UNL     1       6.379   4.624  14.481  0.00  0.00    +0.000 A 
ATOM     15  C   UNL     1       5.298   5.222  15.162  0.00  0.00    +0.000 A 
ATOM     16  C   UNL     1       5.887   6.041  16.092  0.00  0.00    +0.000 A 
ATOM     17  O   UNL     1       7.237   5.964  15.962  0.00  0.00    +0.000 OA
ATOM     18  N   UNL     1       7.551   5.073  14.946  0.00  0.00    +0.000 NA
BRANCH  14  20
ATOM     19  C   UNL     1       6.981   4.108  12.119  0.00  0.00    +0.000 C 
ATOM     20  C   UNL     1       6.324   3.609  13.399  0.00  0.00    +0.000 C 
ENDBRANCH  14  20
ENDBRANCH  13  16
ENDBRANCH   1  13
TORSDOF 6
ENDMDL
MODEL 2
REMARK VINA RESULT:      -7.0      2.189      3.166
REMARK  Name = 
REMARK  9 active torsions:
REMARK  status: ('A' for Active; 'I' for Inactive)
REMARK    1  A    between atoms: C_1  and  C_2
REMARK    2  A    between atoms: C_2  and  C_3
REMARK    3  A    between atoms: C_5  and  C_6
REMARK    4  A    between atoms: C_6  and  N_7
REMARK    5  A    between atoms: N_7  and  C_8
REMARK    6  A    between atoms: C_8  and  C_9
REMARK    7  A    between atoms: C_8  and  C_10
REMARK    8  A    between atoms: C_13  and  O_14
REMARK    9  A    between atoms: O_14  and  C_15
REMARK                            x       y       z     vdW  Elec       q    Type
REMARK                         _______ _______ _______ _____ _____    ______ ____
ROOT
ATOM      1  N   UNL     1       7.434   4.383  16.851  0.00  0.00    +0.000 NA
ATOM      2  H   UNL     1       8.446   4.244  16.868  0.00  0.00    +0.000 HD
ENDROOT
BRANCH   1   3
ATOM      3  C   UNL     1       7.000   4.704  18.217  0.00  0.00    +0.000 C 
ATOM      4  C   UNL     1       7.451   6.100  18.664  0.00  0.00    +0.000 C 
BRANCH   3   5
ATOM      5  C   UNL     1       5.482   4.584  18.298  0.00  0.00    +0.000 A 
ATOM      6  C   UNL     1       4.884   3.378  18.689  0.00  0.00    +0.000 A 
ATOM      7  C   UNL     1       3.492   3.250  18.715  0.00  0.00    +0.000 A 
ATOM      8  C   UNL     1       2.670   4.324  18.371  0.00  0.00    +0.000 A 
ATOM      9  C   UNL     1       3.250   5.530  17.982  0.00  0.00    +0.000 A 
ATOM     10  C   UNL     1       4.644   5.657  17.945  0.00  0.00    +0.000 A 
BRANCH   8  11
ATOM     11  O   UNL     1       1.328   4.061  18.401  0.00  0.00    +0.000 OA
ATOM     12  C   UNL     1       0.964   2.717  18.697  0.00  0.00    +0.000 C 
ENDBRANCH   8  11
ENDBRANCH   3   5
ENDBRANCH   1   3
BRANCH   1  13
ATOM     13  C   UNL     1       7.134   5.426  15.871  0.00  0.00    +0.000 C 
BRANCH  13  16
ATOM     14  C   UNL     1       6.253   3.690  12.752  0.00  0.00    +0.000 A 
ATOM     15  C   UNL     1       5.965   3.854  14.124  0.00  0.00    +0.000 A 
ATOM     16  C   UNL     1       6.855   4.805  14.552  0.00  0.00    +0.000 A 
ATOM     17  O   UNL     1       7.613   5.213  13.501  0.00  0.00    +0.000 OA
ATOM     18  N   UNL     1       7.235   4.514  12.364  0.00  0.00    +0.000 NA
BRANCH  14  20
ATOM     19  C   UNL     1       4.236   3.211  11.370  0.00  0.00    +0.000 C 
ATOM     20  C   UNL     1       5.623   2.747  11.795  0.00  0.00    +0.000 C 
ENDBRANCH  14  20
ENDBRANCH  13  16
ENDBRANCH   1  13
TORSDOF 6
ENDMDL
MODEL 3
REMARK VINA RESULT:      -6.9      1.683      2.219
REMARK  Name = 
REMARK  9 active torsions:
REMARK  status: ('A' for Active; 'I' for Inactive)
REMARK    1  A    between atoms: C_1  and  C_2
REMARK    2  A    between atoms: C_2  and  C_3
REMARK    3  A    between atoms: C_5  and  C_6
REMARK    4  A    between atoms: C_6  and  N_7
REMARK    5  A    between atoms: N_7  and  C_8
REMARK    6  A    between atoms: C_8  and  C_9
REMARK    7  A    between atoms: C_8  and  C_10
REMARK    8  A    between atoms: C_13  and  O_14
REMARK    9  A    between atoms: O_14  and  C_15
REMARK                            x       y       z     vdW  Elec       q    Type
REMARK                         _______ _______ _______ _____ _____    ______ ____
ROOT
ATOM      1  N   UNL     1       6.278   4.834  17.202  0.00  0.00    +0.000 NA
ATOM      2  H   UNL     1       6.829   4.401  17.945  0.00  0.00    +0.000 HD
ENDROOT
BRANCH   1   3
ATOM      3  C   UNL     1       5.344   5.780  17.827  0.00  0.00    +0.000 C 
ATOM      4  C   UNL     1       4.752   6.774  16.821  0.00  0.00    +0.000 C 
BRANCH   3   5
ATOM      5  C   UNL     1       4.231   4.997  18.518  0.00  0.00    +0.000 A 
ATOM      6  C   UNL     1       2.932   5.519  18.586  0.00  0.00    +0.000 A 
ATOM      7  C   UNL     1       1.922   4.827  19.262  0.00  0.00    +0.000 A 
ATOM      8  C   UNL     1       2.182   3.596  19.866  0.00  0.00    +0.000 A 
ATOM      9  C   UNL     1       3.468   3.064  19.805  0.00  0.00    +0.000 A 
ATOM     10  C   UNL     1       4.483   3.760  19.138  0.00  0.00    +0.000 A 
BRANCH   8  11
ATOM     11  O   UNL     1       1.122   3.038  20.526  0.00  0.00    +0.000 OA
ATOM     12  C   UNL     1       1.389   2.556  21.838  0.00  0.00    +0.000 C 
ENDBRANCH   8  11
ENDBRANCH   3   5
ENDBRANCH   1   3
BRANCH   1  13
ATOM     13  C   UNL     1       7.200   5.451  16.249  0.00  0.00    +0.000 C 
BRANCH  13  16
ATOM     14  C   UNL     1       6.434   3.850  13.029  0.00  0.00    +0.000 A 
ATOM     15  C   UNL     1       6.120   3.929  14.403  0.00  0.00    +0.000 A 
ATOM     16  C   UNL     1       6.965   4.890  14.895  0.00  0.00    +0.000 A 
ATOM     17  O   UNL     1       7.721   5.382  13.879  0.00  0.00    +0.000 OA
ATOM     18  N   UNL     1       7.388   4.730  12.701  0.00  0.00    +0.000 NA
BRANCH  14  20
ATOM     19  C   UNL     1       4.458   3.368  11.590  0.00  0.00    +0.000 C 
ATOM     20  C   UNL     1       5.855   2.935  12.014  0.00  0.00    +0.000 C 
ENDBRANCH  14  20
ENDBRANCH  13  16
ENDBRANCH   1  13
TORSDOF 6
ENDMDL
MODEL 4
REMARK VINA RESULT:      -6.9      1.924      2.980
REMARK  Name = 
REMARK  9 active torsions:
REMARK  status: ('A' for Active; 'I' for Inactive)
REMARK    1  A    between atoms: C_1  and  C_2
REMARK    2  A    between atoms: C_2  and  C_3
REMARK    3  A    between atoms: C_5  and  C_6
REMARK    4  A    between atoms: C_6  and  N_7
REMARK    5  A    between atoms: N_7  and  C_8
REMARK    6  A    between atoms: C_8  and  C_9
REMARK    7  A    between atoms: C_8  and  C_10
REMARK    8  A    between atoms: C_13  and  O_14
REMARK    9  A    between atoms: O_14  and  C_15
REMARK                            x       y       z     vdW  Elec       q    Type
REMARK                         _______ _______ _______ _____ _____    ______ ____
ROOT
ATOM      1  N   UNL     1       5.541   3.859  17.900  0.00  0.00    +0.000 NA
ATOM      2  H   UNL     1       5.661   3.866  18.914  0.00  0.00    +0.000 HD
ENDROOT
BRANCH   1   3
ATOM      3  C   UNL     1       4.107   3.709  17.617  0.00  0.00    +0.000 C 
ATOM      4  C   UNL     1       3.630   2.257  17.752  0.00  0.00    +0.000 C 
BRANCH   3   5
ATOM      5  C   UNL     1       3.318   4.617  18.555  0.00  0.00    +0.000 A 
ATOM      6  C   UNL     1       2.933   5.900  18.142  0.00  0.00    +0.000 A 
ATOM      7  C   UNL     1       2.254   6.754  19.017  0.00  0.00    +0.000 A 
ATOM      8  C   UNL     1       1.928   6.340  20.310  0.00  0.00    +0.000 A 
ATOM      9  C   UNL     1       2.303   5.066  20.732  0.00  0.00    +0.000 A 
ATOM     10  C   UNL     1       2.993   4.214  19.861  0.00  0.00    +0.000 A 
BRANCH   8  11
ATOM     11  O   UNL     1       1.297   7.278  21.078  0.00  0.00    +0.000 OA
ATOM     12  C   UNL     1       1.338   8.614  20.589  0.00  0.00    +0.000 C 
ENDBRANCH   8  11
ENDBRANCH   3   5
ENDBRANCH   1   3
BRANCH   1  13
ATOM     13  C   UNL     1       6.128   5.087  17.363  0.00  0.00    +0.000 C 
BRANCH  13  16
ATOM     14  C   UNL     1       6.738   4.369  13.810  0.00  0.00    +0.000 A 
ATOM     15  C   UNL     1       5.980   4.050  14.956  0.00  0.00    +0.000 A 
ATOM     16  C   UNL     1       6.447   4.900  15.926  0.00  0.00    +0.000 A 
ATOM     17  O   UNL     1       7.406   5.700  15.393  0.00  0.00    +0.000 OA
ATOM     18  N   UNL     1       7.591   5.371  14.058  0.00  0.00    +0.000 NA
BRANCH  14  20
ATOM     19  C   UNL     1       5.266   3.314  12.098  0.00  0.00    +0.000 C 
ATOM     20  C   UNL     1       6.683   3.725  12.474  0.00  0.00    +0.000 C 
ENDBRANCH  14  20
ENDBRANCH  13  16
ENDBRANCH   1  13
TORSDOF 6
ENDMDL
MODEL 5
REMARK VINA RESULT:      -6.8      1.614      2.078
REMARK  Name = 
REMARK  9 active torsions:
REMARK  status: ('A' for Active; 'I' for Inactive)
REMARK    1  A    between atoms: C_1  and  C_2
REMARK    2  A    between atoms: C_2  and  C_3
REMARK    3  A    between atoms: C_5  and  C_6
REMARK    4  A    between atoms: C_6  and  N_7
REMARK    5  A    between atoms: N_7  and  C_8
REMARK    6  A    between atoms: C_8  and  C_9
REMARK    7  A    between atoms: C_8  and  C_10
REMARK    8  A    between atoms: C_13  and  O_14
REMARK    9  A    between atoms: O_14  and  C_15
REMARK                            x       y       z     vdW  Elec       q    Type
REMARK                         _______ _______ _______ _____ _____    ______ ____
ROOT
ATOM      1  N   UNL     1       5.915   4.984  17.064  0.00  0.00    +0.000 NA
ATOM      2  H   UNL     1       6.254   4.332  17.773  0.00  0.00    +0.000 HD
ENDROOT
BRANCH   1   3
ATOM      3  C   UNL     1       5.258   6.101  17.756  0.00  0.00    +0.000 C 
ATOM      4  C   UNL     1       4.599   7.089  16.786  0.00  0.00    +0.000 C 
BRANCH   3   5
ATOM      5  C   UNL     1       4.224   5.543  18.730  0.00  0.00    +0.000 A 
ATOM      6  C   UNL     1       4.300   4.211  19.160  0.00  0.00    +0.000 A 
ATOM      7  C   UNL     1       3.325   3.682  20.012  0.00  0.00    +0.000 A 
ATOM      8  C   UNL     1       2.269   4.473  20.466  0.00  0.00    +0.000 A 
ATOM      9  C   UNL     1       2.182   5.800  20.048  0.00  0.00    +0.000 A 
ATOM     10  C   UNL     1       3.151   6.328  19.187  0.00  0.00    +0.000 A 
BRANCH   8  11
ATOM     11  O   UNL     1       1.363   3.830  21.264  0.00  0.00    +0.000 OA
ATOM     12  C   UNL     1       1.692   2.494  21.626  0.00  0.00    +0.000 C 
ENDBRANCH   8  11
ENDBRANCH   3   5
ENDBRANCH   1   3
BRANCH   1  13
ATOM     13  C   UNL     1       7.050   5.385  16.233  0.00  0.00    +0.000 C 
BRANCH  13  16
ATOM     14  C   UNL     1       6.433   3.841  12.955  0.00  0.00    +0.000 A 
ATOM     15  C   UNL     1       6.071   3.881  14.318  0.00  0.00    +0.000 A 
ATOM     16  C   UNL     1       6.876   4.850  14.860  0.00  0.00    +0.000 A 
ATOM     17  O   UNL     1       7.653   5.383  13.882  0.00  0.00    +0.000 OA
ATOM     18  N   UNL     1       7.377   4.750  12.679  0.00  0.00    +0.000 NA
BRANCH  14  20
ATOM     19  C   UNL     1       4.483   3.285  11.507  0.00  0.00    +0.000 C 
ATOM     20  C   UNL     1       5.912   2.936  11.900  0.00  0.00    +0.000 C 
ENDBRANCH  14  20
ENDBRANCH  13  16
ENDBRANCH   1  13
TORSDOF 6
ENDMDL
MODEL 6
REMARK VINA RESULT:      -6.8      2.293      3.391
REMARK  Name = 
REMARK  9 active torsions:
REMARK  status: ('A' for Active; 'I' for Inactive)
REMARK    1  A    between atoms: C_1  and  C_2
REMARK    2  A    between atoms: C_2  and  C_3
REMARK    3  A    between atoms: C_5  and  C_6
REMARK    4  A    between atoms: C_6  and  N_7
REMARK    5  A    between atoms: N_7  and  C_8
REMARK    6  A    between atoms: C_8  and  C_9
REMARK    7  A    between atoms: C_8  and  C_10
REMARK    8  A    between atoms: C_13  and  O_14
REMARK    9  A    between atoms: O_14  and  C_15
REMARK                            x       y       z     vdW  Elec       q    Type
REMARK                         _______ _______ _______ _____ _____    ______ ____
ROOT
ATOM      1  N   UNL     1       5.149   5.825  18.079  0.00  0.00    +0.000 NA
ATOM      2  H   UNL     1       5.599   6.615  17.615  0.00  0.00    +0.000 HD
ENDROOT
BRANCH   1   3
ATOM      3  C   UNL     1       3.753   5.771  17.622  0.00  0.00    +0.000 C 
ATOM      4  C   UNL     1       3.100   4.409  17.886  0.00  0.00    +0.000 C 
BRANCH   3   5
ATOM      5  C   UNL     1       2.963   6.881  18.309  0.00  0.00    +0.000 A 
ATOM      6  C   UNL     1       2.496   6.713  19.620  0.00  0.00    +0.000 A 
ATOM      7  C   UNL     1       1.728   7.708  20.234  0.00  0.00    +0.000 A 
ATOM      8  C   UNL     1       1.427   8.893  19.562  0.00  0.00    +0.000 A 
ATOM      9  C   UNL     1       1.886   9.074  18.258  0.00  0.00    +0.000 A 
ATOM     10  C   UNL     1       2.646   8.075  17.639  0.00  0.00    +0.000 A 
BRANCH   8  11
ATOM     11  O   UNL     1       0.639   9.770  20.256  0.00  0.00    +0.000 OA
ATOM     12  C   UNL     1       0.884   9.853  21.655  0.00  0.00    +0.000 C 
ENDBRANCH   8  11
ENDBRANCH   3   5
ENDBRANCH   1   3
BRANCH   1  13
ATOM     13  C   UNL     1       5.920   4.619  17.777  0.00  0.00    +0.000 C 
BRANCH  13  16
ATOM     14  C   UNL     1       6.688   4.394  14.189  0.00  0.00    +0.000 A 
ATOM     15  C   UNL     1       5.841   3.971  15.235  0.00  0.00    +0.000 A 
ATOM     16  C   UNL     1       6.311   4.623  16.346  0.00  0.00    +0.000 A 
ATOM     17  O   UNL     1       7.358   5.412  15.989  0.00  0.00    +0.000 OA
ATOM     18  N   UNL     1       7.598   5.273  14.630  0.00  0.00    +0.000 NA
BRANCH  14  20
ATOM     19  C   UNL     1       5.314   3.392  12.369  0.00  0.00    +0.000 C 
ATOM     20  C   UNL     1       6.667   3.965  12.768  0.00  0.00    +0.000 C 
ENDBRANCH  14  20
ENDBRANCH  13  16
ENDBRANCH   1  13
TORSDOF 6
ENDMDL
MODEL 7
REMARK VINA RESULT:      -6.8      3.034      4.847
REMARK  Name = 
REMARK  9 active torsions:
REMARK  status: ('A' for Active; 'I' for Inactive)
REMARK    1  A    between atoms: C_1  and  C_2
REMARK    2  A    between atoms: C_2  and  C_3
REMARK    3  A    between atoms: C_5  and  C_6
REMARK    4  A    between atoms: C_6  and  N_7
REMARK    5  A    between atoms: N_7  and  C_8
REMARK    6  A    between atoms: C_8  and  C_9
REMARK    7  A    between atoms: C_8  and  C_10
REMARK    8  A    between atoms: C_13  and  O_14
REMARK    9  A    between atoms: O_14  and  C_15
REMARK                            x       y       z     vdW  Elec       q    Type
REMARK                         _______ _______ _______ _____ _____    ______ ____
ROOT
ATOM      1  N   UNL     1       6.083   4.224  18.788  0.00  0.00    +0.000 NA
ATOM      2  H   UNL     1       6.096   5.019  19.429  0.00  0.00    +0.000 HD
ENDROOT
BRANCH   1   3
ATOM      3  C   UNL     1       4.690   4.000  18.377  0.00  0.00    +0.000 C 
ATOM      4  C   UNL     1       4.032   2.843  19.139  0.00  0.00    +0.000 C 
BRANCH   3   5
ATOM      5  C   UNL     1       3.899   5.288  18.578  0.00  0.00    +0.000 A 
ATOM      6  C   UNL     1       3.129   5.475  19.734  0.00  0.00    +0.000 A 
ATOM      7  C   UNL     1       2.362   6.633  19.898  0.00  0.00    +0.000 A 
ATOM      8  C   UNL     1       2.362   7.633  18.924  0.00  0.00    +0.000 A 
ATOM      9  C   UNL     1       3.124   7.461  17.771  0.00  0.00    +0.000 A 
ATOM     10  C   UNL     1       3.885   6.298  17.600  0.00  0.00    +0.000 A 
BRANCH   8  11
ATOM     11  O   UNL     1       1.545   8.698  19.185  0.00  0.00    +0.000 OA
ATOM     12  C   UNL     1       1.357   9.616  18.114  0.00  0.00    +0.000 C 
ENDBRANCH   8  11
ENDBRANCH   3   5
ENDBRANCH   1   3
BRANCH   1  13
ATOM     13  C   UNL     1       6.990   4.518  17.679  0.00  0.00    +0.000 C 
BRANCH  13  16
ATOM     14  C   UNL     1       8.200   7.946  18.226  0.00  0.00    +0.000 A 
ATOM     15  C   UNL     1       8.057   6.653  18.772  0.00  0.00    +0.000 A 
ATOM     16  C   UNL     1       7.458   5.923  17.777  0.00  0.00    +0.000 A 
ATOM     17  O   UNL     1       7.276   6.717  16.690  0.00  0.00    +0.000 OA
ATOM     18  N   UNL     1       7.744   7.992  16.968  0.00  0.00    +0.000 NA
BRANCH  14  20
ATOM     19  C   UNL     1       8.690  10.376  17.974  0.00  0.00    +0.000 C 
ATOM     20  C   UNL     1       8.748   9.158  18.886  0.00  0.00    +0.000 C 
ENDBRANCH  14  20
ENDBRANCH  13  16
ENDBRANCH   1  13
TORSDOF 6
ENDMDL
MODEL 8
REMARK VINA RESULT:      -6.7      2.439      4.029
REMARK  Name = 
REMARK  9 active torsions:
REMARK  status: ('A' for Active; 'I' for Inactive)
REMARK    1  A    between atoms: C_1  and  C_2
REMARK    2  A    between atoms: C_2  and  C_3
REMARK    3  A    between atoms: C_5  and  C_6
REMARK    4  A    between atoms: C_6  and  N_7
REMARK    5  A    between atoms: N_7  and  C_8
REMARK    6  A    between atoms: C_8  and  C_9
REMARK    7  A    between atoms: C_8  and  C_10
REMARK    8  A    between atoms: C_13  and  O_14
REMARK    9  A    between atoms: O_14  and  C_15
REMARK                            x       y       z     vdW  Elec       q    Type
REMARK                         _______ _______ _______ _____ _____    ______ ____
ROOT
ATOM      1  N   UNL     1       4.460   3.431  17.669  0.00  0.00    +0.000 NA
ATOM      2  H   UNL     1       4.800   3.965  18.470  0.00  0.00    +0.000 HD
ENDROOT
BRANCH   1   3
ATOM      3  C   UNL     1       3.015   3.668  17.550  0.00  0.00    +0.000 C 
ATOM      4  C   UNL     1       2.186   2.426  17.900  0.00  0.00    +0.000 C 
BRANCH   3   5
ATOM      5  C   UNL     1       2.627   4.837  18.450  0.00  0.00    +0.000 A 
ATOM      6  C   UNL     1       2.796   6.157  18.011  0.00  0.00    +0.000 A 
ATOM      7  C   UNL     1       2.489   7.231  18.852  0.00  0.00    +0.000 A 
ATOM      8  C   UNL     1       1.991   7.012  20.137  0.00  0.00    +0.000 A 
ATOM      9  C   UNL     1       1.817   5.704  20.587  0.00  0.00    +0.000 A 
ATOM     10  C   UNL     1       2.134   4.628  19.750  0.00  0.00    +0.000 A 
BRANCH   8  11
ATOM     11  O   UNL     1       1.765   8.142  20.873  0.00  0.00    +0.000 OA
ATOM     12  C   UNL     1       0.417   8.596  20.917  0.00  0.00    +0.000 C 
ENDBRANCH   8  11
ENDBRANCH   3   5
ENDBRANCH   1   3
BRANCH   1  13
ATOM     13  C   UNL     1       5.228   3.837  16.492  0.00  0.00    +0.000 C 
BRANCH  13  16
ATOM     14  C   UNL     1       7.454   6.504  17.696  0.00  0.00    +0.000 A 
ATOM     15  C   UNL     1       6.641   5.406  18.051  0.00  0.00    +0.000 A 
ATOM     16  C   UNL     1       6.157   4.935  16.857  0.00  0.00    +0.000 A 
ATOM     17  O   UNL     1       6.666   5.682  15.843  0.00  0.00    +0.000 OA
ATOM     18  N   UNL     1       7.486   6.670  16.367  0.00  0.00    +0.000 NA
BRANCH  14  20
ATOM     19  C   UNL     1       8.299   8.824  18.022  0.00  0.00    +0.000 C 
ATOM     20  C   UNL     1       8.194   7.420  18.599  0.00  0.00    +0.000 C 
ENDBRANCH  14  20
ENDBRANCH  13  16
ENDBRANCH   1  13
TORSDOF 6
ENDMDL
MODEL 9
REMARK VINA RESULT:      -6.7      2.092      2.958
REMARK  Name = 
REMARK  9 active torsions:
REMARK  status: ('A' for Active; 'I' for Inactive)
REMARK    1  A    between atoms: C_1  and  C_2
REMARK    2  A    between atoms: C_2  and  C_3
REMARK    3  A    between atoms: C_5  and  C_6
REMARK    4  A    between atoms: C_6  and  N_7
REMARK    5  A    between atoms: N_7  and  C_8
REMARK    6  A    between atoms: C_8  and  C_9
REMARK    7  A    between atoms: C_8  and  C_10
REMARK    8  A    between atoms: C_13  and  O_14
REMARK    9  A    between atoms: O_14  and  C_15
REMARK                            x       y       z     vdW  Elec       q    Type
REMARK                         _______ _______ _______ _____ _____    ______ ____
ROOT
ATOM      1  N   UNL     1       5.888   5.319  16.297  0.00  0.00    +0.000 NA
ATOM      2  H   UNL     1       5.141   4.787  15.847  0.00  0.00    +0.000 HD
ENDROOT
BRANCH   1   3
ATOM      3  C   UNL     1       6.083   4.768  17.645  0.00  0.00    +0.000 C 
ATOM      4  C   UNL     1       6.875   5.713  18.557  0.00  0.00    +0.000 C 
BRANCH   3   5
ATOM      5  C   UNL     1       4.721   4.457  18.257  0.00  0.00    +0.000 A 
ATOM      6  C   UNL     1       4.335   5.047  19.469  0.00  0.00    +0.000 A 
ATOM      7  C   UNL     1       3.109   4.725  20.058  0.00  0.00    +0.000 A 
ATOM      8  C   UNL     1       2.236   3.825  19.443  0.00  0.00    +0.000 A 
ATOM      9  C   UNL     1       2.605   3.233  18.237  0.00  0.00    +0.000 A 
ATOM     10  C   UNL     1       3.838   3.546  17.651  0.00  0.00    +0.000 A 
BRANCH   8  11
ATOM     11  O   UNL     1       1.086   3.567  20.137  0.00  0.00    +0.000 OA
ATOM     12  C   UNL     1       1.244   2.866  21.365  0.00  0.00    +0.000 C 
ENDBRANCH   8  11
ENDBRANCH   3   5
ENDBRANCH   1   3
BRANCH   1  13
ATOM     13  C   UNL     1       7.076   5.246  15.447  0.00  0.00    +0.000 C 
BRANCH  13  16
ATOM     14  C   UNL     1       5.997   3.473  12.413  0.00  0.00    +0.000 A 
ATOM     15  C   UNL     1       5.725   3.744  13.770  0.00  0.00    +0.000 A 
ATOM     16  C   UNL     1       6.728   4.596  14.159  0.00  0.00    +0.000 A 
ATOM     17  O   UNL     1       7.537   4.847  13.097  0.00  0.00    +0.000 OA
ATOM     18  N   UNL     1       7.079   4.142  11.994  0.00  0.00    +0.000 NA
BRANCH  14  20
ATOM     19  C   UNL     1       3.921   3.162  11.070  0.00  0.00    +0.000 C 
ATOM     20  C   UNL     1       5.256   2.568  11.498  0.00  0.00    +0.000 C 
ENDBRANCH  14  20
ENDBRANCH  13  16
ENDBRANCH   1  13
TORSDOF 6
ENDMDL
