MODEL 1
REMARK VINA RESULT:      -7.5      0.000      0.000
REMARK  Name = 
REMARK  8 active torsions:
REMARK  status: ('A' for Active; 'I' for Inactive)
REMARK    1  A    between atoms: N_1  and  C_2
REMARK    2  A    between atoms: C_2  and  C_3
REMARK    3  A    between atoms: N_5  and  C_6
REMARK    4  A    between atoms: C_9  and  C_10
REMARK    5  A    between atoms: C_10  and  C_11
REMARK    6  A    between atoms: C_14  and  N_15
REMARK    7  A    between atoms: C_16  and  C_18
REMARK    8  A    between atoms: C_18  and  N_19
REMARK                            x       y       z     vdW  Elec       q    Type
REMARK                         _______ _______ _______ _____ _____    ______ ____
ROOT
ATOM      1  C   UNL     1       3.450   6.034  19.346  0.00  0.00    +0.000 C 
ENDROOT
BRANCH   1   5
ATOM      2  C   UNL     1       5.153   4.638  15.609  0.00  0.00    +0.000 A 
ATOM      3  C   UNL     1       5.296   5.965  16.023  0.00  0.00    +0.000 A 
ATOM      4  C   UNL     1       4.731   6.411  17.218  0.00  0.00    +0.000 A 
ATOM      5  C   UNL     1       4.012   5.536  18.036  0.00  0.00    +0.000 A 
ATOM      6  C   UNL     1       3.851   4.207  17.619  0.00  0.00    +0.000 A 
ATOM      7  C   UNL     1       4.410   3.765  16.409  0.00  0.00    +0.000 A 
BRANCH   2  10
ATOM      8  C   UNL     1       6.878   4.601  13.810  0.00  0.00    +0.000 C 
ATOM      9  O   UNL     1       7.688   5.398  14.288  0.00  0.00    +0.000 OA
ATOM     10  N   UNL     1       5.713   4.157  14.409  0.00  0.00    +0.000 N 
ATOM     11  H   UNL     1       5.250   3.385  13.931  0.00  0.00    +0.000 HD
BRANCH   8  12
ATOM     12  C   UNL     1       7.157   3.955  12.451  0.00  0.00    +0.000 C 
BRANCH  12  13
ATOM     13  N   UNL     1       6.281   2.790  12.219  0.00  0.00    +0.000 NA
ATOM     14  H   UNL     1       6.012   2.800  11.234  0.00  0.00    +0.000 HD
ATOM     15  H   UNL     1       5.409   2.943  12.729  0.00  0.00    +0.000 HD
ENDBRANCH  12  13
ENDBRANCH   8  12
ENDBRANCH   2  10
ENDBRANCH   1   5
BRANCH   1  16
ATOM     16  C   UNL     1       2.522   7.221  19.239  0.00  0.00    +0.000 A 
ATOM     17  C   UNL     1       1.864   7.690  20.378  0.00  0.00    +0.000 A 
ATOM     18  C   UNL     1       1.079   8.844  20.324  0.00  0.00    +0.000 A 
ATOM     19  C   UNL     1       0.926   9.558  19.136  0.00  0.00    +0.000 A 
ATOM     20  C   UNL     1       1.541   9.064  17.979  0.00  0.00    +0.000 A 
ATOM     21  C   UNL     1       2.329   7.903  18.029  0.00  0.00    +0.000 A 
BRANCH  19  22
ATOM     22  N   UNL     1       0.199  10.766  19.053  0.00  0.00    +0.000 N 
ATOM     23  C   UNL     1      -1.139  10.911  18.716  0.00  0.00    +0.000 C 
ATOM     24  O   UNL     1      -1.914  10.025  18.370  0.00  0.00    +0.000 OA
ATOM     25  H   UNL     1       0.664  11.629  19.319  0.00  0.00    +0.000 HD
BRANCH  23  26
ATOM     26  C   UNL     1      -1.627  12.361  18.786  0.00  0.00    +0.000 C 
BRANCH  26  27
ATOM     27  N   UNL     1      -0.935  13.217  17.803  0.00  0.00    +0.000 NA
ATOM     28  H   UNL     1       0.071  13.063  17.900  0.00  0.00    +0.000 HD
ATOM     29  H   UNL     1      -1.075  14.188  18.097  0.00  0.00    +0.000 HD
ENDBRANCH  26  27
ENDBRANCH  23  26
ENDBRANCH  19  22
ENDBRANCH   1  16
TORSDOF 8
ENDMDL
MODEL 2
REMARK VINA RESULT:      -7.4      1.095      1.095
REMARK  Name = 
REMARK  8 active torsions:
REMARK  status: ('A' for Active; 'I' for Inactive)
REMARK    1  A    between atoms: N_1  and  C_2
REMARK    2  A    between atoms: C_2  and  C_3
REMARK    3  A    between atoms: N_5  and  C_6
REMARK    4  A    between atoms: C_9  and  C_10
REMARK    5  A    between atoms: C_10  and  C_11
REMARK    6  A    between atoms: C_14  and  N_15
REMARK    7  A    between atoms: C_16  and  C_18
REMARK    8  A    between atoms: C_18  and  N_19
REMARK                            x       y       z     vdW  Elec       q    Type
REMARK                         _______ _______ _______ _____ _____    ______ ____
ROOT
ATOM      1  C   UNL     1       3.435   6.125  19.376  0.00  0.00    +0.000 C 
ENDROOT
BRANCH   1   5
ATOM      2  C   UNL     1       5.099   4.751  15.613  0.00  0.00    +0.000 A 
ATOM      3  C   UNL     1       5.277   6.066  16.050  0.00  0.00    +0.000 A 
ATOM      4  C   UNL     1       4.724   6.505  17.254  0.00  0.00    +0.000 A 
ATOM      5  C   UNL     1       3.983   5.636  18.058  0.00  0.00    +0.000 A 
ATOM      6  C   UNL     1       3.787   4.319  17.617  0.00  0.00    +0.000 A 
ATOM      7  C   UNL     1       4.333   3.884  16.399  0.00  0.00    +0.000 A 
BRANCH   2  10
ATOM      8  C   UNL     1       6.875   4.615  13.870  0.00  0.00    +0.000 C 
ATOM      9  O   UNL     1       7.752   5.283  14.421  0.00  0.00    +0.000 OA
ATOM     10  N   UNL     1       5.645   4.277  14.404  0.00  0.00    +0.000 N 
ATOM     11  H   UNL     1       5.115   3.593  13.866  0.00  0.00    +0.000 HD
BRANCH   8  12
ATOM     12  C   UNL     1       7.130   4.020  12.484  0.00  0.00    +0.000 C 
BRANCH  12  13
ATOM     13  N   UNL     1       6.285   2.834  12.244  0.00  0.00    +0.000 NA
ATOM     14  H   UNL     1       5.347   3.052  12.583  0.00  0.00    +0.000 HD
ATOM     15  H   UNL     1       6.614   2.082  12.855  0.00  0.00    +0.000 HD
ENDBRANCH  12  13
ENDBRANCH   8  12
ENDBRANCH   2  10
ENDBRANCH   1   5
BRANCH   1  16
ATOM     16  C   UNL     1       2.488   7.299  19.285  0.00  0.00    +0.000 A 
ATOM     17  C   UNL     1       1.855   7.767  20.438  0.00  0.00    +0.000 A 
ATOM     18  C   UNL     1       1.053   8.911  20.396  0.00  0.00    +0.000 A 
ATOM     19  C   UNL     1       0.857   9.612  19.207  0.00  0.00    +0.000 A 
ATOM     20  C   UNL     1       1.448   9.117  18.038  0.00  0.00    +0.000 A 
ATOM     21  C   UNL     1       2.253   7.967  18.076  0.00  0.00    +0.000 A 
BRANCH  19  22
ATOM     22  N   UNL     1       0.112  10.809  19.134  0.00  0.00    +0.000 N 
ATOM     23  C   UNL     1       0.599  12.103  19.245  0.00  0.00    +0.000 C 
ATOM     24  O   UNL     1       1.755  12.438  19.487  0.00  0.00    +0.000 OA
ATOM     25  H   UNL     1      -0.880  10.749  18.922  0.00  0.00    +0.000 HD
BRANCH  23  26
ATOM     26  C   UNL     1      -0.476  13.175  19.053  0.00  0.00    +0.000 C 
BRANCH  26  27
ATOM     27  N   UNL     1      -1.076  13.112  17.706  0.00  0.00    +0.000 NA
ATOM     28  H   UNL     1      -1.976  13.595  17.736  0.00  0.00    +0.000 HD
ATOM     29  H   UNL     1      -1.317  12.133  17.529  0.00  0.00    +0.000 HD
ENDBRANCH  26  27
ENDBRANCH  23  26
ENDBRANCH  19  22
ENDBRANCH   1  16
TORSDOF 8
ENDMDL
MODEL 3
REMARK VINA RESULT:      -7.3      1.120      8.775
REMARK  Name = 
REMARK  8 active torsions:
REMARK  status: ('A' for Active; 'I' for Inactive)
REMARK    1  A    between atoms: N_1  and  C_2
REMARK    2  A    between atoms: C_2  and  C_3
REMARK    3  A    between atoms: N_5  and  C_6
REMARK    4  A    between atoms: C_9  and  C_10
REMARK    5  A    between atoms: C_10  and  C_11
REMARK    6  A    between atoms: C_14  and  N_15
REMARK    7  A    between atoms: C_16  and  C_18
REMARK    8  A    between atoms: C_18  and  N_19
REMARK                            x       y       z     vdW  Elec       q    Type
REMARK                         _______ _______ _______ _____ _____    ______ ____
ROOT
ATOM      1  C   UNL     1       3.304   6.019  19.462  0.00  0.00    +0.000 C 
ENDROOT
BRANCH   1   5
ATOM      2  C   UNL     1       0.970   9.646  19.008  0.00  0.00    +0.000 A 
ATOM      3  C   UNL     1       1.047   8.980  20.233  0.00  0.00    +0.000 A 
ATOM      4  C   UNL     1       1.786   7.804  20.368  0.00  0.00    +0.000 A 
ATOM      5  C   UNL     1       2.475   7.267  19.278  0.00  0.00    +0.000 A 
ATOM      6  C   UNL     1       2.389   7.922  18.041  0.00  0.00    +0.000 A 
ATOM      7  C   UNL     1       1.633   9.097  17.906  0.00  0.00    +0.000 A 
BRANCH   2  10
ATOM      8  C   UNL     1       0.673  12.119  19.110  0.00  0.00    +0.000 C 
ATOM      9  O   UNL     1       1.820  12.449  19.416  0.00  0.00    +0.000 OA
ATOM     10  N   UNL     1       0.233  10.835  18.840  0.00  0.00    +0.000 N 
ATOM     11  H   UNL     1      -0.708  10.775  18.456  0.00  0.00    +0.000 HD
BRANCH   8  12
ATOM     12  C   UNL     1      -0.406  13.190  18.933  0.00  0.00    +0.000 C 
BRANCH  12  13
ATOM     13  N   UNL     1      -1.203  12.954  17.713  0.00  0.00    +0.000 NA
ATOM     14  H   UNL     1      -1.828  12.170  17.902  0.00  0.00    +0.000 HD
ATOM     15  H   UNL     1      -0.572  12.615  16.984  0.00  0.00    +0.000 HD
ENDBRANCH  12  13
ENDBRANCH   8  12
ENDBRANCH   2  10
ENDBRANCH   1   5
BRANCH   1  16
ATOM     16  C   UNL     1       3.986   5.508  18.214  0.00  0.00    +0.000 A 
ATOM     17  C   UNL     1       3.727   4.211  17.766  0.00  0.00    +0.000 A 
ATOM     18  C   UNL     1       4.268   3.751  16.563  0.00  0.00    +0.000 A 
ATOM     19  C   UNL     1       5.083   4.566  15.780  0.00  0.00    +0.000 A 
ATOM     20  C   UNL     1       5.389   5.849  16.250  0.00  0.00    +0.000 A 
ATOM     21  C   UNL     1       4.849   6.314  17.460  0.00  0.00    +0.000 A 
BRANCH  19  22
ATOM     22  N   UNL     1       5.595   4.165  14.526  0.00  0.00    +0.000 N 
ATOM     23  C   UNL     1       6.791   4.565  13.948  0.00  0.00    +0.000 C 
ATOM     24  O   UNL     1       7.588   5.385  14.392  0.00  0.00    +0.000 OA
ATOM     25  H   UNL     1       5.081   3.467  13.995  0.00  0.00    +0.000 HD
BRANCH  23  26
ATOM     26  C   UNL     1       7.071   3.886  12.604  0.00  0.00    +0.000 C 
BRANCH  26  27
ATOM     27  N   UNL     1       6.043   2.878  12.277  0.00  0.00    +0.000 NA
ATOM     28  H   UNL     1       5.153   3.363  12.146  0.00  0.00    +0.000 HD
ATOM     29  H   UNL     1       5.904   2.307  13.115  0.00  0.00    +0.000 HD
ENDBRANCH  26  27
ENDBRANCH  23  26
ENDBRANCH  19  22
ENDBRANCH   1  16
TORSDOF 8
ENDMDL
MODEL 4
REMARK VINA RESULT:      -7.3      0.523      8.902
REMARK  Name = 
REMARK  8 active torsions:
REMARK  status: ('A' for Active; 'I' for Inactive)
REMARK    1  A    between atoms: N_1  and  C_2
REMARK    2  A    between atoms: C_2  and  C_3
REMARK    3  A    between atoms: N_5  and  C_6
REMARK    4  A    between atoms: C_9  and  C_10
REMARK    5  A    between atoms: C_10  and  C_11
REMARK    6  A    between atoms: C_14  and  N_15
REMARK    7  A    between atoms: C_16  and  C_18
REMARK    8  A    between atoms: C_18  and  N_19
REMARK                            x       y       z     vdW  Elec       q    Type
REMARK                         _______ _______ _______ _____ _____    ______ ____
ROOT
ATOM      1  C   UNL     1       3.303   6.103  19.433  0.00  0.00    +0.000 C 
ENDROOT
BRANCH   1   5
ATOM      2  C   UNL     1       0.847   9.659  19.066  0.00  0.00    +0.000 A 
ATOM      3  C   UNL     1       0.976   8.986  20.284  0.00  0.00    +0.000 A 
ATOM      4  C   UNL     1       1.754   7.833  20.391  0.00  0.00    +0.000 A 
ATOM      5  C   UNL     1       2.432   7.325  19.280  0.00  0.00    +0.000 A 
ATOM      6  C   UNL     1       2.293   7.986  18.050  0.00  0.00    +0.000 A 
ATOM      7  C   UNL     1       1.498   9.138  17.944  0.00  0.00    +0.000 A 
BRANCH   2  10
ATOM      8  C   UNL     1      -1.147  10.930  18.277  0.00  0.00    +0.000 C 
ATOM      9  O   UNL     1      -1.817   9.998  17.827  0.00  0.00    +0.000 OA
ATOM     10  N   UNL     1       0.070  10.826  18.927  0.00  0.00    +0.000 N 
ATOM     11  H   UNL     1       0.400  11.685  19.364  0.00  0.00    +0.000 HD
BRANCH   8  12
ATOM     12  C   UNL     1      -1.684  12.360  18.200  0.00  0.00    +0.000 C 
BRANCH  12  13
ATOM     13  N   UNL     1      -2.334  12.761  19.463  0.00  0.00    +0.000 NA
ATOM     14  H   UNL     1      -1.833  13.575  19.821  0.00  0.00    +0.000 HD
ATOM     15  H   UNL     1      -2.164  12.026  20.153  0.00  0.00    +0.000 HD
ENDBRANCH  12  13
ENDBRANCH   8  12
ENDBRANCH   2  10
ENDBRANCH   1   5
BRANCH   1  16
ATOM     16  C   UNL     1       3.982   5.632  18.168  0.00  0.00    +0.000 A 
ATOM     17  C   UNL     1       3.899   4.288  17.797  0.00  0.00    +0.000 A 
ATOM     18  C   UNL     1       4.433   3.849  16.583  0.00  0.00    +0.000 A 
ATOM     19  C   UNL     1       5.068   4.733  15.712  0.00  0.00    +0.000 A 
ATOM     20  C   UNL     1       5.201   6.072  16.102  0.00  0.00    +0.000 A 
ATOM     21  C   UNL     1       4.666   6.516  17.323  0.00  0.00    +0.000 A 
BRANCH  19  22
ATOM     22  N   UNL     1       5.562   4.345  14.447  0.00  0.00    +0.000 N 
ATOM     23  C   UNL     1       6.808   4.638  13.914  0.00  0.00    +0.000 C 
ATOM     24  O   UNL     1       7.681   5.339  14.418  0.00  0.00    +0.000 OA
ATOM     25  H   UNL     1       4.987   3.739  13.869  0.00  0.00    +0.000 HD
BRANCH  23  26
ATOM     26  C   UNL     1       7.043   4.006  12.539  0.00  0.00    +0.000 C 
BRANCH  26  27
ATOM     27  N   UNL     1       6.172   2.835  12.321  0.00  0.00    +0.000 NA
ATOM     28  H   UNL     1       6.768   2.017  12.181  0.00  0.00    +0.000 HD
ATOM     29  H   UNL     1       5.705   2.970  11.420  0.00  0.00    +0.000 HD
ENDBRANCH  26  27
ENDBRANCH  23  26
ENDBRANCH  19  22
ENDBRANCH   1  16
TORSDOF 8
ENDMDL
MODEL 5
REMARK VINA RESULT:      -7.3      0.277      1.037
REMARK  Name = 
REMARK  8 active torsions:
REMARK  status: ('A' for Active; 'I' for Inactive)
REMARK    1  A    between atoms: N_1  and  C_2
REMARK    2  A    between atoms: C_2  and  C_3
REMARK    3  A    between atoms: N_5  and  C_6
REMARK    4  A    between atoms: C_9  and  C_10
REMARK    5  A    between atoms: C_10  and  C_11
REMARK    6  A    between atoms: C_14  and  N_15
REMARK    7  A    between atoms: C_16  and  C_18
REMARK    8  A    between atoms: C_18  and  N_19
REMARK                            x       y       z     vdW  Elec       q    Type
REMARK                         _______ _______ _______ _____ _____    ______ ____
ROOT
ATOM      1  C   UNL     1       3.343   5.933  19.373  0.00  0.00    +0.000 C 
ENDROOT
BRANCH   1   5
ATOM      2  C   UNL     1       5.096   4.591  15.640  0.00  0.00    +0.000 A 
ATOM      3  C   UNL     1       5.196   5.922  16.054  0.00  0.00    +0.000 A 
ATOM      4  C   UNL     1       4.615   6.350  17.248  0.00  0.00    +0.000 A 
ATOM      5  C   UNL     1       3.923   5.453  18.065  0.00  0.00    +0.000 A 
ATOM      6  C   UNL     1       3.805   4.120  17.648  0.00  0.00    +0.000 A 
ATOM      7  C   UNL     1       4.379   3.696  16.439  0.00  0.00    +0.000 A 
BRANCH   2  10
ATOM      8  C   UNL     1       6.848   4.579  13.867  0.00  0.00    +0.000 C 
ATOM      9  O   UNL     1       7.653   5.365  14.371  0.00  0.00    +0.000 OA
ATOM     10  N   UNL     1       5.673   4.128  14.441  0.00  0.00    +0.000 N 
ATOM     11  H   UNL     1       5.215   3.366  13.944  0.00  0.00    +0.000 HD
BRANCH   8  12
ATOM     12  C   UNL     1       7.146   3.954  12.502  0.00  0.00    +0.000 C 
BRANCH  12  13
ATOM     13  N   UNL     1       6.297   2.773  12.254  0.00  0.00    +0.000 NA
ATOM     14  H   UNL     1       6.591   2.365  11.366  0.00  0.00    +0.000 HD
ATOM     15  H   UNL     1       5.342   3.098  12.089  0.00  0.00    +0.000 HD
ENDBRANCH  12  13
ENDBRANCH   8  12
ENDBRANCH   2  10
ENDBRANCH   1   5
BRANCH   1  16
ATOM     16  C   UNL     1       2.559   7.222  19.297  0.00  0.00    +0.000 A 
ATOM     17  C   UNL     1       2.511   7.933  18.096  0.00  0.00    +0.000 A 
ATOM     18  C   UNL     1       1.714   9.074  17.974  0.00  0.00    +0.000 A 
ATOM     19  C   UNL     1       0.950   9.538  19.043  0.00  0.00    +0.000 A 
ATOM     20  C   UNL     1       1.034   8.861  20.265  0.00  0.00    +0.000 A 
ATOM     21  C   UNL     1       1.837   7.715  20.393  0.00  0.00    +0.000 A 
BRANCH  19  22
ATOM     22  N   UNL     1       0.079  10.646  18.942  0.00  0.00    +0.000 N 
ATOM     23  C   UNL     1      -1.107  10.711  18.225  0.00  0.00    +0.000 C 
ATOM     24  O   UNL     1      -1.580   9.841  17.500  0.00  0.00    +0.000 OA
ATOM     25  H   UNL     1       0.288  11.477  19.488  0.00  0.00    +0.000 HD
BRANCH  23  26
ATOM     26  C   UNL     1      -1.839  12.046  18.384  0.00  0.00    +0.000 C 
BRANCH  26  27
ATOM     27  N   UNL     1      -1.088  13.157  17.769  0.00  0.00    +0.000 NA
ATOM     28  H   UNL     1      -1.387  14.027  18.213  0.00  0.00    +0.000 HD
ATOM     29  H   UNL     1      -1.410  13.239  16.800  0.00  0.00    +0.000 HD
ENDBRANCH  26  27
ENDBRANCH  23  26
ENDBRANCH  19  22
ENDBRANCH   1  16
TORSDOF 8
ENDMDL
MODEL 6
REMARK VINA RESULT:      -7.3      0.560      1.148
REMARK  Name = 
REMARK  8 active torsions:
REMARK  status: ('A' for Active; 'I' for Inactive)
REMARK    1  A    between atoms: N_1  and  C_2
REMARK    2  A    between atoms: C_2  and  C_3
REMARK    3  A    between atoms: N_5  and  C_6
REMARK    4  A    between atoms: C_9  and  C_10
REMARK    5  A    between atoms: C_10  and  C_11
REMARK    6  A    between atoms: C_14  and  N_15
REMARK    7  A    between atoms: C_16  and  C_18
REMARK    8  A    between atoms: C_18  and  N_19
REMARK                            x       y       z     vdW  Elec       q    Type
REMARK                         _______ _______ _______ _____ _____    ______ ____
ROOT
ATOM      1  C   UNL     1       3.279   6.081  19.431  0.00  0.00    +0.000 C 
ENDROOT
BRANCH   1   5
ATOM      2  C   UNL     1       5.057   4.696  15.725  0.00  0.00    +0.000 A 
ATOM      3  C   UNL     1       4.327   3.835  16.547  0.00  0.00    +0.000 A 
ATOM      4  C   UNL     1       3.772   4.283  17.747  0.00  0.00    +0.000 A 
ATOM      5  C   UNL     1       3.928   5.611  18.152  0.00  0.00    +0.000 A 
ATOM      6  C   UNL     1       4.673   6.477  17.338  0.00  0.00    +0.000 A 
ATOM      7  C   UNL     1       5.241   6.019  16.139  0.00  0.00    +0.000 A 
BRANCH   2  10
ATOM      8  C   UNL     1       6.844   4.677  13.988  0.00  0.00    +0.000 C 
ATOM      9  O   UNL     1       7.690   5.369  14.558  0.00  0.00    +0.000 OA
ATOM     10  N   UNL     1       5.627   4.274  14.508  0.00  0.00    +0.000 N 
ATOM     11  H   UNL     1       5.129   3.581  13.951  0.00  0.00    +0.000 HD
BRANCH   8  12
ATOM     12  C   UNL     1       7.130   4.125  12.589  0.00  0.00    +0.000 C 
BRANCH  12  13
ATOM     13  N   UNL     1       6.289   2.949  12.293  0.00  0.00    +0.000 NA
ATOM     14  H   UNL     1       5.766   2.725  13.140  0.00  0.00    +0.000 HD
ATOM     15  H   UNL     1       6.907   2.147  12.148  0.00  0.00    +0.000 HD
ENDBRANCH  12  13
ENDBRANCH   8  12
ENDBRANCH   2  10
ENDBRANCH   1   5
BRANCH   1  16
ATOM     16  C   UNL     1       2.393   7.297  19.296  0.00  0.00    +0.000 A 
ATOM     17  C   UNL     1       1.780   7.836  20.428  0.00  0.00    +0.000 A 
ATOM     18  C   UNL     1       1.037   9.016  20.344  0.00  0.00    +0.000 A 
ATOM     19  C   UNL     1       0.880   9.685  19.131  0.00  0.00    +0.000 A 
ATOM     20  C   UNL     1       1.448   9.121  17.982  0.00  0.00    +0.000 A 
ATOM     21  C   UNL     1       2.194   7.934  18.063  0.00  0.00    +0.000 A 
BRANCH  19  22
ATOM     22  N   UNL     1       0.196  10.914  19.014  0.00  0.00    +0.000 N 
ATOM     23  C   UNL     1      -1.145  11.096  18.709  0.00  0.00    +0.000 C 
ATOM     24  O   UNL     1      -1.962  10.225  18.425  0.00  0.00    +0.000 OA
ATOM     25  H   UNL     1       0.700  11.771  19.226  0.00  0.00    +0.000 HD
BRANCH  23  26
ATOM     26  C   UNL     1      -1.578  12.564  18.726  0.00  0.00    +0.000 C 
BRANCH  26  27
ATOM     27  N   UNL     1      -2.903  12.735  19.353  0.00  0.00    +0.000 NA
ATOM     28  H   UNL     1      -2.790  12.645  20.365  0.00  0.00    +0.000 HD
ATOM     29  H   UNL     1      -3.471  11.926  19.085  0.00  0.00    +0.000 HD
ENDBRANCH  26  27
ENDBRANCH  23  26
ENDBRANCH  19  22
ENDBRANCH   1  16
TORSDOF 8
ENDMDL
MODEL 7
REMARK VINA RESULT:      -7.3      0.743      1.594
REMARK  Name = 
REMARK  8 active torsions:
REMARK  status: ('A' for Active; 'I' for Inactive)
REMARK    1  A    between atoms: N_1  and  C_2
REMARK    2  A    between atoms: C_2  and  C_3
REMARK    3  A    between atoms: N_5  and  C_6
REMARK    4  A    between atoms: C_9  and  C_10
REMARK    5  A    between atoms: C_10  and  C_11
REMARK    6  A    between atoms: C_14  and  N_15
REMARK    7  A    between atoms: C_16  and  C_18
REMARK    8  A    between atoms: C_18  and  N_19
REMARK                            x       y       z     vdW  Elec       q    Type
REMARK                         _______ _______ _______ _____ _____    ______ ____
ROOT
ATOM      1  C   UNL     1       3.139   6.166  19.580  0.00  0.00    +0.000 C 
ENDROOT
BRANCH   1   5
ATOM      2  C   UNL     1       5.004   4.728  15.938  0.00  0.00    +0.000 A 
ATOM      3  C   UNL     1       4.095   3.941  16.649  0.00  0.00    +0.000 A 
ATOM      4  C   UNL     1       3.512   4.404  17.829  0.00  0.00    +0.000 A 
ATOM      5  C   UNL     1       3.818   5.673  18.326  0.00  0.00    +0.000 A 
ATOM      6  C   UNL     1       4.743   6.462  17.626  0.00  0.00    +0.000 A 
ATOM      7  C   UNL     1       5.338   5.987  16.446  0.00  0.00    +0.000 A 
BRANCH   2  10
ATOM      8  C   UNL     1       6.804   4.743  14.213  0.00  0.00    +0.000 C 
ATOM      9  O   UNL     1       7.602   5.508  14.758  0.00  0.00    +0.000 OA
ATOM     10  N   UNL     1       5.609   4.290  14.743  0.00  0.00    +0.000 N 
ATOM     11  H   UNL     1       5.157   3.546  14.214  0.00  0.00    +0.000 HD
BRANCH   8  12
ATOM     12  C   UNL     1       7.132   4.151  12.841  0.00  0.00    +0.000 C 
BRANCH  12  13
ATOM     13  N   UNL     1       6.225   3.037  12.504  0.00  0.00    +0.000 NA
ATOM     14  H   UNL     1       6.729   2.410  11.876  0.00  0.00    +0.000 HD
ATOM     15  H   UNL     1       5.459   3.412  11.940  0.00  0.00    +0.000 HD
ENDBRANCH  12  13
ENDBRANCH   8  12
ENDBRANCH   2  10
ENDBRANCH   1   5
BRANCH   1  16
ATOM     16  C   UNL     1       2.323   7.428  19.417  0.00  0.00    +0.000 A 
ATOM     17  C   UNL     1       2.218   8.027  18.161  0.00  0.00    +0.000 A 
ATOM     18  C   UNL     1       1.391   9.136  17.966  0.00  0.00    +0.000 A 
ATOM     19  C   UNL     1       0.653   9.679  19.017  0.00  0.00    +0.000 A 
ATOM     20  C   UNL     1       0.794   9.115  20.291  0.00  0.00    +0.000 A 
ATOM     21  C   UNL     1       1.626   8.001  20.490  0.00  0.00    +0.000 A 
BRANCH  19  22
ATOM     22  N   UNL     1      -0.246  10.755  18.850  0.00  0.00    +0.000 N 
ATOM     23  C   UNL     1      -1.487  10.716  18.231  0.00  0.00    +0.000 C 
ATOM     24  O   UNL     1      -1.999   9.755  17.664  0.00  0.00    +0.000 OA
ATOM     25  H   UNL     1      -0.011  11.651  19.267  0.00  0.00    +0.000 HD
BRANCH  23  26
ATOM     26  C   UNL     1      -2.232  12.052  18.281  0.00  0.00    +0.000 C 
BRANCH  26  27
ATOM     27  N   UNL     1      -3.485  12.008  17.502  0.00  0.00    +0.000 NA
ATOM     28  H   UNL     1      -3.999  12.874  17.676  0.00  0.00    +0.000 HD
ATOM     29  H   UNL     1      -4.070  11.275  17.912  0.00  0.00    +0.000 HD
ENDBRANCH  26  27
ENDBRANCH  23  26
ENDBRANCH  19  22
ENDBRANCH   1  16
TORSDOF 8
ENDMDL
MODEL 8
REMARK VINA RESULT:      -7.3      4.551      6.047
REMARK  Name = 
REMARK  8 active torsions:
REMARK  status: ('A' for Active; 'I' for Inactive)
REMARK    1  A    between atoms: N_1  and  C_2
REMARK    2  A    between atoms: C_2  and  C_3
REMARK    3  A    between atoms: N_5  and  C_6
REMARK    4  A    between atoms: C_9  and  C_10
REMARK    5  A    between atoms: C_10  and  C_11
REMARK    6  A    between atoms: C_14  and  N_15
REMARK    7  A    between atoms: C_16  and  C_18
REMARK    8  A    between atoms: C_18  and  N_19
REMARK                            x       y       z     vdW  Elec       q    Type
REMARK                         _______ _______ _______ _____ _____    ______ ____
ROOT
ATOM      1  C   UNL     1       0.939  10.526  18.506  0.00  0.00    +0.000 C 
ENDROOT
BRANCH   1   5
ATOM      2  C   UNL     1       2.207   6.678  20.055  0.00  0.00    +0.000 A 
ATOM      3  C   UNL     1       1.522   7.595  20.856  0.00  0.00    +0.000 A 
ATOM      4  C   UNL     1       1.132   8.837  20.355  0.00  0.00    +0.000 A 
ATOM      5  C   UNL     1       1.412   9.194  19.034  0.00  0.00    +0.000 A 
ATOM      6  C   UNL     1       2.115   8.285  18.230  0.00  0.00    +0.000 A 
ATOM      7  C   UNL     1       2.518   7.041  18.741  0.00  0.00    +0.000 A 
BRANCH   2  10
ATOM      8  C   UNL     1       1.811   4.300  20.685  0.00  0.00    +0.000 C 
ATOM      9  O   UNL     1       0.642   4.183  20.314  0.00  0.00    +0.000 OA
ATOM     10  N   UNL     1       2.613   5.416  20.530  0.00  0.00    +0.000 N 
ATOM     11  H   UNL     1       3.596   5.275  20.760  0.00  0.00    +0.000 HD
BRANCH   8  12
ATOM     12  C   UNL     1       2.526   3.113  21.334  0.00  0.00    +0.000 C 
BRANCH  12  13
ATOM     13  N   UNL     1       3.583   2.576  20.455  0.00  0.00    +0.000 NA
ATOM     14  H   UNL     1       3.128   2.006  19.740  0.00  0.00    +0.000 HD
ATOM     15  H   UNL     1       4.141   1.914  20.999  0.00  0.00    +0.000 HD
ENDBRANCH  12  13
ENDBRANCH   8  12
ENDBRANCH   2  10
ENDBRANCH   1   5
BRANCH   1  16
ATOM     16  C   UNL     1      -0.560  10.679  18.391  0.00  0.00    +0.000 A 
ATOM     17  C   UNL     1      -1.208  11.694  19.097  0.00  0.00    +0.000 A 
ATOM     18  C   UNL     1      -2.577  11.917  18.931  0.00  0.00    +0.000 A 
ATOM     19  C   UNL     1      -3.335  11.133  18.063  0.00  0.00    +0.000 A 
ATOM     20  C   UNL     1      -2.702  10.080  17.392  0.00  0.00    +0.000 A 
ATOM     21  C   UNL     1      -1.326   9.852  17.559  0.00  0.00    +0.000 A 
BRANCH  19  22
ATOM     22  N   UNL     1      -4.705  11.367  17.814  0.00  0.00    +0.000 N 
ATOM     23  C   UNL     1      -5.679  11.692  18.748  0.00  0.00    +0.000 C 
ATOM     24  O   UNL     1      -5.536  11.773  19.965  0.00  0.00    +0.000 OA
ATOM     25  H   UNL     1      -5.031  11.360  16.852  0.00  0.00    +0.000 HD
BRANCH  23  26
ATOM     26  C   UNL     1      -7.056  11.942  18.128  0.00  0.00    +0.000 C 
BRANCH  26  27
ATOM     27  N   UNL     1      -6.953  12.668  16.847  0.00  0.00    +0.000 NA
ATOM     28  H   UNL     1      -5.971  12.673  16.562  0.00  0.00    +0.000 HD
ATOM     29  H   UNL     1      -7.169  13.650  17.039  0.00  0.00    +0.000 HD
ENDBRANCH  26  27
ENDBRANCH  23  26
ENDBRANCH  19  22
ENDBRANCH   1  16
TORSDOF 8
ENDMDL
MODEL 9
REMARK VINA RESULT:      -7.2      4.545      9.609
REMARK  Name = 
REMARK  8 active torsions:
REMARK  status: ('A' for Active; 'I' for Inactive)
REMARK    1  A    between atoms: N_1  and  C_2
REMARK    2  A    between atoms: C_2  and  C_3
REMARK    3  A    between atoms: N_5  and  C_6
REMARK    4  A    between atoms: C_9  and  C_10
REMARK    5  A    between atoms: C_10  and  C_11
REMARK    6  A    between atoms: C_14  and  N_15
REMARK    7  A    between atoms: C_16  and  C_18
REMARK    8  A    between atoms: C_18  and  N_19
REMARK                            x       y       z     vdW  Elec       q    Type
REMARK                         _______ _______ _______ _____ _____    ______ ____
ROOT
ATOM      1  C   UNL     1       1.022  10.289  18.161  0.00  0.00    +0.000 C 
ENDROOT
BRANCH   1   5
ATOM      2  C   UNL     1      -3.216  11.168  18.434  0.00  0.00    +0.000 A 
ATOM      3  C   UNL     1      -2.266  11.960  19.083  0.00  0.00    +0.000 A 
ATOM      4  C   UNL     1      -0.905  11.661  19.005  0.00  0.00    +0.000 A 
ATOM      5  C   UNL     1      -0.458  10.563  18.266  0.00  0.00    +0.000 A 
ATOM      6  C   UNL     1      -1.408   9.754  17.626  0.00  0.00    +0.000 A 
ATOM      7  C   UNL     1      -2.778  10.050  17.719  0.00  0.00    +0.000 A 
BRANCH   2  10
ATOM      8  C   UNL     1      -5.380  11.942  17.467  0.00  0.00    +0.000 C 
ATOM      9  O   UNL     1      -5.032  12.104  16.295  0.00  0.00    +0.000 OA
ATOM     10  N   UNL     1      -4.597  11.445  18.493  0.00  0.00    +0.000 N 
ATOM     11  H   UNL     1      -5.098  11.238  19.356  0.00  0.00    +0.000 HD
BRANCH   8  12
ATOM     12  C   UNL     1      -6.821  12.243  17.882  0.00  0.00    +0.000 C 
BRANCH  12  13
ATOM     13  N   UNL     1      -7.364  11.180  18.750  0.00  0.00    +0.000 NA
ATOM     14  H   UNL     1      -6.615  10.884  19.377  0.00  0.00    +0.000 HD
ATOM     15  H   UNL     1      -7.555  10.362  18.167  0.00  0.00    +0.000 HD
ENDBRANCH  12  13
ENDBRANCH   8  12
ENDBRANCH   2  10
ENDBRANCH   1   5
BRANCH   1  16
ATOM     16  C   UNL     1       1.498   9.041  18.867  0.00  0.00    +0.000 A 
ATOM     17  C   UNL     1       1.200   8.853  20.218  0.00  0.00    +0.000 A 
ATOM     18  C   UNL     1       1.544   7.664  20.866  0.00  0.00    +0.000 A 
ATOM     19  C   UNL     1       2.197   6.636  20.188  0.00  0.00    +0.000 A 
ATOM     20  C   UNL     1       2.546   6.839  18.847  0.00  0.00    +0.000 A 
ATOM     21  C   UNL     1       2.204   8.034  18.193  0.00  0.00    +0.000 A 
BRANCH  19  22
ATOM     22  N   UNL     1       2.502   5.393  20.785  0.00  0.00    +0.000 N 
ATOM     23  C   UNL     1       1.744   4.233  20.728  0.00  0.00    +0.000 C 
ATOM     24  O   UNL     1       0.644   4.095  20.202  0.00  0.00    +0.000 OA
ATOM     25  H   UNL     1       3.392   5.292  21.266  0.00  0.00    +0.000 HD
BRANCH  23  26
ATOM     26  C   UNL     1       2.400   3.044  21.435  0.00  0.00    +0.000 C 
BRANCH  26  27
ATOM     27  N   UNL     1       3.507   2.479  20.640  0.00  0.00    +0.000 NA
ATOM     28  H   UNL     1       3.704   3.121  19.869  0.00  0.00    +0.000 HD
ATOM     29  H   UNL     1       3.151   1.633  20.186  0.00  0.00    +0.000 HD
ENDBRANCH  26  27
ENDBRANCH  23  26
ENDBRANCH  19  22
ENDBRANCH   1  16
TORSDOF 8
ENDMDL
