MODEL 1
REMARK VINA RESULT:      -7.4      0.000      0.000
REMARK  Name = 
REMARK  10 active torsions:
REMARK  status: ('A' for Active; 'I' for Inactive)
REMARK    1  A    between atoms: C_1  and  C_2
REMARK    2  A    between atoms: C_2  and  N_3
REMARK    3  A    between atoms: N_3  and  C_4
REMARK    4  A    between atoms: N_3  and  C_6
REMARK    5  A    between atoms: C_4  and  C_5
REMARK    6  A    between atoms: C_6  and  C_7
REMARK    7  A    between atoms: C_7  and  O_8
REMARK    8  A    between atoms: O_8  and  C_9
REMARK    9  A    between atoms: C_12  and  N_13
REMARK   10  A    between atoms: N_22  and  C_23
REMARK                            x       y       z     vdW  Elec       q    Type
REMARK                         _______ _______ _______ _____ _____    ______ ____
ROOT
ATOM      1  N   UNL     1       6.585   4.233  18.161  0.00  0.00    +0.000 N 
ATOM      2  C   UNL     1       5.254   3.856  18.214  0.00  0.00    +0.000 A 
ATOM      3  N   UNL     1       4.954   2.653  17.711  0.00  0.00    +0.000 NA
ATOM      4  C   UNL     1       3.666   2.283  17.781  0.00  0.00    +0.000 A 
ATOM      5  C   UNL     1       2.698   3.013  18.424  0.00  0.00    +0.000 A 
ATOM      6  C   UNL     1       1.328   2.561  18.541  0.00  0.00    +0.000 A 
ATOM      7  C   UNL     1       0.483   3.272  19.288  0.00  0.00    +0.000 A 
ATOM      8  C   UNL     1       0.878   4.546  19.946  0.00  0.00    +0.000 A 
ATOM      9  O   UNL     1       0.018   5.106  20.617  0.00  0.00    +0.000 OA
ATOM     10  N   UNL     1       2.170   5.009  19.722  0.00  0.00    +0.000 N 
ATOM     11  C   UNL     1       3.104   4.224  18.964  0.00  0.00    +0.000 A 
ATOM     12  N   UNL     1       4.363   4.666  18.814  0.00  0.00    +0.000 NA
ATOM     13  H   UNL     1       7.203   3.443  18.098  0.00  0.00    +0.000 HD
ENDROOT
BRANCH  10  14
ATOM     14  C   UNL     1       2.573   6.397  20.105  0.00  0.00    +0.000 C 
ATOM     15  C   UNL     1       3.152   7.152  18.889  0.00  0.00    +0.000 C 
ATOM     16  C   UNL     1       2.157   7.659  17.850  0.00  0.00    +0.000 C 
ATOM     17  C   UNL     1       1.528   9.004  18.190  0.00  0.00    +0.000 C 
ATOM     18  C   UNL     1       0.682   9.040  19.456  0.00  0.00    +0.000 C 
ATOM     19  C   UNL     1       1.428   8.672  20.736  0.00  0.00    +0.000 C 
ATOM     20  C   UNL     1       1.536   7.162  20.966  0.00  0.00    +0.000 C 
ENDBRANCH  10  14
BRANCH   1  24
ATOM     21  C   UNL     1       8.145   8.143  18.026  0.00  0.00    +0.000 A 
ATOM     22  C   UNL     1       8.457   7.269  19.072  0.00  0.00    +0.000 A 
ATOM     23  C   UNL     1       7.956   5.969  19.089  0.00  0.00    +0.000 A 
ATOM     24  C   UNL     1       7.135   5.512  18.061  0.00  0.00    +0.000 A 
ATOM     25  C   UNL     1       6.826   6.393  17.016  0.00  0.00    +0.000 A 
ATOM     26  C   UNL     1       7.332   7.695  16.989  0.00  0.00    +0.000 A 
BRANCH  21  27
ATOM     27  O   UNL     1       8.578   9.443  17.930  0.00  0.00    +0.000 OA
BRANCH  27  28
ATOM     28  C   UNL     1       9.106   9.961  19.154  0.00  0.00    +0.000 C 
BRANCH  28  29
ATOM     29  C   UNL     1       9.434  11.450  19.038  0.00  0.00    +0.000 C 
BRANCH  29  30
ATOM     30  N   UNL     1      10.482  11.733  18.031  0.00  0.00    +0.000 NA
BRANCH  30  32
ATOM     31  C   UNL     1      11.404  13.569  16.574  0.00  0.00    +0.000 C 
ATOM     32  C   UNL     1      10.257  13.062  17.443  0.00  0.00    +0.000 C 
ENDBRANCH  30  32
BRANCH  30  33
ATOM     33  C   UNL     1      11.857  11.508  18.508  0.00  0.00    +0.000 C 
ATOM     34  C   UNL     1      12.172  12.014  19.912  0.00  0.00    +0.000 C 
ENDBRANCH  30  33
ENDBRANCH  29  30
ENDBRANCH  28  29
ENDBRANCH  27  28
ENDBRANCH  21  27
ENDBRANCH   1  24
TORSDOF 8
ENDMDL
MODEL 2
REMARK VINA RESULT:      -7.4      3.998      7.841
REMARK  Name = 
REMARK  10 active torsions:
REMARK  status: ('A' for Active; 'I' for Inactive)
REMARK    1  A    between atoms: C_1  and  C_2
REMARK    2  A    between atoms: C_2  and  N_3
REMARK    3  A    between atoms: N_3  and  C_4
REMARK    4  A    between atoms: N_3  and  C_6
REMARK    5  A    between atoms: C_4  and  C_5
REMARK    6  A    between atoms: C_6  and  C_7
REMARK    7  A    between atoms: C_7  and  O_8
REMARK    8  A    between atoms: O_8  and  C_9
REMARK    9  A    between atoms: C_12  and  N_13
REMARK   10  A    between atoms: N_22  and  C_23
REMARK                            x       y       z     vdW  Elec       q    Type
REMARK                         _______ _______ _______ _____ _____    ______ ____
ROOT
ATOM      1  N   UNL     1       1.843   8.197  21.441  0.00  0.00    +0.000 N 
ATOM      2  C   UNL     1       0.824   9.074  21.770  0.00  0.00    +0.000 A 
ATOM      3  N   UNL     1       0.687   9.371  23.068  0.00  0.00    +0.000 NA
ATOM      4  C   UNL     1      -0.290  10.236  23.381  0.00  0.00    +0.000 A 
ATOM      5  C   UNL     1      -1.054  10.892  22.449  0.00  0.00    +0.000 A 
ATOM      6  C   UNL     1      -2.059  11.869  22.810  0.00  0.00    +0.000 A 
ATOM      7  C   UNL     1      -2.668  12.547  21.837  0.00  0.00    +0.000 A 
ATOM      8  C   UNL     1      -2.404  12.287  20.397  0.00  0.00    +0.000 A 
ATOM      9  O   UNL     1      -3.016  12.983  19.594  0.00  0.00    +0.000 OA
ATOM     10  N   UNL     1      -1.515  11.265  20.083  0.00  0.00    +0.000 N 
ATOM     11  C   UNL     1      -0.813  10.566  21.122  0.00  0.00    +0.000 A 
ATOM     12  N   UNL     1       0.085   9.625  20.790  0.00  0.00    +0.000 NA
ATOM     13  H   UNL     1       2.569   8.179  22.136  0.00  0.00    +0.000 HD
ENDROOT
BRANCH  10  14
ATOM     14  C   UNL     1      -1.392  10.748  18.685  0.00  0.00    +0.000 C 
ATOM     15  C   UNL     1      -2.299   9.515  18.479  0.00  0.00    +0.000 C 
ATOM     16  C   UNL     1      -3.794   9.774  18.321  0.00  0.00    +0.000 C 
ATOM     17  C   UNL     1      -4.219  10.132  16.902  0.00  0.00    +0.000 C 
ATOM     18  C   UNL     1      -3.632  11.420  16.339  0.00  0.00    +0.000 C 
ATOM     19  C   UNL     1      -2.108  11.449  16.261  0.00  0.00    +0.000 C 
ATOM     20  C   UNL     1      -1.438  11.835  17.582  0.00  0.00    +0.000 C 
ENDBRANCH  10  14
BRANCH   1  24
ATOM     21  C   UNL     1       2.220   5.375  18.338  0.00  0.00    +0.000 A 
ATOM     22  C   UNL     1       1.855   4.991  19.633  0.00  0.00    +0.000 A 
ATOM     23  C   UNL     1       1.707   5.940  20.643  0.00  0.00    +0.000 A 
ATOM     24  C   UNL     1       1.917   7.292  20.382  0.00  0.00    +0.000 A 
ATOM     25  C   UNL     1       2.283   7.669  19.083  0.00  0.00    +0.000 A 
ATOM     26  C   UNL     1       2.425   6.723  18.064  0.00  0.00    +0.000 A 
BRANCH  21  27
ATOM     27  O   UNL     1       2.404   4.513  17.285  0.00  0.00    +0.000 OA
BRANCH  27  28
ATOM     28  C   UNL     1       3.673   3.853  17.301  0.00  0.00    +0.000 C 
BRANCH  28  29
ATOM     29  C   UNL     1       4.720   4.632  16.503  0.00  0.00    +0.000 C 
BRANCH  29  30
ATOM     30  N   UNL     1       6.108   4.311  16.907  0.00  0.00    +0.000 NA
BRANCH  30  32
ATOM     31  C   UNL     1       6.500   4.214  14.421  0.00  0.00    +0.000 C 
ATOM     32  C   UNL     1       7.027   4.607  15.797  0.00  0.00    +0.000 C 
ENDBRANCH  30  32
BRANCH  30  33
ATOM     33  C   UNL     1       6.513   4.893  18.198  0.00  0.00    +0.000 C 
ATOM     34  C   UNL     1       7.464   6.082  18.130  0.00  0.00    +0.000 C 
ENDBRANCH  30  33
ENDBRANCH  29  30
ENDBRANCH  28  29
ENDBRANCH  27  28
ENDBRANCH  21  27
ENDBRANCH   1  24
TORSDOF 8
ENDMDL
MODEL 3
REMARK VINA RESULT:      -7.4      5.159      8.736
REMARK  Name = 
REMARK  10 active torsions:
REMARK  status: ('A' for Active; 'I' for Inactive)
REMARK    1  A    between atoms: C_1  and  C_2
REMARK    2  A    between atoms: C_2  and  N_3
REMARK    3  A    between atoms: N_3  and  C_4
REMARK    4  A    between atoms: N_3  and  C_6
REMARK    5  A    between atoms: C_4  and  C_5
REMARK    6  A    between atoms: C_6  and  C_7
REMARK    7  A    between atoms: C_7  and  O_8
REMARK    8  A    between atoms: O_8  and  C_9
REMARK    9  A    between atoms: C_12  and  N_13
REMARK   10  A    between atoms: N_22  and  C_23
REMARK                            x       y       z     vdW  Elec       q    Type
REMARK                         _______ _______ _______ _____ _____    ______ ____
ROOT
ATOM      1  N   UNL     1       0.312   9.161  21.830  0.00  0.00    +0.000 N 
ATOM      2  C   UNL     1      -0.165  10.430  22.110  0.00  0.00    +0.000 A 
ATOM      3  N   UNL     1      -1.241  10.502  22.903  0.00  0.00    +0.000 NA
ATOM      4  C   UNL     1      -1.689  11.735  23.188  0.00  0.00    +0.000 A 
ATOM      5  C   UNL     1      -1.047  12.885  22.807  0.00  0.00    +0.000 A 
ATOM      6  C   UNL     1      -1.515  14.202  23.181  0.00  0.00    +0.000 A 
ATOM      7  C   UNL     1      -0.763  15.259  22.873  0.00  0.00    +0.000 A 
ATOM      8  C   UNL     1       0.501  15.140  22.099  0.00  0.00    +0.000 A 
ATOM      9  O   UNL     1       1.112  16.181  21.886  0.00  0.00    +0.000 OA
ATOM     10  N   UNL     1       0.865  13.873  21.658  0.00  0.00    +0.000 N 
ATOM     11  C   UNL     1       0.092  12.721  22.031  0.00  0.00    +0.000 A 
ATOM     12  N   UNL     1       0.499  11.503  21.642  0.00  0.00    +0.000 NA
ATOM     13  H   UNL     1       0.038   8.489  22.524  0.00  0.00    +0.000 HD
ENDROOT
BRANCH  10  14
ATOM     14  C   UNL     1       1.956  13.686  20.652  0.00  0.00    +0.000 C 
ATOM     15  C   UNL     1       1.416  13.888  19.219  0.00  0.00    +0.000 C 
ATOM     16  C   UNL     1       1.159  15.323  18.771  0.00  0.00    +0.000 C 
ATOM     17  C   UNL     1       2.393  16.042  18.241  0.00  0.00    +0.000 C 
ATOM     18  C   UNL     1       3.526  16.240  19.240  0.00  0.00    +0.000 C 
ATOM     19  C   UNL     1       4.099  14.950  19.822  0.00  0.00    +0.000 C 
ATOM     20  C   UNL     1       3.288  14.398  20.997  0.00  0.00    +0.000 C 
ENDBRANCH  10  14
BRANCH   1  24
ATOM     21  C   UNL     1       2.504   7.787  18.506  0.00  0.00    +0.000 A 
ATOM     22  C   UNL     1       2.401   7.028  19.677  0.00  0.00    +0.000 A 
ATOM     23  C   UNL     1       1.650   7.484  20.758  0.00  0.00    +0.000 A 
ATOM     24  C   UNL     1       0.981   8.704  20.694  0.00  0.00    +0.000 A 
ATOM     25  C   UNL     1       1.089   9.459  19.518  0.00  0.00    +0.000 A 
ATOM     26  C   UNL     1       1.834   9.004  18.427  0.00  0.00    +0.000 A 
BRANCH  21  27
ATOM     27  O   UNL     1       3.232   7.429  17.397  0.00  0.00    +0.000 OA
BRANCH  27  28
ATOM     28  C   UNL     1       4.106   6.320  17.621  0.00  0.00    +0.000 C 
BRANCH  28  29
ATOM     29  C   UNL     1       5.417   6.475  16.848  0.00  0.00    +0.000 C 
BRANCH  29  30
ATOM     30  N   UNL     1       6.153   5.199  16.701  0.00  0.00    +0.000 NA
BRANCH  30  32
ATOM     31  C   UNL     1       6.164   3.888  14.551  0.00  0.00    +0.000 C 
ATOM     32  C   UNL     1       6.684   5.089  15.334  0.00  0.00    +0.000 C 
ENDBRANCH  30  32
BRANCH  30  33
ATOM     33  C   UNL     1       7.148   4.948  17.758  0.00  0.00    +0.000 C 
ATOM     34  C   UNL     1       7.649   6.174  18.513  0.00  0.00    +0.000 C 
ENDBRANCH  30  33
ENDBRANCH  29  30
ENDBRANCH  28  29
ENDBRANCH  27  28
ENDBRANCH  21  27
ENDBRANCH   1  24
TORSDOF 8
ENDMDL
MODEL 4
REMARK VINA RESULT:      -7.4      5.080      8.636
REMARK  Name = 
REMARK  10 active torsions:
REMARK  status: ('A' for Active; 'I' for Inactive)
REMARK    1  A    between atoms: C_1  and  C_2
REMARK    2  A    between atoms: C_2  and  N_3
REMARK    3  A    between atoms: N_3  and  C_4
REMARK    4  A    between atoms: N_3  and  C_6
REMARK    5  A    between atoms: C_4  and  C_5
REMARK    6  A    between atoms: C_6  and  C_7
REMARK    7  A    between atoms: C_7  and  O_8
REMARK    8  A    between atoms: O_8  and  C_9
REMARK    9  A    between atoms: C_12  and  N_13
REMARK   10  A    between atoms: N_22  and  C_23
REMARK                            x       y       z     vdW  Elec       q    Type
REMARK                         _______ _______ _______ _____ _____    ______ ____
ROOT
ATOM      1  N   UNL     1       0.468   9.026  21.809  0.00  0.00    +0.000 N 
ATOM      2  C   UNL     1      -0.054  10.284  22.058  0.00  0.00    +0.000 A 
ATOM      3  N   UNL     1      -1.161  10.333  22.810  0.00  0.00    +0.000 NA
ATOM      4  C   UNL     1      -1.653  11.554  23.066  0.00  0.00    +0.000 A 
ATOM      5  C   UNL     1      -1.029  12.719  22.697  0.00  0.00    +0.000 A 
ATOM      6  C   UNL     1      -1.548  14.026  23.041  0.00  0.00    +0.000 A 
ATOM      7  C   UNL     1      -0.814  15.101  22.751  0.00  0.00    +0.000 A 
ATOM      8  C   UNL     1       0.480  15.010  22.025  0.00  0.00    +0.000 A 
ATOM      9  O   UNL     1       1.071  16.066  21.825  0.00  0.00    +0.000 OA
ATOM     10  N   UNL     1       0.896  13.750  21.610  0.00  0.00    +0.000 N 
ATOM     11  C   UNL     1       0.142  12.581  21.966  0.00  0.00    +0.000 A 
ATOM     12  N   UNL     1       0.597  11.371  21.605  0.00  0.00    +0.000 NA
ATOM     13  H   UNL     1       0.187   8.353  22.499  0.00  0.00    +0.000 HD
ENDROOT
BRANCH  10  14
ATOM     14  C   UNL     1       2.029  13.585  20.648  0.00  0.00    +0.000 C 
ATOM     15  C   UNL     1       1.540  13.772  19.195  0.00  0.00    +0.000 C 
ATOM     16  C   UNL     1       1.270  15.201  18.733  0.00  0.00    +0.000 C 
ATOM     17  C   UNL     1       2.508  15.945  18.249  0.00  0.00    +0.000 C 
ATOM     18  C   UNL     1       3.597  16.169  19.291  0.00  0.00    +0.000 C 
ATOM     19  C   UNL     1       4.175  14.893  19.898  0.00  0.00    +0.000 C 
ATOM     20  C   UNL     1       3.331  14.326  21.042  0.00  0.00    +0.000 C 
ENDBRANCH  10  14
BRANCH   1  24
ATOM     21  C   UNL     1       2.482   7.663  18.370  0.00  0.00    +0.000 A 
ATOM     22  C   UNL     1       1.816   8.893  18.386  0.00  0.00    +0.000 A 
ATOM     23  C   UNL     1       1.178   9.343  19.539  0.00  0.00    +0.000 A 
ATOM     24  C   UNL     1       1.192   8.578  20.703  0.00  0.00    +0.000 A 
ATOM     25  C   UNL     1       1.861   7.346  20.680  0.00  0.00    +0.000 A 
ATOM     26  C   UNL     1       2.510   6.893  19.529  0.00  0.00    +0.000 A 
BRANCH  21  27
ATOM     27  O   UNL     1       3.124   7.130  17.279  0.00  0.00    +0.000 OA
BRANCH  27  28
ATOM     28  C   UNL     1       4.262   6.333  17.619  0.00  0.00    +0.000 C 
BRANCH  28  29
ATOM     29  C   UNL     1       4.861   5.655  16.385  0.00  0.00    +0.000 C 
BRANCH  29  30
ATOM     30  N   UNL     1       6.283   6.002  16.171  0.00  0.00    +0.000 NA
BRANCH  30  32
ATOM     31  C   UNL     1       7.642   7.641  17.516  0.00  0.00    +0.000 C 
ATOM     32  C   UNL     1       6.921   6.299  17.463  0.00  0.00    +0.000 C 
ENDBRANCH  30  32
BRANCH  30  33
ATOM     33  C   UNL     1       7.024   5.037  15.340  0.00  0.00    +0.000 C 
ATOM     34  C   UNL     1       6.185   3.986  14.621  0.00  0.00    +0.000 C 
ENDBRANCH  30  33
ENDBRANCH  29  30
ENDBRANCH  28  29
ENDBRANCH  27  28
ENDBRANCH  21  27
ENDBRANCH   1  24
TORSDOF 8
ENDMDL
MODEL 5
REMARK VINA RESULT:      -7.3      5.249     10.147
REMARK  Name = 
REMARK  10 active torsions:
REMARK  status: ('A' for Active; 'I' for Inactive)
REMARK    1  A    between atoms: C_1  and  C_2
REMARK    2  A    between atoms: C_2  and  N_3
REMARK    3  A    between atoms: N_3  and  C_4
REMARK    4  A    between atoms: N_3  and  C_6
REMARK    5  A    between atoms: C_4  and  C_5
REMARK    6  A    between atoms: C_6  and  C_7
REMARK    7  A    between atoms: C_7  and  O_8
REMARK    8  A    between atoms: O_8  and  C_9
REMARK    9  A    between atoms: C_12  and  N_13
REMARK   10  A    between atoms: N_22  and  C_23
REMARK                            x       y       z     vdW  Elec       q    Type
REMARK                         _______ _______ _______ _____ _____    ______ ____
ROOT
ATOM      1  N   UNL     1      -0.582  10.576  20.479  0.00  0.00    +0.000 N 
ATOM      2  C   UNL     1      -0.679  11.947  20.314  0.00  0.00    +0.000 A 
ATOM      3  N   UNL     1      -1.914  12.462  20.312  0.00  0.00    +0.000 NA
ATOM      4  C   UNL     1      -2.004  13.794  20.171  0.00  0.00    +0.000 A 
ATOM      5  C   UNL     1      -0.917  14.631  20.141  0.00  0.00    +0.000 A 
ATOM      6  C   UNL     1      -1.042  16.070  20.052  0.00  0.00    +0.000 A 
ATOM      7  C   UNL     1       0.060  16.814  20.154  0.00  0.00    +0.000 A 
ATOM      8  C   UNL     1       1.415  16.217  20.284  0.00  0.00    +0.000 A 
ATOM      9  O   UNL     1       2.352  17.002  20.381  0.00  0.00    +0.000 OA
ATOM     10  N   UNL     1       1.511  14.831  20.254  0.00  0.00    +0.000 N 
ATOM     11  C   UNL     1       0.327  14.020  20.200  0.00  0.00    +0.000 A 
ATOM     12  N   UNL     1       0.445  12.683  20.234  0.00  0.00    +0.000 NA
ATOM     13  H   UNL     1      -1.389  10.189  20.936  0.00  0.00    +0.000 HD
ENDROOT
BRANCH  10  14
ATOM     14  C   UNL     1       2.833  14.148  20.103  0.00  0.00    +0.000 C 
ATOM     15  C   UNL     1       3.184  13.967  18.610  0.00  0.00    +0.000 C 
ATOM     16  C   UNL     1       3.663  15.203  17.856  0.00  0.00    +0.000 C 
ATOM     17  C   UNL     1       5.151  15.493  18.011  0.00  0.00    +0.000 C 
ATOM     18  C   UNL     1       5.621  15.806  19.426  0.00  0.00    +0.000 C 
ATOM     19  C   UNL     1       5.376  14.694  20.444  0.00  0.00    +0.000 C 
ATOM     20  C   UNL     1       3.957  14.695  21.018  0.00  0.00    +0.000 C 
ENDBRANCH  10  14
BRANCH   1  24
ATOM     21  C   UNL     1       2.218   7.851  18.905  0.00  0.00    +0.000 A 
ATOM     22  C   UNL     1       1.654   8.857  18.113  0.00  0.00    +0.000 A 
ATOM     23  C   UNL     1       0.750   9.769  18.655  0.00  0.00    +0.000 A 
ATOM     24  C   UNL     1       0.391   9.698  19.999  0.00  0.00    +0.000 A 
ATOM     25  C   UNL     1       0.960   8.688  20.786  0.00  0.00    +0.000 A 
ATOM     26  C   UNL     1       1.873   7.777  20.251  0.00  0.00    +0.000 A 
BRANCH  21  27
ATOM     27  O   UNL     1       3.103   6.901  18.458  0.00  0.00    +0.000 OA
BRANCH  27  28
ATOM     28  C   UNL     1       3.382   5.882  19.421  0.00  0.00    +0.000 C 
BRANCH  28  29
ATOM     29  C   UNL     1       3.084   4.488  18.865  0.00  0.00    +0.000 C 
BRANCH  29  30
ATOM     30  N   UNL     1       1.677   4.076  19.067  0.00  0.00    +0.000 NA
BRANCH  30  32
ATOM     31  C   UNL     1       2.722   1.989  18.121  0.00  0.00    +0.000 C 
ATOM     32  C   UNL     1       1.449   2.768  18.433  0.00  0.00    +0.000 C 
ENDBRANCH  30  32
BRANCH  30  33
ATOM     33  C   UNL     1       1.215   4.159  20.463  0.00  0.00    +0.000 C 
ATOM     34  C   UNL     1       1.957   3.286  21.469  0.00  0.00    +0.000 C 
ENDBRANCH  30  33
ENDBRANCH  29  30
ENDBRANCH  28  29
ENDBRANCH  27  28
ENDBRANCH  21  27
ENDBRANCH   1  24
TORSDOF 8
ENDMDL
MODEL 6
REMARK VINA RESULT:      -7.3      4.282      8.117
REMARK  Name = 
REMARK  10 active torsions:
REMARK  status: ('A' for Active; 'I' for Inactive)
REMARK    1  A    between atoms: C_1  and  C_2
REMARK    2  A    between atoms: C_2  and  N_3
REMARK    3  A    between atoms: N_3  and  C_4
REMARK    4  A    between atoms: N_3  and  C_6
REMARK    5  A    between atoms: C_4  and  C_5
REMARK    6  A    between atoms: C_6  and  C_7
REMARK    7  A    between atoms: C_7  and  O_8
REMARK    8  A    between atoms: O_8  and  C_9
REMARK    9  A    between atoms: C_12  and  N_13
REMARK   10  A    between atoms: N_22  and  C_23
REMARK                            x       y       z     vdW  Elec       q    Type
REMARK                         _______ _______ _______ _____ _____    ______ ____
ROOT
ATOM      1  N   UNL     1       1.821   8.278  21.455  0.00  0.00    +0.000 N 
ATOM      2  C   UNL     1       0.789   9.140  21.784  0.00  0.00    +0.000 A 
ATOM      3  N   UNL     1       0.635   9.419  23.083  0.00  0.00    +0.000 NA
ATOM      4  C   UNL     1      -0.354  10.269  23.397  0.00  0.00    +0.000 A 
ATOM      5  C   UNL     1      -1.115  10.929  22.465  0.00  0.00    +0.000 A 
ATOM      6  C   UNL     1      -2.134  11.891  22.828  0.00  0.00    +0.000 A 
ATOM      7  C   UNL     1      -2.740  12.575  21.857  0.00  0.00    +0.000 A 
ATOM      8  C   UNL     1      -2.457  12.336  20.417  0.00  0.00    +0.000 A 
ATOM      9  O   UNL     1      -3.068  13.035  19.616  0.00  0.00    +0.000 OA
ATOM     10  N   UNL     1      -1.555  11.327  20.099  0.00  0.00    +0.000 N 
ATOM     11  C   UNL     1      -0.856  10.622  21.137  0.00  0.00    +0.000 A 
ATOM     12  N   UNL     1       0.055   9.695  20.802  0.00  0.00    +0.000 NA
ATOM     13  H   UNL     1       2.539   8.257  22.157  0.00  0.00    +0.000 HD
ENDROOT
BRANCH  10  14
ATOM     14  C   UNL     1      -1.411  10.829  18.697  0.00  0.00    +0.000 C 
ATOM     15  C   UNL     1      -2.272   9.565  18.478  0.00  0.00    +0.000 C 
ATOM     16  C   UNL     1      -3.775   9.770  18.320  0.00  0.00    +0.000 C 
ATOM     17  C   UNL     1      -4.213  10.125  16.905  0.00  0.00    +0.000 C 
ATOM     18  C   UNL     1      -3.675  11.440  16.355  0.00  0.00    +0.000 C 
ATOM     19  C   UNL     1      -2.152  11.527  16.279  0.00  0.00    +0.000 C 
ATOM     20  C   UNL     1      -1.498  11.925  17.605  0.00  0.00    +0.000 C 
ENDBRANCH  10  14
BRANCH   1  24
ATOM     21  C   UNL     1       2.259   5.497  18.322  0.00  0.00    +0.000 A 
ATOM     22  C   UNL     1       1.873   5.095  19.605  0.00  0.00    +0.000 A 
ATOM     23  C   UNL     1       1.706   6.030  20.624  0.00  0.00    +0.000 A 
ATOM     24  C   UNL     1       1.916   7.386  20.385  0.00  0.00    +0.000 A 
ATOM     25  C   UNL     1       2.302   7.781  19.097  0.00  0.00    +0.000 A 
ATOM     26  C   UNL     1       2.464   6.850  18.069  0.00  0.00    +0.000 A 
BRANCH  21  27
ATOM     27  O   UNL     1       2.463   4.650  17.260  0.00  0.00    +0.000 OA
BRANCH  27  28
ATOM     28  C   UNL     1       2.677   3.290  17.647  0.00  0.00    +0.000 C 
BRANCH  28  29
ATOM     29  C   UNL     1       4.150   2.896  17.523  0.00  0.00    +0.000 C 
BRANCH  29  30
ATOM     30  N   UNL     1       5.019   4.028  17.131  0.00  0.00    +0.000 NA
BRANCH  30  32
ATOM     31  C   UNL     1       6.286   5.916  18.214  0.00  0.00    +0.000 C 
ATOM     32  C   UNL     1       5.809   4.470  18.291  0.00  0.00    +0.000 C 
ENDBRANCH  30  32
BRANCH  30  33
ATOM     33  C   UNL     1       5.813   3.789  15.914  0.00  0.00    +0.000 C 
ATOM     34  C   UNL     1       5.596   4.770  14.767  0.00  0.00    +0.000 C 
ENDBRANCH  30  33
ENDBRANCH  29  30
ENDBRANCH  28  29
ENDBRANCH  27  28
ENDBRANCH  21  27
ENDBRANCH   1  24
TORSDOF 8
ENDMDL
MODEL 7
REMARK VINA RESULT:      -7.3      5.240      9.160
REMARK  Name = 
REMARK  10 active torsions:
REMARK  status: ('A' for Active; 'I' for Inactive)
REMARK    1  A    between atoms: C_1  and  C_2
REMARK    2  A    between atoms: C_2  and  N_3
REMARK    3  A    between atoms: N_3  and  C_4
REMARK    4  A    between atoms: N_3  and  C_6
REMARK    5  A    between atoms: C_4  and  C_5
REMARK    6  A    between atoms: C_6  and  C_7
REMARK    7  A    between atoms: C_7  and  O_8
REMARK    8  A    between atoms: O_8  and  C_9
REMARK    9  A    between atoms: C_12  and  N_13
REMARK   10  A    between atoms: N_22  and  C_23
REMARK                            x       y       z     vdW  Elec       q    Type
REMARK                         _______ _______ _______ _____ _____    ______ ____
ROOT
ATOM      1  N   UNL     1       0.266   9.302  21.776  0.00  0.00    +0.000 N 
ATOM      2  C   UNL     1      -0.178  10.581  22.063  0.00  0.00    +0.000 A 
ATOM      3  N   UNL     1      -1.247  10.677  22.862  0.00  0.00    +0.000 NA
ATOM      4  C   UNL     1      -1.664  11.919  23.154  0.00  0.00    +0.000 A 
ATOM      5  C   UNL     1      -0.996  13.055  22.772  0.00  0.00    +0.000 A 
ATOM      6  C   UNL     1      -1.430  14.382  23.154  0.00  0.00    +0.000 A 
ATOM      7  C   UNL     1      -0.655  15.421  22.844  0.00  0.00    +0.000 A 
ATOM      8  C   UNL     1       0.601  15.274  22.061  0.00  0.00    +0.000 A 
ATOM      9  O   UNL     1       1.236  16.300  21.847  0.00  0.00    +0.000 OA
ATOM     10  N   UNL     1       0.932  14.000  21.614  0.00  0.00    +0.000 N 
ATOM     11  C   UNL     1       0.133  12.866  21.989  0.00  0.00    +0.000 A 
ATOM     12  N   UNL     1       0.509  11.639  21.594  0.00  0.00    +0.000 NA
ATOM     13  H   UNL     1      -0.019   8.635  22.470  0.00  0.00    +0.000 HD
ENDROOT
BRANCH  10  14
ATOM     14  C   UNL     1       2.012  13.790  20.601  0.00  0.00    +0.000 C 
ATOM     15  C   UNL     1       1.468  14.010  19.172  0.00  0.00    +0.000 C 
ATOM     16  C   UNL     1       1.244  15.453  18.731  0.00  0.00    +0.000 C 
ATOM     17  C   UNL     1       2.492  16.143  18.196  0.00  0.00    +0.000 C 
ATOM     18  C   UNL     1       3.636  16.309  19.188  0.00  0.00    +0.000 C 
ATOM     19  C   UNL     1       4.181  15.003  19.762  0.00  0.00    +0.000 C 
ATOM     20  C   UNL     1       3.363  14.467  20.940  0.00  0.00    +0.000 C 
ENDBRANCH  10  14
BRANCH   1  24
ATOM     21  C   UNL     1       2.405   7.897  18.431  0.00  0.00    +0.000 A 
ATOM     22  C   UNL     1       2.351   7.165  19.622  0.00  0.00    +0.000 A 
ATOM     23  C   UNL     1       1.616   7.630  20.711  0.00  0.00    +0.000 A 
ATOM     24  C   UNL     1       0.917   8.832  20.634  0.00  0.00    +0.000 A 
ATOM     25  C   UNL     1       0.977   9.560  19.438  0.00  0.00    +0.000 A 
ATOM     26  C   UNL     1       1.705   9.095  18.340  0.00  0.00    +0.000 A 
BRANCH  21  27
ATOM     27  O   UNL     1       3.113   7.528  17.313  0.00  0.00    +0.000 OA
BRANCH  27  28
ATOM     28  C   UNL     1       4.439   7.078  17.598  0.00  0.00    +0.000 C 
BRANCH  28  29
ATOM     29  C   UNL     1       5.015   6.258  16.442  0.00  0.00    +0.000 C 
BRANCH  29  30
ATOM     30  N   UNL     1       5.197   4.829  16.783  0.00  0.00    +0.000 NA
BRANCH  30  32
ATOM     31  C   UNL     1       3.871   2.953  17.814  0.00  0.00    +0.000 C 
ATOM     32  C   UNL     1       3.883   4.180  16.909  0.00  0.00    +0.000 C 
ENDBRANCH  30  32
BRANCH  30  33
ATOM     33  C   UNL     1       6.143   4.114  15.909  0.00  0.00    +0.000 C 
ATOM     34  C   UNL     1       5.796   4.086  14.424  0.00  0.00    +0.000 C 
ENDBRANCH  30  33
ENDBRANCH  29  30
ENDBRANCH  28  29
ENDBRANCH  27  28
ENDBRANCH  21  27
ENDBRANCH   1  24
TORSDOF 8
ENDMDL
MODEL 8
REMARK VINA RESULT:      -7.2      5.348      9.021
REMARK  Name = 
REMARK  10 active torsions:
REMARK  status: ('A' for Active; 'I' for Inactive)
REMARK    1  A    between atoms: C_1  and  C_2
REMARK    2  A    between atoms: C_2  and  N_3
REMARK    3  A    between atoms: N_3  and  C_4
REMARK    4  A    between atoms: N_3  and  C_6
REMARK    5  A    between atoms: C_4  and  C_5
REMARK    6  A    between atoms: C_6  and  C_7
REMARK    7  A    between atoms: C_7  and  O_8
REMARK    8  A    between atoms: O_8  and  C_9
REMARK    9  A    between atoms: C_12  and  N_13
REMARK   10  A    between atoms: N_22  and  C_23
REMARK                            x       y       z     vdW  Elec       q    Type
REMARK                         _______ _______ _______ _____ _____    ______ ____
ROOT
ATOM      1  N   UNL     1       0.111   9.714  21.719  0.00  0.00    +0.000 N 
ATOM      2  C   UNL     1      -0.266  11.027  21.945  0.00  0.00    +0.000 A 
ATOM      3  N   UNL     1      -1.417  11.213  22.603  0.00  0.00    +0.000 NA
ATOM      4  C   UNL     1      -1.770  12.486  22.837  0.00  0.00    +0.000 A 
ATOM      5  C   UNL     1      -0.974  13.563  22.541  0.00  0.00    +0.000 A 
ATOM      6  C   UNL     1      -1.350  14.923  22.862  0.00  0.00    +0.000 A 
ATOM      7  C   UNL     1      -0.463  15.897  22.651  0.00  0.00    +0.000 A 
ATOM      8  C   UNL     1       0.865  15.646  22.033  0.00  0.00    +0.000 A 
ATOM      9  O   UNL     1       1.600  16.618  21.900  0.00  0.00    +0.000 OA
ATOM     10  N   UNL     1       1.151  14.345  21.634  0.00  0.00    +0.000 N 
ATOM     11  C   UNL     1       0.227  13.280  21.907  0.00  0.00    +0.000 A 
ATOM     12  N   UNL     1       0.554  12.024  21.565  0.00  0.00    +0.000 NA
ATOM     13  H   UNL     1      -0.311   9.078  22.373  0.00  0.00    +0.000 HD
ENDROOT
BRANCH  10  14
ATOM     14  C   UNL     1       2.331  14.042  20.766  0.00  0.00    +0.000 C 
ATOM     15  C   UNL     1       1.955  14.169  19.273  0.00  0.00    +0.000 C 
ATOM     16  C   UNL     1       1.821  15.580  18.710  0.00  0.00    +0.000 C 
ATOM     17  C   UNL     1       3.139  16.206  18.273  0.00  0.00    +0.000 C 
ATOM     18  C   UNL     1       4.169  16.421  19.374  0.00  0.00    +0.000 C 
ATOM     19  C   UNL     1       4.612  15.149  20.095  0.00  0.00    +0.000 C 
ATOM     20  C   UNL     1       3.654  14.715  21.207  0.00  0.00    +0.000 C 
ENDBRANCH  10  14
BRANCH   1  24
ATOM     21  C   UNL     1       2.210   8.087  18.450  0.00  0.00    +0.000 A 
ATOM     22  C   UNL     1       1.515   9.296  18.342  0.00  0.00    +0.000 A 
ATOM     23  C   UNL     1       0.848   9.836  19.440  0.00  0.00    +0.000 A 
ATOM     24  C   UNL     1       0.862   9.183  20.670  0.00  0.00    +0.000 A 
ATOM     25  C   UNL     1       1.560   7.971  20.771  0.00  0.00    +0.000 A 
ATOM     26  C   UNL     1       2.238   7.429  19.676  0.00  0.00    +0.000 A 
BRANCH  21  27
ATOM     27  O   UNL     1       2.882   7.470  17.422  0.00  0.00    +0.000 OA
BRANCH  27  28
ATOM     28  C   UNL     1       3.843   6.509  17.864  0.00  0.00    +0.000 C 
BRANCH  28  29
ATOM     29  C   UNL     1       5.059   6.465  16.937  0.00  0.00    +0.000 C 
BRANCH  29  30
ATOM     30  N   UNL     1       6.064   5.461  17.351  0.00  0.00    +0.000 NA
BRANCH  30  32
ATOM     31  C   UNL     1       5.736   4.911  14.915  0.00  0.00    +0.000 C 
ATOM     32  C   UNL     1       6.232   4.460  16.285  0.00  0.00    +0.000 C 
ENDBRANCH  30  32
BRANCH  30  33
ATOM     33  C   UNL     1       7.328   6.035  17.845  0.00  0.00    +0.000 C 
ATOM     34  C   UNL     1       7.559   7.510  17.539  0.00  0.00    +0.000 C 
ENDBRANCH  30  33
ENDBRANCH  29  30
ENDBRANCH  28  29
ENDBRANCH  27  28
ENDBRANCH  21  27
ENDBRANCH   1  24
TORSDOF 8
ENDMDL
MODEL 9
REMARK VINA RESULT:      -7.2      5.321     10.195
REMARK  Name = 
REMARK  10 active torsions:
REMARK  status: ('A' for Active; 'I' for Inactive)
REMARK    1  A    between atoms: C_1  and  C_2
REMARK    2  A    between atoms: C_2  and  N_3
REMARK    3  A    between atoms: N_3  and  C_4
REMARK    4  A    between atoms: N_3  and  C_6
REMARK    5  A    between atoms: C_4  and  C_5
REMARK    6  A    between atoms: C_6  and  C_7
REMARK    7  A    between atoms: C_7  and  O_8
REMARK    8  A    between atoms: O_8  and  C_9
REMARK    9  A    between atoms: C_12  and  N_13
REMARK   10  A    between atoms: N_22  and  C_23
REMARK                            x       y       z     vdW  Elec       q    Type
REMARK                         _______ _______ _______ _____ _____    ______ ____
ROOT
ATOM      1  N   UNL     1      -0.558  10.475  20.475  0.00  0.00    +0.000 N 
ATOM      2  C   UNL     1      -0.732  11.846  20.393  0.00  0.00    +0.000 A 
ATOM      3  N   UNL     1      -1.989  12.295  20.494  0.00  0.00    +0.000 NA
ATOM      4  C   UNL     1      -2.152  13.626  20.432  0.00  0.00    +0.000 A 
ATOM      5  C   UNL     1      -1.112  14.519  20.385  0.00  0.00    +0.000 A 
ATOM      6  C   UNL     1      -1.312  15.952  20.384  0.00  0.00    +0.000 A 
ATOM      7  C   UNL     1      -0.244  16.747  20.462  0.00  0.00    +0.000 A 
ATOM      8  C   UNL     1       1.145  16.216  20.478  0.00  0.00    +0.000 A 
ATOM      9  O   UNL     1       2.046  17.043  20.563  0.00  0.00    +0.000 OA
ATOM     10  N   UNL     1       1.306  14.840  20.365  0.00  0.00    +0.000 N 
ATOM     11  C   UNL     1       0.162  13.972  20.336  0.00  0.00    +0.000 A 
ATOM     12  N   UNL     1       0.347  12.643  20.288  0.00  0.00    +0.000 NA
ATOM     13  H   UNL     1      -1.315  10.023  20.956  0.00  0.00    +0.000 HD
ENDROOT
BRANCH  10  14
ATOM     14  C   UNL     1       2.648  14.236  20.097  0.00  0.00    +0.000 C 
ATOM     15  C   UNL     1       2.888  14.095  18.578  0.00  0.00    +0.000 C 
ATOM     16  C   UNL     1       3.235  15.367  17.811  0.00  0.00    +0.000 C 
ATOM     17  C   UNL     1       4.711  15.740  17.853  0.00  0.00    +0.000 C 
ATOM     18  C   UNL     1       5.275  16.060  19.232  0.00  0.00    +0.000 C 
ATOM     19  C   UNL     1       5.175  14.923  20.245  0.00  0.00    +0.000 C 
ATOM     20  C   UNL     1       3.809  14.835  20.930  0.00  0.00    +0.000 C 
ENDBRANCH  10  14
BRANCH   1  24
ATOM     21  C   UNL     1       2.269   7.987  18.588  0.00  0.00    +0.000 A 
ATOM     22  C   UNL     1       1.604   8.999  17.887  0.00  0.00    +0.000 A 
ATOM     23  C   UNL     1       0.691   9.831  18.531  0.00  0.00    +0.000 A 
ATOM     24  C   UNL     1       0.425   9.676  19.890  0.00  0.00    +0.000 A 
ATOM     25  C   UNL     1       1.095   8.661  20.586  0.00  0.00    +0.000 A 
ATOM     26  C   UNL     1       2.017   7.828  19.947  0.00  0.00    +0.000 A 
BRANCH  21  27
ATOM     27  O   UNL     1       3.171   7.110  18.037  0.00  0.00    +0.000 OA
BRANCH  27  28
ATOM     28  C   UNL     1       3.282   5.879  18.755  0.00  0.00    +0.000 C 
BRANCH  28  29
ATOM     29  C   UNL     1       2.251   4.854  18.276  0.00  0.00    +0.000 C 
BRANCH  29  30
ATOM     30  N   UNL     1       2.226   3.630  19.108  0.00  0.00    +0.000 NA
BRANCH  30  32
ATOM     31  C   UNL     1       1.336   2.797  21.312  0.00  0.00    +0.000 C 
ATOM     32  C   UNL     1       1.176   3.749  20.131  0.00  0.00    +0.000 C 
ENDBRANCH  30  32
BRANCH  30  33
ATOM     33  C   UNL     1       2.179   2.375  18.337  0.00  0.00    +0.000 C 
ATOM     34  C   UNL     1       3.455   1.540  18.337  0.00  0.00    +0.000 C 
ENDBRANCH  30  33
ENDBRANCH  29  30
ENDBRANCH  28  29
ENDBRANCH  27  28
ENDBRANCH  21  27
ENDBRANCH   1  24
TORSDOF 8
ENDMDL
