MODEL 1
REMARK VINA RESULT:      -7.0      0.000      0.000
REMARK  Name = 
REMARK  10 active torsions:
REMARK  status: ('A' for Active; 'I' for Inactive)
REMARK    1  A    between atoms: C_1  and  C_2
REMARK    2  A    between atoms: C_2  and  N_3
REMARK    3  A    between atoms: C_5  and  C_6
REMARK    4  A    between atoms: C_9  and  C_10
REMARK    5  A    between atoms: C_10  and  C_11
REMARK    6  A    between atoms: C_10  and  C_12
REMARK    7  A    between atoms: N_15  and  C_16
REMARK    8  A    between atoms: C_16  and  C_17
REMARK    9  A    between atoms: C_17  and  C_18
REMARK   10  A    between atoms: C_18  and  N_19
REMARK                            x       y       z     vdW  Elec       q    Type
REMARK                         _______ _______ _______ _____ _____    ______ ____
ROOT
ATOM      1  N   UNL     1       2.479   3.722  19.728  0.00  0.00    +0.000 N 
ATOM      2  N   UNL     1       2.697   2.393  19.611  0.00  0.00    +0.000 NA
ATOM      3  C   UNL     1       3.557   2.297  18.588  0.00  0.00    +0.000 A 
ATOM      4  C   UNL     1       4.042   0.970  18.147  0.00  0.00    +0.000 C 
ATOM      5  C   UNL     1       3.875   3.569  18.057  0.00  0.00    +0.000 A 
ATOM      6  N   UNL     1       4.716   3.925  17.060  0.00  0.00    +0.000 NA
ATOM      7  C   UNL     1       4.730   5.241  16.810  0.00  0.00    +0.000 A 
ATOM      8  N   UNL     1       3.942   6.166  17.407  0.00  0.00    +0.000 NA
ATOM      9  C   UNL     1       3.102   5.816  18.406  0.00  0.00    +0.000 A 
ATOM     10  N   UNL     1       2.290   6.775  18.972  0.00  0.00    +0.000 N 
ATOM     11  C   UNL     1       3.103   4.474  18.771  0.00  0.00    +0.000 A 
ATOM     12  H   UNL     1       1.841   6.602  19.856  0.00  0.00    +0.000 HD
ENDROOT
BRANCH   7  13
ATOM     13  C   UNL     1       5.727   5.778  15.807  0.00  0.00    +0.000 C 
ATOM     14  C   UNL     1       7.069   6.086  16.472  0.00  0.00    +0.000 C 
ATOM     15  C   UNL     1       5.898   4.826  14.627  0.00  0.00    +0.000 C 
ENDBRANCH   7  13
BRANCH   1  17
ATOM     16  C   UNL     1       1.287   3.025  21.779  0.00  0.00    +0.000 C 
ATOM     17  C   UNL     1       1.712   4.168  20.876  0.00  0.00    +0.000 C 
ENDBRANCH   1  17
BRANCH  10  18
ATOM     18  C   UNL     1       2.260   8.130  18.452  0.00  0.00    +0.000 C 
BRANCH  18  19
ATOM     19  C   UNL     1       1.376   9.035  19.312  0.00  0.00    +0.000 C 
BRANCH  19  20
ATOM     20  C   UNL     1       1.224   8.505  20.736  0.00  0.00    +0.000 C 
BRANCH  20  21
ATOM     21  N   UNL     1       0.480   9.414  21.584  0.00  0.00    +0.000 N 
ATOM     22  C   UNL     1      -0.260  10.486  21.173  0.00  0.00    +0.000 A 
ATOM     23  C   UNL     1      -0.747  11.043  22.333  0.00  0.00    +0.000 A 
ATOM     24  N   UNL     1      -0.313  10.346  23.429  0.00  0.00    +0.000 NA
ATOM     25  C   UNL     1       0.426   9.369  22.948  0.00  0.00    +0.000 A 
ENDBRANCH  20  21
ENDBRANCH  19  20
ENDBRANCH  18  19
ENDBRANCH  10  18
TORSDOF 6
ENDMDL
MODEL 2
REMARK VINA RESULT:      -6.8      4.190      6.588
REMARK  Name = 
REMARK  10 active torsions:
REMARK  status: ('A' for Active; 'I' for Inactive)
REMARK    1  A    between atoms: C_1  and  C_2
REMARK    2  A    between atoms: C_2  and  N_3
REMARK    3  A    between atoms: C_5  and  C_6
REMARK    4  A    between atoms: C_9  and  C_10
REMARK    5  A    between atoms: C_10  and  C_11
REMARK    6  A    between atoms: C_10  and  C_12
REMARK    7  A    between atoms: N_15  and  C_16
REMARK    8  A    between atoms: C_16  and  C_17
REMARK    9  A    between atoms: C_17  and  C_18
REMARK   10  A    between atoms: C_18  and  N_19
REMARK                            x       y       z     vdW  Elec       q    Type
REMARK                         _______ _______ _______ _____ _____    ______ ____
ROOT
ATOM      1  N   UNL     1       5.867   3.929  13.336  0.00  0.00    +0.000 N 
ATOM      2  N   UNL     1       6.789   4.414  12.474  0.00  0.00    +0.000 NA
ATOM      3  C   UNL     1       7.600   5.146  13.249  0.00  0.00    +0.000 A 
ATOM      4  C   UNL     1       8.757   5.853  12.655  0.00  0.00    +0.000 C 
ATOM      5  C   UNL     1       7.183   5.127  14.601  0.00  0.00    +0.000 A 
ATOM      6  N   UNL     1       7.726   5.692  15.701  0.00  0.00    +0.000 NA
ATOM      7  C   UNL     1       7.020   5.484  16.820  0.00  0.00    +0.000 A 
ATOM      8  N   UNL     1       5.827   4.848  16.894  0.00  0.00    +0.000 NA
ATOM      9  C   UNL     1       5.281   4.278  15.797  0.00  0.00    +0.000 A 
ATOM     10  N   UNL     1       4.051   3.665  15.897  0.00  0.00    +0.000 N 
ATOM     11  C   UNL     1       6.010   4.387  14.617  0.00  0.00    +0.000 A 
ATOM     12  H   UNL     1       3.736   3.039  15.175  0.00  0.00    +0.000 HD
ENDROOT
BRANCH   7  13
ATOM     13  C   UNL     1       7.595   5.955  18.138  0.00  0.00    +0.000 C 
ATOM     14  C   UNL     1       7.868   7.459  18.116  0.00  0.00    +0.000 C 
ATOM     15  C   UNL     1       6.694   5.572  19.308  0.00  0.00    +0.000 C 
ENDBRANCH   7  13
BRANCH   1  17
ATOM     16  C   UNL     1       4.398   3.303  11.449  0.00  0.00    +0.000 C 
ATOM     17  C   UNL     1       4.934   2.945  12.822  0.00  0.00    +0.000 C 
ENDBRANCH   1  17
BRANCH  10  18
ATOM     18  C   UNL     1       3.297   3.700  17.138  0.00  0.00    +0.000 C 
BRANCH  18  19
ATOM     19  C   UNL     1       2.666   2.341  17.443  0.00  0.00    +0.000 C 
BRANCH  19  20
ATOM     20  C   UNL     1       3.255   1.704  18.700  0.00  0.00    +0.000 C 
BRANCH  20  21
ATOM     21  N   UNL     1       2.652   2.220  19.912  0.00  0.00    +0.000 N 
ATOM     22  C   UNL     1       1.337   2.547  20.088  0.00  0.00    +0.000 A 
ATOM     23  C   UNL     1       1.261   3.009  21.382  0.00  0.00    +0.000 A 
ATOM     24  N   UNL     1       2.491   2.981  21.984  0.00  0.00    +0.000 NA
ATOM     25  C   UNL     1       3.311   2.501  21.074  0.00  0.00    +0.000 A 
ENDBRANCH  20  21
ENDBRANCH  19  20
ENDBRANCH  18  19
ENDBRANCH  10  18
TORSDOF 6
ENDMDL
MODEL 3
REMARK VINA RESULT:      -6.7      1.843      6.933
REMARK  Name = 
REMARK  10 active torsions:
REMARK  status: ('A' for Active; 'I' for Inactive)
REMARK    1  A    between atoms: C_1  and  C_2
REMARK    2  A    between atoms: C_2  and  N_3
REMARK    3  A    between atoms: C_5  and  C_6
REMARK    4  A    between atoms: C_9  and  C_10
REMARK    5  A    between atoms: C_10  and  C_11
REMARK    6  A    between atoms: C_10  and  C_12
REMARK    7  A    between atoms: N_15  and  C_16
REMARK    8  A    between atoms: C_16  and  C_17
REMARK    9  A    between atoms: C_17  and  C_18
REMARK   10  A    between atoms: C_18  and  N_19
REMARK                            x       y       z     vdW  Elec       q    Type
REMARK                         _______ _______ _______ _____ _____    ______ ____
ROOT
ATOM      1  N   UNL     1       2.154   8.216  18.904  0.00  0.00    +0.000 N 
ATOM      2  N   UNL     1       1.290   8.824  19.748  0.00  0.00    +0.000 NA
ATOM      3  C   UNL     1       1.032   7.889  20.672  0.00  0.00    +0.000 A 
ATOM      4  C   UNL     1       0.107   8.184  21.790  0.00  0.00    +0.000 C 
ATOM      5  C   UNL     1       1.731   6.689  20.405  0.00  0.00    +0.000 A 
ATOM      6  N   UNL     1       1.784   5.526  21.092  0.00  0.00    +0.000 NA
ATOM      7  C   UNL     1       2.534   4.585  20.503  0.00  0.00    +0.000 A 
ATOM      8  N   UNL     1       3.138   4.698  19.297  0.00  0.00    +0.000 NA
ATOM      9  C   UNL     1       3.091   5.859  18.608  0.00  0.00    +0.000 A 
ATOM     10  N   UNL     1       3.689   5.933  17.369  0.00  0.00    +0.000 N 
ATOM     11  C   UNL     1       2.396   6.905  19.207  0.00  0.00    +0.000 A 
ATOM     12  H   UNL     1       3.875   6.828  16.948  0.00  0.00    +0.000 HD
ENDROOT
BRANCH   7  13
ATOM     13  C   UNL     1       2.777   3.286  21.240  0.00  0.00    +0.000 C 
ATOM     14  C   UNL     1       1.460   2.597  21.596  0.00  0.00    +0.000 C 
ATOM     15  C   UNL     1       3.693   2.359  20.448  0.00  0.00    +0.000 C 
ENDBRANCH   7  13
BRANCH   1  17
ATOM     16  C   UNL     1       2.213  10.452  17.851  0.00  0.00    +0.000 C 
ATOM     17  C   UNL     1       2.762   9.038  17.875  0.00  0.00    +0.000 C 
ENDBRANCH   1  17
BRANCH  10  18
ATOM     18  C   UNL     1       4.290   4.761  16.758  0.00  0.00    +0.000 C 
BRANCH  18  19
ATOM     19  C   UNL     1       5.229   5.150  15.616  0.00  0.00    +0.000 C 
BRANCH  19  20
ATOM     20  C   UNL     1       6.671   4.724  15.887  0.00  0.00    +0.000 C 
BRANCH  20  21
ATOM     21  N   UNL     1       7.200   5.314  17.099  0.00  0.00    +0.000 N 
ATOM     22  C   UNL     1       7.339   6.648  17.358  0.00  0.00    +0.000 A 
ATOM     23  C   UNL     1       7.904   6.706  18.612  0.00  0.00    +0.000 A 
ATOM     24  N   UNL     1       8.119   5.448  19.108  0.00  0.00    +0.000 NA
ATOM     25  C   UNL     1       7.686   4.628  18.175  0.00  0.00    +0.000 A 
ENDBRANCH  20  21
ENDBRANCH  19  20
ENDBRANCH  18  19
ENDBRANCH  10  18
TORSDOF 6
ENDMDL
MODEL 4
REMARK VINA RESULT:      -6.7      1.883      6.167
REMARK  Name = 
REMARK  10 active torsions:
REMARK  status: ('A' for Active; 'I' for Inactive)
REMARK    1  A    between atoms: C_1  and  C_2
REMARK    2  A    between atoms: C_2  and  N_3
REMARK    3  A    between atoms: C_5  and  C_6
REMARK    4  A    between atoms: C_9  and  C_10
REMARK    5  A    between atoms: C_10  and  C_11
REMARK    6  A    between atoms: C_10  and  C_12
REMARK    7  A    between atoms: N_15  and  C_16
REMARK    8  A    between atoms: C_16  and  C_17
REMARK    9  A    between atoms: C_17  and  C_18
REMARK   10  A    between atoms: C_18  and  N_19
REMARK                            x       y       z     vdW  Elec       q    Type
REMARK                         _______ _______ _______ _____ _____    ______ ____
ROOT
ATOM      1  N   UNL     1       2.782   3.118  18.889  0.00  0.00    +0.000 N 
ATOM      2  N   UNL     1       2.320   2.381  19.925  0.00  0.00    +0.000 NA
ATOM      3  C   UNL     1       1.852   3.296  20.785  0.00  0.00    +0.000 A 
ATOM      4  C   UNL     1       1.254   2.870  22.070  0.00  0.00    +0.000 C 
ATOM      5  C   UNL     1       2.026   4.610  20.291  0.00  0.00    +0.000 A 
ATOM      6  N   UNL     1       1.670   5.805  20.813  0.00  0.00    +0.000 NA
ATOM      7  C   UNL     1       2.039   6.852  20.065  0.00  0.00    +0.000 A 
ATOM      8  N   UNL     1       2.771   6.792  18.928  0.00  0.00    +0.000 NA
ATOM      9  C   UNL     1       3.127   5.600  18.400  0.00  0.00    +0.000 A 
ATOM     10  N   UNL     1       3.899   5.571  17.259  0.00  0.00    +0.000 N 
ATOM     11  C   UNL     1       2.701   4.468  19.087  0.00  0.00    +0.000 A 
ATOM     12  H   UNL     1       3.977   4.725  16.720  0.00  0.00    +0.000 HD
ENDROOT
BRANCH   7  13
ATOM     13  C   UNL     1       1.582   8.235  20.478  0.00  0.00    +0.000 C 
ATOM     14  C   UNL     1       1.349   9.127  19.258  0.00  0.00    +0.000 C 
ATOM     15  C   UNL     1       0.342   8.171  21.364  0.00  0.00    +0.000 C 
ENDBRANCH   7  13
BRANCH   1  17
ATOM     16  C   UNL     1       3.915   1.097  18.025  0.00  0.00    +0.000 C 
ATOM     17  C   UNL     1       3.202   2.398  17.702  0.00  0.00    +0.000 C 
ENDBRANCH   1  17
BRANCH  10  18
ATOM     18  C   UNL     1       4.408   6.797  16.670  0.00  0.00    +0.000 C 
BRANCH  18  19
ATOM     19  C   UNL     1       5.347   6.502  15.499  0.00  0.00    +0.000 C 
BRANCH  19  20
ATOM     20  C   UNL     1       6.382   5.435  15.847  0.00  0.00    +0.000 C 
BRANCH  20  21
ATOM     21  N   UNL     1       7.046   5.702  17.107  0.00  0.00    +0.000 N 
ATOM     22  C   UNL     1       7.516   6.912  17.535  0.00  0.00    +0.000 A 
ATOM     23  C   UNL     1       8.081   6.654  18.764  0.00  0.00    +0.000 A 
ATOM     24  N   UNL     1       7.975   5.326  19.080  0.00  0.00    +0.000 NA
ATOM     25  C   UNL     1       7.348   4.776  18.063  0.00  0.00    +0.000 A 
ENDBRANCH  20  21
ENDBRANCH  19  20
ENDBRANCH  18  19
ENDBRANCH  10  18
TORSDOF 6
ENDMDL
MODEL 5
REMARK VINA RESULT:      -6.6      1.625      1.994
REMARK  Name = 
REMARK  10 active torsions:
REMARK  status: ('A' for Active; 'I' for Inactive)
REMARK    1  A    between atoms: C_1  and  C_2
REMARK    2  A    between atoms: C_2  and  N_3
REMARK    3  A    between atoms: C_5  and  C_6
REMARK    4  A    between atoms: C_9  and  C_10
REMARK    5  A    between atoms: C_10  and  C_11
REMARK    6  A    between atoms: C_10  and  C_12
REMARK    7  A    between atoms: N_15  and  C_16
REMARK    8  A    between atoms: C_16  and  C_17
REMARK    9  A    between atoms: C_17  and  C_18
REMARK   10  A    between atoms: C_18  and  N_19
REMARK                            x       y       z     vdW  Elec       q    Type
REMARK                         _______ _______ _______ _____ _____    ______ ____
ROOT
ATOM      1  N   UNL     1       2.296   3.938  19.231  0.00  0.00    +0.000 N 
ATOM      2  N   UNL     1       2.469   2.601  19.126  0.00  0.00    +0.000 NA
ATOM      3  C   UNL     1       3.519   2.477  18.303  0.00  0.00    +0.000 A 
ATOM      4  C   UNL     1       4.022   1.133  17.937  0.00  0.00    +0.000 C 
ATOM      5  C   UNL     1       4.003   3.739  17.886  0.00  0.00    +0.000 A 
ATOM      6  N   UNL     1       5.050   4.066  17.097  0.00  0.00    +0.000 NA
ATOM      7  C   UNL     1       5.180   5.384  16.891  0.00  0.00    +0.000 A 
ATOM      8  N   UNL     1       4.330   6.339  17.335  0.00  0.00    +0.000 NA
ATOM      9  C   UNL     1       3.283   6.017  18.127  0.00  0.00    +0.000 A 
ATOM     10  N   UNL     1       2.418   7.008  18.537  0.00  0.00    +0.000 N 
ATOM     11  C   UNL     1       3.142   4.671  18.447  0.00  0.00    +0.000 A 
ATOM     12  H   UNL     1       1.785   6.845  19.302  0.00  0.00    +0.000 HD
ENDROOT
BRANCH   7  13
ATOM     13  C   UNL     1       6.391   5.883  16.134  0.00  0.00    +0.000 C 
ATOM     14  C   UNL     1       7.374   6.590  17.068  0.00  0.00    +0.000 C 
ATOM     15  C   UNL     1       7.070   4.757  15.362  0.00  0.00    +0.000 C 
ENDBRANCH   7  13
BRANCH   1  17
ATOM     16  C   UNL     1       1.213   3.485  21.408  0.00  0.00    +0.000 C 
ATOM     17  C   UNL     1       1.327   4.404  20.205  0.00  0.00    +0.000 C 
ENDBRANCH   1  17
BRANCH  10  18
ATOM     18  C   UNL     1       2.563   8.372  18.060  0.00  0.00    +0.000 C 
BRANCH  18  19
ATOM     19  C   UNL     1       1.204   9.061  17.927  0.00  0.00    +0.000 C 
BRANCH  19  20
ATOM     20  C   UNL     1       0.784   9.757  19.220  0.00  0.00    +0.000 C 
BRANCH  20  21
ATOM     21  N   UNL     1      -0.417  10.549  19.054  0.00  0.00    +0.000 N 
ATOM     22  C   UNL     1      -0.790  11.625  19.809  0.00  0.00    +0.000 A 
ATOM     23  C   UNL     1      -2.002  12.017  19.288  0.00  0.00    +0.000 A 
ATOM     24  N   UNL     1      -2.373  11.203  18.251  0.00  0.00    +0.000 NA
ATOM     25  C   UNL     1      -1.399  10.326  18.133  0.00  0.00    +0.000 A 
ENDBRANCH  20  21
ENDBRANCH  19  20
ENDBRANCH  18  19
ENDBRANCH  10  18
TORSDOF 6
ENDMDL
MODEL 6
REMARK VINA RESULT:      -6.6      1.112      1.465
REMARK  Name = 
REMARK  10 active torsions:
REMARK  status: ('A' for Active; 'I' for Inactive)
REMARK    1  A    between atoms: C_1  and  C_2
REMARK    2  A    between atoms: C_2  and  N_3
REMARK    3  A    between atoms: C_5  and  C_6
REMARK    4  A    between atoms: C_9  and  C_10
REMARK    5  A    between atoms: C_10  and  C_11
REMARK    6  A    between atoms: C_10  and  C_12
REMARK    7  A    between atoms: N_15  and  C_16
REMARK    8  A    between atoms: C_16  and  C_17
REMARK    9  A    between atoms: C_17  and  C_18
REMARK   10  A    between atoms: C_18  and  N_19
REMARK                            x       y       z     vdW  Elec       q    Type
REMARK                         _______ _______ _______ _____ _____    ______ ____
ROOT
ATOM      1  N   UNL     1       2.930   4.058  19.713  0.00  0.00    +0.000 N 
ATOM      2  N   UNL     1       3.007   2.710  19.791  0.00  0.00    +0.000 NA
ATOM      3  C   UNL     1       3.720   2.367  18.709  0.00  0.00    +0.000 A 
ATOM      4  C   UNL     1       4.021   0.943  18.439  0.00  0.00    +0.000 C 
ATOM      5  C   UNL     1       4.087   3.501  17.948  0.00  0.00    +0.000 A 
ATOM      6  N   UNL     1       4.825   3.607  16.821  0.00  0.00    +0.000 NA
ATOM      7  C   UNL     1       4.930   4.861  16.361  0.00  0.00    +0.000 A 
ATOM      8  N   UNL     1       4.312   5.947  16.881  0.00  0.00    +0.000 NA
ATOM      9  C   UNL     1       3.574   5.847  18.010  0.00  0.00    +0.000 A 
ATOM     10  N   UNL     1       2.932   6.964  18.497  0.00  0.00    +0.000 N 
ATOM     11  C   UNL     1       3.496   4.583  18.585  0.00  0.00    +0.000 A 
ATOM     12  H   UNL     1       2.582   6.977  19.440  0.00  0.00    +0.000 HD
ENDROOT
BRANCH   7  13
ATOM     13  C   UNL     1       5.840   5.126  15.181  0.00  0.00    +0.000 C 
ATOM     14  C   UNL     1       7.310   5.104  15.601  0.00  0.00    +0.000 C 
ATOM     15  C   UNL     1       5.574   4.150  14.040  0.00  0.00    +0.000 C 
ENDBRANCH   7  13
BRANCH   1  17
ATOM     16  C   UNL     1       0.897   5.114  20.644  0.00  0.00    +0.000 C 
ATOM     17  C   UNL     1       2.357   4.753  20.850  0.00  0.00    +0.000 C 
ENDBRANCH   1  17
BRANCH  10  18
ATOM     18  C   UNL     1       2.963   8.221  17.771  0.00  0.00    +0.000 C 
BRANCH  18  19
ATOM     19  C   UNL     1       1.579   8.871  17.726  0.00  0.00    +0.000 C 
BRANCH  19  20
ATOM     20  C   UNL     1       1.552  10.213  18.454  0.00  0.00    +0.000 C 
BRANCH  20  21
ATOM     21  N   UNL     1       0.809  10.151  19.696  0.00  0.00    +0.000 N 
ATOM     22  C   UNL     1       0.799   9.112  20.583  0.00  0.00    +0.000 A 
ATOM     23  C   UNL     1      -0.065   9.509  21.579  0.00  0.00    +0.000 A 
ATOM     24  N   UNL     1      -0.582  10.749  21.311  0.00  0.00    +0.000 NA
ATOM     25  C   UNL     1      -0.038  11.111  20.168  0.00  0.00    +0.000 A 
ENDBRANCH  20  21
ENDBRANCH  19  20
ENDBRANCH  18  19
ENDBRANCH  10  18
TORSDOF 6
ENDMDL
MODEL 7
REMARK VINA RESULT:      -6.6      1.941      2.200
REMARK  Name = 
REMARK  10 active torsions:
REMARK  status: ('A' for Active; 'I' for Inactive)
REMARK    1  A    between atoms: C_1  and  C_2
REMARK    2  A    between atoms: C_2  and  N_3
REMARK    3  A    between atoms: C_5  and  C_6
REMARK    4  A    between atoms: C_9  and  C_10
REMARK    5  A    between atoms: C_10  and  C_11
REMARK    6  A    between atoms: C_10  and  C_12
REMARK    7  A    between atoms: N_15  and  C_16
REMARK    8  A    between atoms: C_16  and  C_17
REMARK    9  A    between atoms: C_17  and  C_18
REMARK   10  A    between atoms: C_18  and  N_19
REMARK                            x       y       z     vdW  Elec       q    Type
REMARK                         _______ _______ _______ _____ _____    ______ ____
ROOT
ATOM      1  N   UNL     1       2.907   4.058  19.725  0.00  0.00    +0.000 N 
ATOM      2  N   UNL     1       2.983   2.710  19.793  0.00  0.00    +0.000 NA
ATOM      3  C   UNL     1       3.699   2.374  18.712  0.00  0.00    +0.000 A 
ATOM      4  C   UNL     1       4.000   0.951  18.434  0.00  0.00    +0.000 C 
ATOM      5  C   UNL     1       4.069   3.513  17.960  0.00  0.00    +0.000 A 
ATOM      6  N   UNL     1       4.812   3.627  16.836  0.00  0.00    +0.000 NA
ATOM      7  C   UNL     1       4.919   4.883  16.385  0.00  0.00    +0.000 A 
ATOM      8  N   UNL     1       4.300   5.966  16.911  0.00  0.00    +0.000 NA
ATOM      9  C   UNL     1       3.559   5.859  18.036  0.00  0.00    +0.000 A 
ATOM     10  N   UNL     1       2.915   6.973  18.529  0.00  0.00    +0.000 N 
ATOM     11  C   UNL     1       3.478   4.591  18.602  0.00  0.00    +0.000 A 
ATOM     12  H   UNL     1       2.563   6.980  19.471  0.00  0.00    +0.000 HD
ENDROOT
BRANCH   7  13
ATOM     13  C   UNL     1       5.833   5.156  15.211  0.00  0.00    +0.000 C 
ATOM     14  C   UNL     1       7.301   5.149  15.640  0.00  0.00    +0.000 C 
ATOM     15  C   UNL     1       5.584   4.175  14.070  0.00  0.00    +0.000 C 
ENDBRANCH   7  13
BRANCH   1  17
ATOM     16  C   UNL     1       0.877   5.126  20.649  0.00  0.00    +0.000 C 
ATOM     17  C   UNL     1       2.331   4.747  20.865  0.00  0.00    +0.000 C 
ENDBRANCH   1  17
BRANCH  10  18
ATOM     18  C   UNL     1       2.950   8.235  17.812  0.00  0.00    +0.000 C 
BRANCH  18  19
ATOM     19  C   UNL     1       1.551   8.840  17.685  0.00  0.00    +0.000 C 
BRANCH  19  20
ATOM     20  C   UNL     1       1.171   9.669  18.911  0.00  0.00    +0.000 C 
BRANCH  20  21
ATOM     21  N   UNL     1       0.124  10.628  18.623  0.00  0.00    +0.000 N 
ATOM     22  C   UNL     1      -1.116  10.349  18.122  0.00  0.00    +0.000 A 
ATOM     23  C   UNL     1      -1.730  11.575  18.000  0.00  0.00    +0.000 A 
ATOM     24  N   UNL     1      -0.892  12.581  18.402  0.00  0.00    +0.000 NA
ATOM     25  C   UNL     1       0.219  11.981  18.771  0.00  0.00    +0.000 A 
ENDBRANCH  20  21
ENDBRANCH  19  20
ENDBRANCH  18  19
ENDBRANCH  10  18
TORSDOF 6
ENDMDL
MODEL 8
REMARK VINA RESULT:      -6.6      1.772      2.125
REMARK  Name = 
REMARK  10 active torsions:
REMARK  status: ('A' for Active; 'I' for Inactive)
REMARK    1  A    between atoms: C_1  and  C_2
REMARK    2  A    between atoms: C_2  and  N_3
REMARK    3  A    between atoms: C_5  and  C_6
REMARK    4  A    between atoms: C_9  and  C_10
REMARK    5  A    between atoms: C_10  and  C_11
REMARK    6  A    between atoms: C_10  and  C_12
REMARK    7  A    between atoms: N_15  and  C_16
REMARK    8  A    between atoms: C_16  and  C_17
REMARK    9  A    between atoms: C_17  and  C_18
REMARK   10  A    between atoms: C_18  and  N_19
REMARK                            x       y       z     vdW  Elec       q    Type
REMARK                         _______ _______ _______ _____ _____    ______ ____
ROOT
ATOM      1  N   UNL     1       2.617   3.855  19.881  0.00  0.00    +0.000 N 
ATOM      2  N   UNL     1       2.948   2.586  20.208  0.00  0.00    +0.000 NA
ATOM      3  C   UNL     1       4.252   2.506  19.908  0.00  0.00    +0.000 A 
ATOM      4  C   UNL     1       4.990   1.242  20.130  0.00  0.00    +0.000 C 
ATOM      5  C   UNL     1       4.739   3.727  19.385  0.00  0.00    +0.000 A 
ATOM      6  N   UNL     1       5.982   4.087  18.994  0.00  0.00    +0.000 NA
ATOM      7  C   UNL     1       6.055   5.334  18.511  0.00  0.00    +0.000 A 
ATOM      8  N   UNL     1       5.008   6.173  18.329  0.00  0.00    +0.000 NA
ATOM      9  C   UNL     1       3.765   5.820  18.722  0.00  0.00    +0.000 A 
ATOM     10  N   UNL     1       2.715   6.682  18.495  0.00  0.00    +0.000 N 
ATOM     11  C   UNL     1       3.637   4.566  19.310  0.00  0.00    +0.000 A 
ATOM     12  H   UNL     1       1.841   6.557  18.978  0.00  0.00    +0.000 HD
ENDROOT
BRANCH   7  13
ATOM     13  C   UNL     1       7.416   5.898  18.164  0.00  0.00    +0.000 C 
ATOM     14  C   UNL     1       7.291   7.248  17.457  0.00  0.00    +0.000 C 
ATOM     15  C   UNL     1       8.310   5.997  19.396  0.00  0.00    +0.000 C 
ENDBRANCH   7  13
BRANCH   1  17
ATOM     16  C   UNL     1       0.208   3.301  19.921  0.00  0.00    +0.000 C 
ATOM     17  C   UNL     1       1.292   4.310  20.255  0.00  0.00    +0.000 C 
ENDBRANCH   1  17
BRANCH  10  18
ATOM     18  C   UNL     1       2.911   7.922  17.764  0.00  0.00    +0.000 C 
BRANCH  18  19
ATOM     19  C   UNL     1       1.617   8.734  17.692  0.00  0.00    +0.000 C 
BRANCH  19  20
ATOM     20  C   UNL     1       1.801  10.156  18.220  0.00  0.00    +0.000 C 
BRANCH  20  21
ATOM     21  N   UNL     1       0.910  10.453  19.323  0.00  0.00    +0.000 N 
ATOM     22  C   UNL     1       0.306  11.652  19.577  0.00  0.00    +0.000 A 
ATOM     23  C   UNL     1      -0.412  11.445  20.733  0.00  0.00    +0.000 A 
ATOM     24  N   UNL     1      -0.247  10.163  21.187  0.00  0.00    +0.000 NA
ATOM     25  C   UNL     1       0.555   9.588  20.318  0.00  0.00    +0.000 A 
ENDBRANCH  20  21
ENDBRANCH  19  20
ENDBRANCH  18  19
ENDBRANCH  10  18
TORSDOF 6
ENDMDL
MODEL 9
REMARK VINA RESULT:      -6.5      1.408      1.605
REMARK  Name = 
REMARK  10 active torsions:
REMARK  status: ('A' for Active; 'I' for Inactive)
REMARK    1  A    between atoms: C_1  and  C_2
REMARK    2  A    between atoms: C_2  and  N_3
REMARK    3  A    between atoms: C_5  and  C_6
REMARK    4  A    between atoms: C_9  and  C_10
REMARK    5  A    between atoms: C_10  and  C_11
REMARK    6  A    between atoms: C_10  and  C_12
REMARK    7  A    between atoms: N_15  and  C_16
REMARK    8  A    between atoms: C_16  and  C_17
REMARK    9  A    between atoms: C_17  and  C_18
REMARK   10  A    between atoms: C_18  and  N_19
REMARK                            x       y       z     vdW  Elec       q    Type
REMARK                         _______ _______ _______ _____ _____    ______ ____
ROOT
ATOM      1  N   UNL     1       2.304   3.785  19.326  0.00  0.00    +0.000 N 
ATOM      2  N   UNL     1       2.511   2.455  19.206  0.00  0.00    +0.000 NA
ATOM      3  C   UNL     1       3.558   2.366  18.375  0.00  0.00    +0.000 A 
ATOM      4  C   UNL     1       4.094   1.040  17.992  0.00  0.00    +0.000 C 
ATOM      5  C   UNL     1       4.006   3.645  17.967  0.00  0.00    +0.000 A 
ATOM      6  N   UNL     1       5.039   4.007  17.174  0.00  0.00    +0.000 NA
ATOM      7  C   UNL     1       5.133   5.329  16.981  0.00  0.00    +0.000 A 
ATOM      8  N   UNL     1       4.261   6.258  17.440  0.00  0.00    +0.000 NA
ATOM      9  C   UNL     1       3.229   5.901  18.236  0.00  0.00    +0.000 A 
ATOM     10  N   UNL     1       2.340   6.864  18.661  0.00  0.00    +0.000 N 
ATOM     11  C   UNL     1       3.126   4.548  18.543  0.00  0.00    +0.000 A 
ATOM     12  H   UNL     1       1.717   6.677  19.428  0.00  0.00    +0.000 HD
ENDROOT
BRANCH   7  13
ATOM     13  C   UNL     1       6.325   5.868  16.220  0.00  0.00    +0.000 C 
ATOM     14  C   UNL     1       7.303   6.578  17.156  0.00  0.00    +0.000 C 
ATOM     15  C   UNL     1       7.019   4.770  15.421  0.00  0.00    +0.000 C 
ENDBRANCH   7  13
BRANCH   1  17
ATOM     16  C   UNL     1       1.294   3.319  21.534  0.00  0.00    +0.000 C 
ATOM     17  C   UNL     1       1.331   4.217  20.311  0.00  0.00    +0.000 C 
ENDBRANCH   1  17
BRANCH  10  18
ATOM     18  C   UNL     1       2.446   8.236  18.196  0.00  0.00    +0.000 C 
BRANCH  18  19
ATOM     19  C   UNL     1       1.344   9.112  18.794  0.00  0.00    +0.000 C 
BRANCH  19  20
ATOM     20  C   UNL     1       1.505  10.581  18.409  0.00  0.00    +0.000 C 
BRANCH  20  21
ATOM     21  N   UNL     1       1.269  11.472  19.527  0.00  0.00    +0.000 N 
ATOM     22  C   UNL     1       1.548  12.809  19.571  0.00  0.00    +0.000 A 
ATOM     23  C   UNL     1       1.174  13.204  20.835  0.00  0.00    +0.000 A 
ATOM     24  N   UNL     1       0.692  12.143  21.555  0.00  0.00    +0.000 NA
ATOM     25  C   UNL     1       0.762  11.111  20.741  0.00  0.00    +0.000 A 
ENDBRANCH  20  21
ENDBRANCH  19  20
ENDBRANCH  18  19
ENDBRANCH  10  18
TORSDOF 6
ENDMDL
