MODEL 1
REMARK VINA RESULT:      -8.8      0.000      0.000
REMARK  Name = 
REMARK  2 active torsions:
REMARK  status: ('A' for Active; 'I' for Inactive)
REMARK    1  A    between atoms: C_5  and  N_6
REMARK    2  A    between atoms: N_6  and  C_7
REMARK                            x       y       z     vdW  Elec       q    Type
REMARK                         _______ _______ _______ _____ _____    ______ ____
ROOT
ATOM      1  C   UNL     1       3.274   5.560  18.830  0.00  0.00    +0.000 A 
ATOM      2  C   UNL     1       4.233   5.533  17.766  0.00  0.00    +0.000 A 
ATOM      3  C   UNL     1       5.154   6.573  17.456  0.00  0.00    +0.000 A 
ATOM      4  C   UNL     1       5.939   6.550  16.304  0.00  0.00    +0.000 A 
ATOM      5  C   UNL     1       5.898   5.438  15.488  0.00  0.00    +0.000 A 
ATOM      6  C   UNL     1       5.088   4.357  15.843  0.00  0.00    +0.000 A 
ATOM      7  C   UNL     1       4.255   4.385  16.957  0.00  0.00    +0.000 A 
ATOM      8  N   UNL     1       3.495   3.306  17.195  0.00  0.00    +0.000 NA
ATOM      9  C   UNL     1       2.626   3.314  18.209  0.00  0.00    +0.000 A 
ATOM     10  C   UNL     1       1.860   2.171  18.391  0.00  0.00    +0.000 A 
ATOM     11  C   UNL     1       0.880   2.083  19.381  0.00  0.00    +0.000 A 
ATOM     12  C   UNL     1       0.654   3.166  20.215  0.00  0.00    +0.000 A 
ATOM     13  C   UNL     1       1.426   4.322  20.061  0.00  0.00    +0.000 A 
ATOM     14  C   UNL     1       2.436   4.422  19.067  0.00  0.00    +0.000 A 
ENDROOT
BRANCH   1  15
ATOM     15  N   UNL     1       3.074   6.746  19.607  0.00  0.00    +0.000 N 
ATOM     16  H   UNL     1       3.390   6.688  20.566  0.00  0.00    +0.000 HD
BRANCH  15  21
ATOM     17 BR   UNL     1      -0.680  11.518  18.976  0.00  0.00    +0.000 Br
ATOM     18  C   UNL     1       0.459  10.022  19.159  0.00  0.00    +0.000 A 
ATOM     19  C   UNL     1       1.168   9.561  18.056  0.00  0.00    +0.000 A 
ATOM     20  C   UNL     1       1.991   8.443  18.185  0.00  0.00    +0.000 A 
ATOM     21  C   UNL     1       2.144   7.792  19.418  0.00  0.00    +0.000 A 
ATOM     22  C   UNL     1       1.429   8.279  20.521  0.00  0.00    +0.000 A 
ATOM     23  C   UNL     1       0.583   9.386  20.393  0.00  0.00    +0.000 A 
ENDBRANCH  15  21
ENDBRANCH   1  15
TORSDOF 2
ENDMDL
MODEL 2
REMARK VINA RESULT:      -8.7      0.377      3.873
REMARK  Name = 
REMARK  2 active torsions:
REMARK  status: ('A' for Active; 'I' for Inactive)
REMARK    1  A    between atoms: C_5  and  N_6
REMARK    2  A    between atoms: N_6  and  C_7
REMARK                            x       y       z     vdW  Elec       q    Type
REMARK                         _______ _______ _______ _____ _____    ______ ____
ROOT
ATOM      1  C   UNL     1       3.184   5.691  18.737  0.00  0.00    +0.000 A 
ATOM      2  C   UNL     1       2.490   4.516  19.175  0.00  0.00    +0.000 A 
ATOM      3  C   UNL     1       1.557   4.458  20.248  0.00  0.00    +0.000 A 
ATOM      4  C   UNL     1       1.051   3.251  20.727  0.00  0.00    +0.000 A 
ATOM      5  C   UNL     1       1.387   2.080  20.079  0.00  0.00    +0.000 A 
ATOM      6  C   UNL     1       2.207   2.133  18.949  0.00  0.00    +0.000 A 
ATOM      7  C   UNL     1       2.767   3.321  18.491  0.00  0.00    +0.000 A 
ATOM      8  N   UNL     1       3.564   3.260  17.414  0.00  0.00    +0.000 NA
ATOM      9  C   UNL     1       4.183   4.361  16.980  0.00  0.00    +0.000 A 
ATOM     10  C   UNL     1       5.004   4.226  15.870  0.00  0.00    +0.000 A 
ATOM     11  C   UNL     1       5.746   5.293  15.361  0.00  0.00    +0.000 A 
ATOM     12  C   UNL     1       5.670   6.533  15.975  0.00  0.00    +0.000 A 
ATOM     13  C   UNL     1       4.834   6.696  17.085  0.00  0.00    +0.000 A 
ATOM     14  C   UNL     1       4.063   5.624  17.607  0.00  0.00    +0.000 A 
ENDROOT
BRANCH   1  15
ATOM     15  N   UNL     1       3.084   6.917  19.469  0.00  0.00    +0.000 N 
ATOM     16  H   UNL     1       3.580   6.930  20.351  0.00  0.00    +0.000 HD
BRANCH  15  21
ATOM     17 BR   UNL     1      -0.957  11.492  19.395  0.00  0.00    +0.000 Br
ATOM     18  C   UNL     1       0.272  10.057  19.404  0.00  0.00    +0.000 A 
ATOM     19  C   UNL     1       0.977   9.751  18.246  0.00  0.00    +0.000 A 
ATOM     20  C   UNL     1       1.867   8.677  18.247  0.00  0.00    +0.000 A 
ATOM     21  C   UNL     1       2.090   7.918  19.405  0.00  0.00    +0.000 A 
ATOM     22  C   UNL     1       1.377   8.250  20.566  0.00  0.00    +0.000 A 
ATOM     23  C   UNL     1       0.465   9.311  20.566  0.00  0.00    +0.000 A 
ENDBRANCH  15  21
ENDBRANCH   1  15
TORSDOF 2
ENDMDL
MODEL 3
REMARK VINA RESULT:      -8.7      0.139      4.012
REMARK  Name = 
REMARK  2 active torsions:
REMARK  status: ('A' for Active; 'I' for Inactive)
REMARK    1  A    between atoms: C_5  and  N_6
REMARK    2  A    between atoms: N_6  and  C_7
REMARK                            x       y       z     vdW  Elec       q    Type
REMARK                         _______ _______ _______ _____ _____    ______ ____
ROOT
ATOM      1  C   UNL     1       3.166   5.604  18.721  0.00  0.00    +0.000 A 
ATOM      2  C   UNL     1       2.354   4.444  18.942  0.00  0.00    +0.000 A 
ATOM      3  C   UNL     1       1.312   4.334  19.906  0.00  0.00    +0.000 A 
ATOM      4  C   UNL     1       0.681   3.122  20.182  0.00  0.00    +0.000 A 
ATOM      5  C   UNL     1       1.005   2.012  19.429  0.00  0.00    +0.000 A 
ATOM      6  C   UNL     1       1.940   2.132  18.398  0.00  0.00    +0.000 A 
ATOM      7  C   UNL     1       2.622   3.318  18.146  0.00  0.00    +0.000 A 
ATOM      8  N   UNL     1       3.521   3.321  17.151  0.00  0.00    +0.000 NA
ATOM      9  C   UNL     1       4.253   4.414  16.918  0.00  0.00    +0.000 A 
ATOM     10  C   UNL     1       5.176   4.345  15.883  0.00  0.00    +0.000 A 
ATOM     11  C   UNL     1       6.035   5.402  15.584  0.00  0.00    +0.000 A 
ATOM     12  C   UNL     1       5.976   6.565  16.336  0.00  0.00    +0.000 A 
ATOM     13  C   UNL     1       5.042   6.663  17.372  0.00  0.00    +0.000 A 
ATOM     14  C   UNL     1       4.151   5.600  17.681  0.00  0.00    +0.000 A 
ENDROOT
BRANCH   1  15
ATOM     15  N   UNL     1       3.070   6.741  19.586  0.00  0.00    +0.000 N 
ATOM     16  H   UNL     1       3.412   6.592  20.527  0.00  0.00    +0.000 HD
BRANCH  15  21
ATOM     17 BR   UNL     1      -0.934  11.317  19.048  0.00  0.00    +0.000 Br
ATOM     18  C   UNL     1       0.327   9.921  19.226  0.00  0.00    +0.000 A 
ATOM     19  C   UNL     1       0.498   9.307  20.461  0.00  0.00    +0.000 A 
ATOM     20  C   UNL     1       1.446   8.292  20.599  0.00  0.00    +0.000 A 
ATOM     21  C   UNL     1       2.207   7.855  19.505  0.00  0.00    +0.000 A 
ATOM     22  C   UNL     1       2.010   8.480  18.266  0.00  0.00    +0.000 A 
ATOM     23  C   UNL     1       1.079   9.515  18.126  0.00  0.00    +0.000 A 
ENDBRANCH  15  21
ENDBRANCH   1  15
TORSDOF 2
ENDMDL
MODEL 4
REMARK VINA RESULT:      -8.7      0.143      1.037
REMARK  Name = 
REMARK  2 active torsions:
REMARK  status: ('A' for Active; 'I' for Inactive)
REMARK    1  A    between atoms: C_5  and  N_6
REMARK    2  A    between atoms: N_6  and  C_7
REMARK                            x       y       z     vdW  Elec       q    Type
REMARK                         _______ _______ _______ _____ _____    ______ ____
ROOT
ATOM      1  C   UNL     1       3.280   5.552  18.864  0.00  0.00    +0.000 A 
ATOM      2  C   UNL     1       4.246   5.532  17.805  0.00  0.00    +0.000 A 
ATOM      3  C   UNL     1       5.202   6.552  17.538  0.00  0.00    +0.000 A 
ATOM      4  C   UNL     1       5.993   6.546  16.391  0.00  0.00    +0.000 A 
ATOM      5  C   UNL     1       5.921   5.466  15.534  0.00  0.00    +0.000 A 
ATOM      6  C   UNL     1       5.075   4.399  15.845  0.00  0.00    +0.000 A 
ATOM      7  C   UNL     1       4.235   4.414  16.955  0.00  0.00    +0.000 A 
ATOM      8  N   UNL     1       3.440   3.353  17.149  0.00  0.00    +0.000 NA
ATOM      9  C   UNL     1       2.565   3.351  18.158  0.00  0.00    +0.000 A 
ATOM     10  C   UNL     1       1.761   2.228  18.293  0.00  0.00    +0.000 A 
ATOM     11  C   UNL     1       0.772   2.137  19.273  0.00  0.00    +0.000 A 
ATOM     12  C   UNL     1       0.575   3.195  20.146  0.00  0.00    +0.000 A 
ATOM     13  C   UNL     1       1.385   4.330  20.039  0.00  0.00    +0.000 A 
ATOM     14  C   UNL     1       2.405   4.433  19.055  0.00  0.00    +0.000 A 
ENDROOT
BRANCH   1  15
ATOM     15  N   UNL     1       3.113   6.714  19.683  0.00  0.00    +0.000 N 
ATOM     16  H   UNL     1       3.382   6.598  20.651  0.00  0.00    +0.000 HD
BRANCH  15  21
ATOM     17 BR   UNL     1      -0.864  11.241  18.706  0.00  0.00    +0.000 Br
ATOM     18  C   UNL     1       0.389   9.861  19.020  0.00  0.00    +0.000 A 
ATOM     19  C   UNL     1       0.503   9.318  20.294  0.00  0.00    +0.000 A 
ATOM     20  C   UNL     1       1.444   8.315  20.532  0.00  0.00    +0.000 A 
ATOM     21  C   UNL     1       2.254   7.820  19.500  0.00  0.00    +0.000 A 
ATOM     22  C   UNL     1       2.115   8.374  18.220  0.00  0.00    +0.000 A 
ATOM     23  C   UNL     1       1.191   9.396  17.980  0.00  0.00    +0.000 A 
ENDBRANCH  15  21
ENDBRANCH   1  15
TORSDOF 2
ENDMDL
MODEL 5
REMARK VINA RESULT:      -8.5      1.497      4.300
REMARK  Name = 
REMARK  2 active torsions:
REMARK  status: ('A' for Active; 'I' for Inactive)
REMARK    1  A    between atoms: C_5  and  N_6
REMARK    2  A    between atoms: N_6  and  C_7
REMARK                            x       y       z     vdW  Elec       q    Type
REMARK                         _______ _______ _______ _____ _____    ______ ____
ROOT
ATOM      1  C   UNL     1       3.304   5.688  18.407  0.00  0.00    +0.000 A 
ATOM      2  C   UNL     1       2.816   4.574  19.166  0.00  0.00    +0.000 A 
ATOM      3  C   UNL     1       1.450   4.313  19.467  0.00  0.00    +0.000 A 
ATOM      4  C   UNL     1       1.064   3.309  20.353  0.00  0.00    +0.000 A 
ATOM      5  C   UNL     1       2.028   2.474  20.879  0.00  0.00    +0.000 A 
ATOM      6  C   UNL     1       3.362   2.641  20.499  0.00  0.00    +0.000 A 
ATOM      7  C   UNL     1       3.773   3.674  19.663  0.00  0.00    +0.000 A 
ATOM      8  N   UNL     1       5.081   3.765  19.381  0.00  0.00    +0.000 NA
ATOM      9  C   UNL     1       5.534   4.781  18.642  0.00  0.00    +0.000 A 
ATOM     10  C   UNL     1       6.900   4.824  18.401  0.00  0.00    +0.000 A 
ATOM     11  C   UNL     1       7.496   5.867  17.691  0.00  0.00    +0.000 A 
ATOM     12  C   UNL     1       6.710   6.900  17.207  0.00  0.00    +0.000 A 
ATOM     13  C   UNL     1       5.329   6.869  17.423  0.00  0.00    +0.000 A 
ATOM     14  C   UNL     1       4.706   5.807  18.132  0.00  0.00    +0.000 A 
ENDROOT
BRANCH   1  15
ATOM     15  N   UNL     1       2.421   6.737  17.995  0.00  0.00    +0.000 N 
ATOM     16  H   UNL     1       2.350   6.866  16.994  0.00  0.00    +0.000 HD
BRANCH  15  21
ATOM     17 BR   UNL     1       0.184  11.589  20.946  0.00  0.00    +0.000 Br
ATOM     18  C   UNL     1       0.907  10.096  20.042  0.00  0.00    +0.000 A 
ATOM     19  C   UNL     1       1.218   8.946  20.758  0.00  0.00    +0.000 A 
ATOM     20  C   UNL     1       1.773   7.852  20.094  0.00  0.00    +0.000 A 
ATOM     21  C   UNL     1       1.992   7.876  18.709  0.00  0.00    +0.000 A 
ATOM     22  C   UNL     1       1.660   9.041  18.003  0.00  0.00    +0.000 A 
ATOM     23  C   UNL     1       1.126  10.152  18.666  0.00  0.00    +0.000 A 
ENDBRANCH  15  21
ENDBRANCH   1  15
TORSDOF 2
ENDMDL
MODEL 6
REMARK VINA RESULT:      -8.4      1.487      1.826
REMARK  Name = 
REMARK  2 active torsions:
REMARK  status: ('A' for Active; 'I' for Inactive)
REMARK    1  A    between atoms: C_5  and  N_6
REMARK    2  A    between atoms: N_6  and  C_7
REMARK                            x       y       z     vdW  Elec       q    Type
REMARK                         _______ _______ _______ _____ _____    ______ ____
ROOT
ATOM      1  C   UNL     1       3.313   5.771  18.602  0.00  0.00    +0.000 A 
ATOM      2  C   UNL     1       4.689   5.801  18.202  0.00  0.00    +0.000 A 
ATOM      3  C   UNL     1       5.309   6.836  17.446  0.00  0.00    +0.000 A 
ATOM      4  C   UNL     1       6.605   6.717  16.949  0.00  0.00    +0.000 A 
ATOM      5  C   UNL     1       7.351   5.604  17.282  0.00  0.00    +0.000 A 
ATOM      6  C   UNL     1       6.798   4.636  18.124  0.00  0.00    +0.000 A 
ATOM      7  C   UNL     1       5.487   4.709  18.582  0.00  0.00    +0.000 A 
ATOM      8  N   UNL     1       5.042   3.713  19.363  0.00  0.00    +0.000 NA
ATOM      9  C   UNL     1       3.770   3.701  19.768  0.00  0.00    +0.000 A 
ATOM     10  C   UNL     1       3.371   2.634  20.561  0.00  0.00    +0.000 A 
ATOM     11  C   UNL     1       2.054   2.485  20.997  0.00  0.00    +0.000 A 
ATOM     12  C   UNL     1       1.103   3.425  20.632  0.00  0.00    +0.000 A 
ATOM     13  C   UNL     1       1.486   4.517  19.848  0.00  0.00    +0.000 A 
ATOM     14  C   UNL     1       2.826   4.691  19.408  0.00  0.00    +0.000 A 
ENDROOT
BRANCH   1  15
ATOM     15  N   UNL     1       2.391   6.760  18.130  0.00  0.00    +0.000 N 
ATOM     16  H   UNL     1       2.276   6.792  17.125  0.00  0.00    +0.000 HD
BRANCH  15  21
ATOM     17 BR   UNL     1       0.179  11.852  20.666  0.00  0.00    +0.000 Br
ATOM     18  C   UNL     1       0.893  10.284  19.891  0.00  0.00    +0.000 A 
ATOM     19  C   UNL     1       1.131   9.172  20.691  0.00  0.00    +0.000 A 
ATOM     20  C   UNL     1       1.680   8.022  20.123  0.00  0.00    +0.000 A 
ATOM     21  C   UNL     1       1.966   7.954  18.752  0.00  0.00    +0.000 A 
ATOM     22  C   UNL     1       1.708   9.083  17.961  0.00  0.00    +0.000 A 
ATOM     23  C   UNL     1       1.180  10.248  18.528  0.00  0.00    +0.000 A 
ENDBRANCH  15  21
ENDBRANCH   1  15
TORSDOF 2
ENDMDL
MODEL 7
REMARK VINA RESULT:      -8.3      1.527      4.116
REMARK  Name = 
REMARK  2 active torsions:
REMARK  status: ('A' for Active; 'I' for Inactive)
REMARK    1  A    between atoms: C_5  and  N_6
REMARK    2  A    between atoms: N_6  and  C_7
REMARK                            x       y       z     vdW  Elec       q    Type
REMARK                         _______ _______ _______ _____ _____    ______ ____
ROOT
ATOM      1  C   UNL     1       3.609   5.729  17.858  0.00  0.00    +0.000 A 
ATOM      2  C   UNL     1       3.033   4.478  18.255  0.00  0.00    +0.000 A 
ATOM      3  C   UNL     1       1.648   4.151  18.204  0.00  0.00    +0.000 A 
ATOM      4  C   UNL     1       1.141   2.980  18.764  0.00  0.00    +0.000 A 
ATOM      5  C   UNL     1       2.019   2.060  19.300  0.00  0.00    +0.000 A 
ATOM      6  C   UNL     1       3.392   2.312  19.250  0.00  0.00    +0.000 A 
ATOM      7  C   UNL     1       3.912   3.499  18.746  0.00  0.00    +0.000 A 
ATOM      8  N   UNL     1       5.244   3.655  18.769  0.00  0.00    +0.000 NA
ATOM      9  C   UNL     1       5.787   4.807  18.365  0.00  0.00    +0.000 A 
ATOM     10  C   UNL     1       7.170   4.908  18.428  0.00  0.00    +0.000 A 
ATOM     11  C   UNL     1       7.845   6.080  18.087  0.00  0.00    +0.000 A 
ATOM     12  C   UNL     1       7.123   7.187  17.670  0.00  0.00    +0.000 A 
ATOM     13  C   UNL     1       5.730   7.102  17.582  0.00  0.00    +0.000 A 
ATOM     14  C   UNL     1       5.029   5.912  17.913  0.00  0.00    +0.000 A 
ENDROOT
BRANCH   1  15
ATOM     15  N   UNL     1       2.777   6.836  17.493  0.00  0.00    +0.000 N 
ATOM     16  H   UNL     1       2.942   7.206  16.566  0.00  0.00    +0.000 HD
BRANCH  15  21
ATOM     17 BR   UNL     1       0.229  10.947  21.217  0.00  0.00    +0.000 Br
ATOM     18  C   UNL     1       0.988   9.664  20.056  0.00  0.00    +0.000 A 
ATOM     19  C   UNL     1       1.068   9.934  18.695  0.00  0.00    +0.000 A 
ATOM     20  C   UNL     1       1.608   8.977  17.834  0.00  0.00    +0.000 A 
ATOM     21  C   UNL     1       2.103   7.759  18.321  0.00  0.00    +0.000 A 
ATOM     22  C   UNL     1       2.023   7.511  19.699  0.00  0.00    +0.000 A 
ATOM     23  C   UNL     1       1.462   8.456  20.565  0.00  0.00    +0.000 A 
ENDBRANCH  15  21
ENDBRANCH   1  15
TORSDOF 2
ENDMDL
MODEL 8
REMARK VINA RESULT:      -8.0      1.518      1.606
REMARK  Name = 
REMARK  2 active torsions:
REMARK  status: ('A' for Active; 'I' for Inactive)
REMARK    1  A    between atoms: C_5  and  N_6
REMARK    2  A    between atoms: N_6  and  C_7
REMARK                            x       y       z     vdW  Elec       q    Type
REMARK                         _______ _______ _______ _____ _____    ______ ____
ROOT
ATOM      1  C   UNL     1       3.339   5.774  18.530  0.00  0.00    +0.000 A 
ATOM      2  C   UNL     1       4.736   5.845  18.219  0.00  0.00    +0.000 A 
ATOM      3  C   UNL     1       5.373   6.901  17.507  0.00  0.00    +0.000 A 
ATOM      4  C   UNL     1       6.701   6.821  17.093  0.00  0.00    +0.000 A 
ATOM      5  C   UNL     1       7.455   5.728  17.469  0.00  0.00    +0.000 A 
ATOM      6  C   UNL     1       6.877   4.740  18.270  0.00  0.00    +0.000 A 
ATOM      7  C   UNL     1       5.538   4.774  18.644  0.00  0.00    +0.000 A 
ATOM      8  N   UNL     1       5.074   3.762  19.391  0.00  0.00    +0.000 NA
ATOM      9  C   UNL     1       3.779   3.712  19.714  0.00  0.00    +0.000 A 
ATOM     10  C   UNL     1       3.361   2.629  20.476  0.00  0.00    +0.000 A 
ATOM     11  C   UNL     1       2.024   2.440  20.826  0.00  0.00    +0.000 A 
ATOM     12  C   UNL     1       1.071   3.355  20.406  0.00  0.00    +0.000 A 
ATOM     13  C   UNL     1       1.473   4.463  19.652  0.00  0.00    +0.000 A 
ATOM     14  C   UNL     1       2.832   4.676  19.299  0.00  0.00    +0.000 A 
ENDROOT
BRANCH   1  15
ATOM     15  N   UNL     1       2.421   6.739  18.004  0.00  0.00    +0.000 N 
ATOM     16  H   UNL     1       2.402   6.806  16.995  0.00  0.00    +0.000 HD
BRANCH  15  21
ATOM     17 BR   UNL     1       0.470  11.794  20.817  0.00  0.00    +0.000 Br
ATOM     18  C   UNL     1       1.043  10.222  19.938  0.00  0.00    +0.000 A 
ATOM     19  C   UNL     1       1.214  10.232  18.559  0.00  0.00    +0.000 A 
ATOM     20  C   UNL     1       1.615   9.066  17.907  0.00  0.00    +0.000 A 
ATOM     21  C   UNL     1       1.883   7.889  18.622  0.00  0.00    +0.000 A 
ATOM     22  C   UNL     1       1.716   7.904  20.014  0.00  0.00    +0.000 A 
ATOM     23  C   UNL     1       1.291   9.063  20.672  0.00  0.00    +0.000 A 
ENDBRANCH  15  21
ENDBRANCH   1  15
TORSDOF 2
ENDMDL
MODEL 9
REMARK VINA RESULT:      -7.6      3.657      5.669
REMARK  Name = 
REMARK  2 active torsions:
REMARK  status: ('A' for Active; 'I' for Inactive)
REMARK    1  A    between atoms: C_5  and  N_6
REMARK    2  A    between atoms: N_6  and  C_7
REMARK                            x       y       z     vdW  Elec       q    Type
REMARK                         _______ _______ _______ _____ _____    ______ ____
ROOT
ATOM      1  C   UNL     1       5.185   4.160  15.867  0.00  0.00    +0.000 A 
ATOM      2  C   UNL     1       5.733   4.222  14.545  0.00  0.00    +0.000 A 
ATOM      3  C   UNL     1       5.139   3.667  13.376  0.00  0.00    +0.000 A 
ATOM      4  C   UNL     1       5.809   3.617  12.155  0.00  0.00    +0.000 A 
ATOM      5  C   UNL     1       7.049   4.214  12.047  0.00  0.00    +0.000 A 
ATOM      6  C   UNL     1       7.593   4.869  13.155  0.00  0.00    +0.000 A 
ATOM      7  C   UNL     1       6.965   4.879  14.396  0.00  0.00    +0.000 A 
ATOM      8  N   UNL     1       7.585   5.512  15.403  0.00  0.00    +0.000 NA
ATOM      9  C   UNL     1       7.058   5.488  16.630  0.00  0.00    +0.000 A 
ATOM     10  C   UNL     1       7.757   6.150  17.629  0.00  0.00    +0.000 A 
ATOM     11  C   UNL     1       7.335   6.145  18.959  0.00  0.00    +0.000 A 
ATOM     12  C   UNL     1       6.182   5.459  19.307  0.00  0.00    +0.000 A 
ATOM     13  C   UNL     1       5.452   4.800  18.313  0.00  0.00    +0.000 A 
ATOM     14  C   UNL     1       5.861   4.807  16.953  0.00  0.00    +0.000 A 
ENDROOT
BRANCH   1  15
ATOM     15  N   UNL     1       4.016   3.380  16.140  0.00  0.00    +0.000 N 
ATOM     16  H   UNL     1       3.431   3.191  15.337  0.00  0.00    +0.000 HD
BRANCH  15  21
ATOM     17 BR   UNL     1       1.328   2.795  21.590  0.00  0.00    +0.000 Br
ATOM     18  C   UNL     1       2.134   2.963  19.889  0.00  0.00    +0.000 A 
ATOM     19  C   UNL     1       1.781   4.025  19.065  0.00  0.00    +0.000 A 
ATOM     20  C   UNL     1       2.359   4.136  17.800  0.00  0.00    +0.000 A 
ATOM     21  C   UNL     1       3.317   3.213  17.356  0.00  0.00    +0.000 A 
ATOM     22  C   UNL     1       3.668   2.155  18.207  0.00  0.00    +0.000 A 
ATOM     23  C   UNL     1       3.075   2.025  19.467  0.00  0.00    +0.000 A 
ENDBRANCH  15  21
ENDBRANCH   1  15
TORSDOF 2
ENDMDL
