MODEL 1
REMARK VINA RESULT:      -8.0      0.000      0.000
REMARK  Name = 
REMARK  6 active torsions:
REMARK  status: ('A' for Active; 'I' for Inactive)
REMARK    1  A    between atoms: C_1  and  C_2
REMARK    2  A    between atoms: C_4  and  C_5
REMARK    3  A    between atoms: C_12  and  C_13
REMARK    4  A    between atoms: C_15  and  C_16
REMARK    5  A    between atoms: C_23  and  S_24
REMARK    6  A    between atoms: S_24  and  C_27
REMARK                            x       y       z     vdW  Elec       q    Type
REMARK                         _______ _______ _______ _____ _____    ______ ____
ROOT
ATOM      1  C   UNL     1       1.020  11.395  19.075  0.00  0.00    +0.000 A 
ATOM      2  N   UNL     1       2.153  12.137  18.997  0.00  0.00    +0.000 NA
ATOM      3  C   UNL     1       2.048  13.467  18.885  0.00  0.00    +0.000 A 
ATOM      4  N   UNL     1       0.889  14.134  18.832  0.00  0.00    +0.000 NA
ATOM      5  C   UNL     1      -0.224  13.375  18.901  0.00  0.00    +0.000 A 
ATOM      6  C   UNL     1      -0.223  11.993  19.011  0.00  0.00    +0.000 A 
ENDROOT
BRANCH   1  12
ATOM      7  C   UNL     1       1.151   9.487  21.730  0.00  0.00    +0.000 C 
ATOM      8  C   UNL     1       1.426   9.141  20.304  0.00  0.00    +0.000 A 
ATOM      9  N   UNL     1       1.832   7.837  20.050  0.00  0.00    +0.000 NA
ATOM     10  C   UNL     1       2.194   7.694  18.794  0.00  0.00    +0.000 A 
ATOM     11  S   UNL     1       2.026   9.117  17.852  0.00  0.00    +0.000 S 
ATOM     12  C   UNL     1       1.362   9.969  19.182  0.00  0.00    +0.000 A 
BRANCH  10  13
ATOM     13  C   UNL     1       2.826   6.479  18.246  0.00  0.00    +0.000 A 
ATOM     14  C   UNL     1       4.052   6.597  17.572  0.00  0.00    +0.000 A 
ATOM     15  C   UNL     1       4.617   5.505  16.908  0.00  0.00    +0.000 A 
ATOM     16  C   UNL     1       3.968   4.272  16.920  0.00  0.00    +0.000 A 
ATOM     17  C   UNL     1       2.779   4.121  17.625  0.00  0.00    +0.000 A 
ATOM     18  C   UNL     1       2.218   5.212  18.294  0.00  0.00    +0.000 A 
ENDBRANCH  10  13
ENDBRANCH   1  12
BRANCH   3  19
ATOM     19  C   UNL     1       3.277  14.258  18.899  0.00  0.00    +0.000 A 
ATOM     20  C   UNL     1       4.124  14.562  17.847  0.00  0.00    +0.000 A 
ATOM     21  C   UNL     1       5.220  15.387  18.236  0.00  0.00    +0.000 A 
ATOM     22  C   UNL     1       5.193  15.675  19.580  0.00  0.00    +0.000 A 
ATOM     23  S   UNL     1       3.853  14.958  20.361  0.00  0.00    +0.000 S 
ENDBRANCH   3  19
BRANCH   6  24
ATOM     24  S   UNL     1      -1.781  11.214  19.207  0.00  0.00    +0.000 S 
ATOM     25  O   UNL     1      -1.557   9.922  19.822  0.00  0.00    +0.000 OA
ATOM     26  O   UNL     1      -2.644  12.171  19.876  0.00  0.00    +0.000 OA
BRANCH  24  27
ATOM     27  C   UNL     1      -2.553  10.956  17.621  0.00  0.00    +0.000 A 
ATOM     28  C   UNL     1      -1.951  10.069  16.713  0.00  0.00    +0.000 A 
ATOM     29  C   UNL     1      -2.597   9.769  15.513  0.00  0.00    +0.000 A 
ATOM     30  C   UNL     1      -3.824  10.358  15.209  0.00  0.00    +0.000 A 
ATOM     31  C   UNL     1      -4.400  11.266  16.099  0.00  0.00    +0.000 A 
ATOM     32  C   UNL     1      -3.769  11.568  17.305  0.00  0.00    +0.000 A 
ENDBRANCH  24  27
ENDBRANCH   6  24
TORSDOF 5
ENDMDL
MODEL 2
REMARK VINA RESULT:      -7.9      0.636      1.418
REMARK  Name = 
REMARK  6 active torsions:
REMARK  status: ('A' for Active; 'I' for Inactive)
REMARK    1  A    between atoms: C_1  and  C_2
REMARK    2  A    between atoms: C_4  and  C_5
REMARK    3  A    between atoms: C_12  and  C_13
REMARK    4  A    between atoms: C_15  and  C_16
REMARK    5  A    between atoms: C_23  and  S_24
REMARK    6  A    between atoms: S_24  and  C_27
REMARK                            x       y       z     vdW  Elec       q    Type
REMARK                         _______ _______ _______ _____ _____    ______ ____
ROOT
ATOM      1  C   UNL     1       0.877  11.607  19.109  0.00  0.00    +0.000 A 
ATOM      2  N   UNL     1       1.990  12.376  19.027  0.00  0.00    +0.000 NA
ATOM      3  C   UNL     1       1.852  13.706  18.956  0.00  0.00    +0.000 A 
ATOM      4  N   UNL     1       0.678  14.347  18.947  0.00  0.00    +0.000 NA
ATOM      5  C   UNL     1      -0.415  13.560  19.017  0.00  0.00    +0.000 A 
ATOM      6  C   UNL     1      -0.381  12.177  19.089  0.00  0.00    +0.000 A 
ENDROOT
BRANCH   1  12
ATOM      7  C   UNL     1       1.089   9.623  21.702  0.00  0.00    +0.000 C 
ATOM      8  C   UNL     1       1.352   9.327  20.263  0.00  0.00    +0.000 A 
ATOM      9  N   UNL     1       1.785   8.041  19.964  0.00  0.00    +0.000 NA
ATOM     10  C   UNL     1       2.133   7.945  18.699  0.00  0.00    +0.000 A 
ATOM     11  S   UNL     1       1.918   9.390  17.803  0.00  0.00    +0.000 S 
ATOM     12  C   UNL     1       1.254  10.186  19.167  0.00  0.00    +0.000 A 
BRANCH  10  13
ATOM     13  C   UNL     1       2.785   6.762  18.106  0.00  0.00    +0.000 A 
ATOM     14  C   UNL     1       2.220   5.495  18.322  0.00  0.00    +0.000 A 
ATOM     15  C   UNL     1       2.877   4.333  17.909  0.00  0.00    +0.000 A 
ATOM     16  C   UNL     1       4.106   4.422  17.260  0.00  0.00    +0.000 A 
ATOM     17  C   UNL     1       4.659   5.670  16.990  0.00  0.00    +0.000 A 
ATOM     18  C   UNL     1       3.998   6.832  17.398  0.00  0.00    +0.000 A 
ENDBRANCH  10  13
ENDBRANCH   1  12
BRANCH   3  19
ATOM     19  C   UNL     1       3.063  14.525  18.967  0.00  0.00    +0.000 A 
ATOM     20  C   UNL     1       4.051  14.599  19.935  0.00  0.00    +0.000 A 
ATOM     21  C   UNL     1       5.105  15.493  19.586  0.00  0.00    +0.000 A 
ATOM     22  C   UNL     1       4.885  16.095  18.369  0.00  0.00    +0.000 A 
ATOM     23  S   UNL     1       3.422  15.580  17.656  0.00  0.00    +0.000 S 
ENDBRANCH   3  19
BRANCH   6  24
ATOM     24  S   UNL     1      -1.916  11.356  19.295  0.00  0.00    +0.000 S 
ATOM     25  O   UNL     1      -1.675  10.148  20.057  0.00  0.00    +0.000 OA
ATOM     26  O   UNL     1      -2.847  12.341  19.815  0.00  0.00    +0.000 OA
BRANCH  24  27
ATOM     27  C   UNL     1      -2.596  10.897  17.712  0.00  0.00    +0.000 A 
ATOM     28  C   UNL     1      -3.774  11.523  17.275  0.00  0.00    +0.000 A 
ATOM     29  C   UNL     1      -4.260  11.258  15.994  0.00  0.00    +0.000 A 
ATOM     30  C   UNL     1      -3.590  10.365  15.159  0.00  0.00    +0.000 A 
ATOM     31  C   UNL     1      -2.439   9.717  15.612  0.00  0.00    +0.000 A 
ATOM     32  C   UNL     1      -1.939   9.979  16.888  0.00  0.00    +0.000 A 
ENDBRANCH  24  27
ENDBRANCH   6  24
TORSDOF 5
ENDMDL
MODEL 3
REMARK VINA RESULT:      -7.8      2.354      5.880
REMARK  Name = 
REMARK  6 active torsions:
REMARK  status: ('A' for Active; 'I' for Inactive)
REMARK    1  A    between atoms: C_1  and  C_2
REMARK    2  A    between atoms: C_4  and  C_5
REMARK    3  A    between atoms: C_12  and  C_13
REMARK    4  A    between atoms: C_15  and  C_16
REMARK    5  A    between atoms: C_23  and  S_24
REMARK    6  A    between atoms: S_24  and  C_27
REMARK                            x       y       z     vdW  Elec       q    Type
REMARK                         _______ _______ _______ _____ _____    ______ ____
ROOT
ATOM      1  C   UNL     1      -0.222  11.344  19.535  0.00  0.00    +0.000 A 
ATOM      2  N   UNL     1      -1.543  11.114  19.329  0.00  0.00    +0.000 NA
ATOM      3  C   UNL     1      -2.387  12.154  19.334  0.00  0.00    +0.000 A 
ATOM      4  N   UNL     1      -2.023  13.424  19.542  0.00  0.00    +0.000 NA
ATOM      5  C   UNL     1      -0.707  13.626  19.755  0.00  0.00    +0.000 A 
ATOM      6  C   UNL     1       0.246  12.620  19.776  0.00  0.00    +0.000 A 
ENDROOT
BRANCH   1  12
ATOM      7  C   UNL     1       0.843   9.493  22.015  0.00  0.00    +0.000 C 
ATOM      8  C   UNL     1       0.981   9.272  20.544  0.00  0.00    +0.000 A 
ATOM      9  N   UNL     1       1.691   8.145  20.152  0.00  0.00    +0.000 NA
ATOM     10  C   UNL     1       1.882   8.140  18.850  0.00  0.00    +0.000 A 
ATOM     11  S   UNL     1       1.181   9.476  18.036  0.00  0.00    +0.000 S 
ATOM     12  C   UNL     1       0.518  10.073  19.499  0.00  0.00    +0.000 A 
BRANCH  10  13
ATOM     13  C   UNL     1       2.736   7.170  18.140  0.00  0.00    +0.000 A 
ATOM     14  C   UNL     1       2.419   5.803  18.215  0.00  0.00    +0.000 A 
ATOM     15  C   UNL     1       3.276   4.835  17.687  0.00  0.00    +0.000 A 
ATOM     16  C   UNL     1       4.460   5.220  17.062  0.00  0.00    +0.000 A 
ATOM     17  C   UNL     1       4.768   6.570  16.931  0.00  0.00    +0.000 A 
ATOM     18  C   UNL     1       3.907   7.539  17.454  0.00  0.00    +0.000 A 
ENDBRANCH  10  13
ENDBRANCH   1  12
BRANCH   3  19
ATOM     19  C   UNL     1      -3.791  11.901  19.015  0.00  0.00    +0.000 A 
ATOM     20  C   UNL     1      -4.325  11.221  17.933  0.00  0.00    +0.000 A 
ATOM     21  C   UNL     1      -5.748  11.149  17.970  0.00  0.00    +0.000 A 
ATOM     22  C   UNL     1      -6.266  11.794  19.068  0.00  0.00    +0.000 A 
ATOM     23  S   UNL     1      -5.043  12.474  20.046  0.00  0.00    +0.000 S 
ENDBRANCH   3  19
BRANCH   6  24
ATOM     24  S   UNL     1       1.918  13.118  19.951  0.00  0.00    +0.000 S 
ATOM     25  O   UNL     1       2.382  12.662  21.246  0.00  0.00    +0.000 OA
ATOM     26  O   UNL     1       2.613  12.670  18.758  0.00  0.00    +0.000 OA
BRANCH  24  27
ATOM     27  C   UNL     1       2.049  14.894  19.900  0.00  0.00    +0.000 A 
ATOM     28  C   UNL     1       2.198  15.525  18.655  0.00  0.00    +0.000 A 
ATOM     29  C   UNL     1       2.192  16.919  18.584  0.00  0.00    +0.000 A 
ATOM     30  C   UNL     1       2.055  17.681  19.744  0.00  0.00    +0.000 A 
ATOM     31  C   UNL     1       1.942  17.049  20.983  0.00  0.00    +0.000 A 
ATOM     32  C   UNL     1       1.940  15.656  21.066  0.00  0.00    +0.000 A 
ENDBRANCH  24  27
ENDBRANCH   6  24
TORSDOF 5
ENDMDL
MODEL 4
REMARK VINA RESULT:      -7.7      1.363      1.893
REMARK  Name = 
REMARK  6 active torsions:
REMARK  status: ('A' for Active; 'I' for Inactive)
REMARK    1  A    between atoms: C_1  and  C_2
REMARK    2  A    between atoms: C_4  and  C_5
REMARK    3  A    between atoms: C_12  and  C_13
REMARK    4  A    between atoms: C_15  and  C_16
REMARK    5  A    between atoms: C_23  and  S_24
REMARK    6  A    between atoms: S_24  and  C_27
REMARK                            x       y       z     vdW  Elec       q    Type
REMARK                         _______ _______ _______ _____ _____    ______ ____
ROOT
ATOM      1  C   UNL     1       0.560  11.235  18.851  0.00  0.00    +0.000 A 
ATOM      2  N   UNL     1       1.492  12.148  19.222  0.00  0.00    +0.000 NA
ATOM      3  C   UNL     1       1.187  13.450  19.147  0.00  0.00    +0.000 A 
ATOM      4  N   UNL     1       0.015  13.929  18.716  0.00  0.00    +0.000 NA
ATOM      5  C   UNL     1      -0.892  13.003  18.343  0.00  0.00    +0.000 A 
ATOM      6  C   UNL     1      -0.673  11.635  18.376  0.00  0.00    +0.000 A 
ENDROOT
BRANCH   1  12
ATOM      7  C   UNL     1       0.812   9.387  21.540  0.00  0.00    +0.000 C 
ATOM      8  C   UNL     1       1.221   9.076  20.138  0.00  0.00    +0.000 A 
ATOM      9  N   UNL     1       1.831   7.845  19.930  0.00  0.00    +0.000 NA
ATOM     10  C   UNL     1       2.286   7.748  18.700  0.00  0.00    +0.000 A 
ATOM     11  S   UNL     1       1.966   9.123  17.727  0.00  0.00    +0.000 S 
ATOM     12  C   UNL     1       1.104   9.877  19.001  0.00  0.00    +0.000 A 
BRANCH  10  13
ATOM     13  C   UNL     1       3.123   6.637  18.210  0.00  0.00    +0.000 A 
ATOM     14  C   UNL     1       4.185   6.922  17.336  0.00  0.00    +0.000 A 
ATOM     15  C   UNL     1       4.913   5.895  16.728  0.00  0.00    +0.000 A 
ATOM     16  C   UNL     1       4.597   4.565  16.997  0.00  0.00    +0.000 A 
ATOM     17  C   UNL     1       3.583   4.262  17.900  0.00  0.00    +0.000 A 
ATOM     18  C   UNL     1       2.860   5.289  18.512  0.00  0.00    +0.000 A 
ENDBRANCH  10  13
ENDBRANCH   1  12
BRANCH   3  19
ATOM     19  C   UNL     1       2.167  14.415  19.642  0.00  0.00    +0.000 A 
ATOM     20  C   UNL     1       3.544  14.292  19.715  0.00  0.00    +0.000 A 
ATOM     21  C   UNL     1       4.179  15.460  20.231  0.00  0.00    +0.000 A 
ATOM     22  C   UNL     1       3.269  16.436  20.558  0.00  0.00    +0.000 A 
ATOM     23  S   UNL     1       1.664  15.948  20.239  0.00  0.00    +0.000 S 
ENDBRANCH   3  19
BRANCH   6  24
ATOM     24  S   UNL     1      -2.030  10.606  17.960  0.00  0.00    +0.000 S 
ATOM     25  O   UNL     1      -1.865  10.191  16.582  0.00  0.00    +0.000 OA
ATOM     26  O   UNL     1      -2.115   9.591  18.994  0.00  0.00    +0.000 OA
BRANCH  24  27
ATOM     27  C   UNL     1      -3.562  11.508  18.096  0.00  0.00    +0.000 A 
ATOM     28  C   UNL     1      -4.375  11.633  16.959  0.00  0.00    +0.000 A 
ATOM     29  C   UNL     1      -5.628  12.238  17.071  0.00  0.00    +0.000 A 
ATOM     30  C   UNL     1      -6.062  12.730  18.302  0.00  0.00    +0.000 A 
ATOM     31  C   UNL     1      -5.235  12.635  19.422  0.00  0.00    +0.000 A 
ATOM     32  C   UNL     1      -3.984  12.025  19.324  0.00  0.00    +0.000 A 
ENDBRANCH  24  27
ENDBRANCH   6  24
TORSDOF 5
ENDMDL
MODEL 5
REMARK VINA RESULT:      -7.6      2.329      5.888
REMARK  Name = 
REMARK  6 active torsions:
REMARK  status: ('A' for Active; 'I' for Inactive)
REMARK    1  A    between atoms: C_1  and  C_2
REMARK    2  A    between atoms: C_4  and  C_5
REMARK    3  A    between atoms: C_12  and  C_13
REMARK    4  A    between atoms: C_15  and  C_16
REMARK    5  A    between atoms: C_23  and  S_24
REMARK    6  A    between atoms: S_24  and  C_27
REMARK                            x       y       z     vdW  Elec       q    Type
REMARK                         _______ _______ _______ _____ _____    ______ ____
ROOT
ATOM      1  C   UNL     1      -0.234  11.318  19.566  0.00  0.00    +0.000 A 
ATOM      2  N   UNL     1      -1.553  11.088  19.345  0.00  0.00    +0.000 NA
ATOM      3  C   UNL     1      -2.390  12.131  19.293  0.00  0.00    +0.000 A 
ATOM      4  N   UNL     1      -2.023  13.407  19.457  0.00  0.00    +0.000 NA
ATOM      5  C   UNL     1      -0.709  13.610  19.686  0.00  0.00    +0.000 A 
ATOM      6  C   UNL     1       0.237  12.601  19.764  0.00  0.00    +0.000 A 
ENDROOT
BRANCH   1  12
ATOM      7  C   UNL     1       0.625   9.477  22.131  0.00  0.00    +0.000 C 
ATOM      8  C   UNL     1       0.875   9.246  20.677  0.00  0.00    +0.000 A 
ATOM      9  N   UNL     1       1.606   8.112  20.347  0.00  0.00    +0.000 NA
ATOM     10  C   UNL     1       1.896   8.099  19.064  0.00  0.00    +0.000 A 
ATOM     11  S   UNL     1       1.268   9.433  18.191  0.00  0.00    +0.000 S 
ATOM     12  C   UNL     1       0.498  10.043  19.595  0.00  0.00    +0.000 A 
BRANCH  10  13
ATOM     13  C   UNL     1       2.796   7.119  18.428  0.00  0.00    +0.000 A 
ATOM     14  C   UNL     1       3.769   7.577  17.524  0.00  0.00    +0.000 A 
ATOM     15  C   UNL     1       4.545   6.681  16.785  0.00  0.00    +0.000 A 
ATOM     16  C   UNL     1       4.368   5.308  16.949  0.00  0.00    +0.000 A 
ATOM     17  C   UNL     1       3.447   4.834  17.876  0.00  0.00    +0.000 A 
ATOM     18  C   UNL     1       2.676   5.731  18.620  0.00  0.00    +0.000 A 
ENDBRANCH  10  13
ENDBRANCH   1  12
BRANCH   3  19
ATOM     19  C   UNL     1      -3.790  11.873  18.958  0.00  0.00    +0.000 A 
ATOM     20  C   UNL     1      -4.309  11.193  17.870  0.00  0.00    +0.000 A 
ATOM     21  C   UNL     1      -5.732  11.115  17.891  0.00  0.00    +0.000 A 
ATOM     22  C   UNL     1      -6.265  11.757  18.984  0.00  0.00    +0.000 A 
ATOM     23  S   UNL     1      -5.055  12.442  19.976  0.00  0.00    +0.000 S 
ENDBRANCH   3  19
BRANCH   6  24
ATOM     24  S   UNL     1       1.908  13.096  19.951  0.00  0.00    +0.000 S 
ATOM     25  O   UNL     1       2.374  12.608  21.233  0.00  0.00    +0.000 OA
ATOM     26  O   UNL     1       2.603  12.678  18.746  0.00  0.00    +0.000 OA
BRANCH  24  27
ATOM     27  C   UNL     1       2.038  14.873  19.944  0.00  0.00    +0.000 A 
ATOM     28  C   UNL     1       2.018  15.557  21.171  0.00  0.00    +0.000 A 
ATOM     29  C   UNL     1       2.228  16.937  21.194  0.00  0.00    +0.000 A 
ATOM     30  C   UNL     1       2.441  17.635  20.005  0.00  0.00    +0.000 A 
ATOM     31  C   UNL     1       2.424  16.955  18.786  0.00  0.00    +0.000 A 
ATOM     32  C   UNL     1       2.222  15.576  18.750  0.00  0.00    +0.000 A 
ENDBRANCH  24  27
ENDBRANCH   6  24
TORSDOF 5
ENDMDL
MODEL 6
REMARK VINA RESULT:      -7.6      1.744      2.534
REMARK  Name = 
REMARK  6 active torsions:
REMARK  status: ('A' for Active; 'I' for Inactive)
REMARK    1  A    between atoms: C_1  and  C_2
REMARK    2  A    between atoms: C_4  and  C_5
REMARK    3  A    between atoms: C_12  and  C_13
REMARK    4  A    between atoms: C_15  and  C_16
REMARK    5  A    between atoms: C_23  and  S_24
REMARK    6  A    between atoms: S_24  and  C_27
REMARK                            x       y       z     vdW  Elec       q    Type
REMARK                         _______ _______ _______ _____ _____    ______ ____
ROOT
ATOM      1  C   UNL     1       0.978  11.661  18.890  0.00  0.00    +0.000 A 
ATOM      2  N   UNL     1       2.121  12.387  18.949  0.00  0.00    +0.000 NA
ATOM      3  C   UNL     1       2.049  13.718  18.812  0.00  0.00    +0.000 A 
ATOM      4  N   UNL     1       0.915  14.397  18.607  0.00  0.00    +0.000 NA
ATOM      5  C   UNL     1      -0.207  13.653  18.541  0.00  0.00    +0.000 A 
ATOM      6  C   UNL     1      -0.239  12.273  18.664  0.00  0.00    +0.000 A 
ENDROOT
BRANCH   1  12
ATOM      7  C   UNL     1       0.867   9.809  21.585  0.00  0.00    +0.000 C 
ATOM      8  C   UNL     1       1.246   9.427  20.192  0.00  0.00    +0.000 A 
ATOM      9  N   UNL     1       1.646   8.111  19.998  0.00  0.00    +0.000 NA
ATOM     10  C   UNL     1       2.102   7.935  18.777  0.00  0.00    +0.000 A 
ATOM     11  S   UNL     1       2.033   9.339  17.796  0.00  0.00    +0.000 S 
ATOM     12  C   UNL     1       1.285  10.231  19.052  0.00  0.00    +0.000 A 
BRANCH  10  13
ATOM     13  C   UNL     1       2.752   6.698  18.305  0.00  0.00    +0.000 A 
ATOM     14  C   UNL     1       3.968   6.793  17.608  0.00  0.00    +0.000 A 
ATOM     15  C   UNL     1       4.546   5.669  17.013  0.00  0.00    +0.000 A 
ATOM     16  C   UNL     1       3.923   4.428  17.118  0.00  0.00    +0.000 A 
ATOM     17  C   UNL     1       2.746   4.302  17.848  0.00  0.00    +0.000 A 
ATOM     18  C   UNL     1       2.171   5.425  18.448  0.00  0.00    +0.000 A 
ENDBRANCH  10  13
ENDBRANCH   1  12
BRANCH   3  19
ATOM     19  C   UNL     1       3.277  14.493  18.975  0.00  0.00    +0.000 A 
ATOM     20  C   UNL     1       4.374  14.566  18.133  0.00  0.00    +0.000 A 
ATOM     21  C   UNL     1       5.382  15.455  18.609  0.00  0.00    +0.000 A 
ATOM     22  C   UNL     1       5.037  16.023  19.813  0.00  0.00    +0.000 A 
ATOM     23  S   UNL     1       3.509  15.489  20.358  0.00  0.00    +0.000 S 
ENDBRANCH   3  19
BRANCH   6  24
ATOM     24  S   UNL     1      -1.820  11.515  18.667  0.00  0.00    +0.000 S 
ATOM     25  O   UNL     1      -2.471  11.842  17.414  0.00  0.00    +0.000 OA
ATOM     26  O   UNL     1      -1.612  10.119  19.008  0.00  0.00    +0.000 OA
BRANCH  24  27
ATOM     27  C   UNL     1      -2.815  12.154  20.001  0.00  0.00    +0.000 A 
ATOM     28  C   UNL     1      -4.164  12.458  19.752  0.00  0.00    +0.000 A 
ATOM     29  C   UNL     1      -4.987  12.854  20.808  0.00  0.00    +0.000 A 
ATOM     30  C   UNL     1      -4.470  12.962  22.099  0.00  0.00    +0.000 A 
ATOM     31  C   UNL     1      -3.121  12.692  22.334  0.00  0.00    +0.000 A 
ATOM     32  C   UNL     1      -2.290  12.289  21.289  0.00  0.00    +0.000 A 
ENDBRANCH  24  27
ENDBRANCH   6  24
TORSDOF 5
ENDMDL
MODEL 7
REMARK VINA RESULT:      -7.6      1.387      1.997
REMARK  Name = 
REMARK  6 active torsions:
REMARK  status: ('A' for Active; 'I' for Inactive)
REMARK    1  A    between atoms: C_1  and  C_2
REMARK    2  A    between atoms: C_4  and  C_5
REMARK    3  A    between atoms: C_12  and  C_13
REMARK    4  A    between atoms: C_15  and  C_16
REMARK    5  A    between atoms: C_23  and  S_24
REMARK    6  A    between atoms: S_24  and  C_27
REMARK                            x       y       z     vdW  Elec       q    Type
REMARK                         _______ _______ _______ _____ _____    ______ ____
ROOT
ATOM      1  C   UNL     1       0.586  11.107  18.914  0.00  0.00    +0.000 A 
ATOM      2  N   UNL     1       1.551  12.008  19.226  0.00  0.00    +0.000 NA
ATOM      3  C   UNL     1       1.312  13.308  19.015  0.00  0.00    +0.000 A 
ATOM      4  N   UNL     1       0.178  13.797  18.501  0.00  0.00    +0.000 NA
ATOM      5  C   UNL     1      -0.762  12.882  18.190  0.00  0.00    +0.000 A 
ATOM      6  C   UNL     1      -0.612  11.515  18.363  0.00  0.00    +0.000 A 
ENDROOT
BRANCH   1  12
ATOM      7  C   UNL     1       0.840   9.587  21.801  0.00  0.00    +0.000 C 
ATOM      8  C   UNL     1       1.174   9.083  20.436  0.00  0.00    +0.000 A 
ATOM      9  N   UNL     1       1.704   7.802  20.362  0.00  0.00    +0.000 NA
ATOM     10  C   UNL     1       2.103   7.529  19.139  0.00  0.00    +0.000 A 
ATOM     11  S   UNL     1       1.823   8.792  18.014  0.00  0.00    +0.000 S 
ATOM     12  C   UNL     1       1.057   9.746  19.213  0.00  0.00    +0.000 A 
BRANCH  10  13
ATOM     13  C   UNL     1       2.856   6.317  18.763  0.00  0.00    +0.000 A 
ATOM     14  C   UNL     1       2.254   5.383  17.903  0.00  0.00    +0.000 A 
ATOM     15  C   UNL     1       2.862   4.154  17.636  0.00  0.00    +0.000 A 
ATOM     16  C   UNL     1       4.092   3.846  18.214  0.00  0.00    +0.000 A 
ATOM     17  C   UNL     1       4.729   4.778  19.026  0.00  0.00    +0.000 A 
ATOM     18  C   UNL     1       4.123   6.009  19.289  0.00  0.00    +0.000 A 
ENDBRANCH  10  13
ENDBRANCH   1  12
BRANCH   3  19
ATOM     19  C   UNL     1       2.324  14.271  19.446  0.00  0.00    +0.000 A 
ATOM     20  C   UNL     1       2.736  15.435  18.818  0.00  0.00    +0.000 A 
ATOM     21  C   UNL     1       3.733  16.140  19.554  0.00  0.00    +0.000 A 
ATOM     22  C   UNL     1       4.072  15.487  20.715  0.00  0.00    +0.000 A 
ATOM     23  S   UNL     1       3.189  14.038  20.914  0.00  0.00    +0.000 S 
ENDBRANCH   3  19
BRANCH   6  24
ATOM     24  S   UNL     1      -2.006  10.515  18.004  0.00  0.00    +0.000 S 
ATOM     25  O   UNL     1      -1.878  10.051  16.637  0.00  0.00    +0.000 OA
ATOM     26  O   UNL     1      -2.102   9.535  19.071  0.00  0.00    +0.000 OA
BRANCH  24  27
ATOM     27  C   UNL     1      -3.508  11.465  18.137  0.00  0.00    +0.000 A 
ATOM     28  C   UNL     1      -4.343  11.571  17.013  0.00  0.00    +0.000 A 
ATOM     29  C   UNL     1      -5.575  12.217  17.128  0.00  0.00    +0.000 A 
ATOM     30  C   UNL     1      -5.968  12.767  18.348  0.00  0.00    +0.000 A 
ATOM     31  C   UNL     1      -5.119  12.689  19.453  0.00  0.00    +0.000 A 
ATOM     32  C   UNL     1      -3.888  12.040  19.353  0.00  0.00    +0.000 A 
ENDBRANCH  24  27
ENDBRANCH   6  24
TORSDOF 5
ENDMDL
MODEL 8
REMARK VINA RESULT:      -7.6      1.749      2.484
REMARK  Name = 
REMARK  6 active torsions:
REMARK  status: ('A' for Active; 'I' for Inactive)
REMARK    1  A    between atoms: C_1  and  C_2
REMARK    2  A    between atoms: C_4  and  C_5
REMARK    3  A    between atoms: C_12  and  C_13
REMARK    4  A    between atoms: C_15  and  C_16
REMARK    5  A    between atoms: C_23  and  S_24
REMARK    6  A    between atoms: S_24  and  C_27
REMARK                            x       y       z     vdW  Elec       q    Type
REMARK                         _______ _______ _______ _____ _____    ______ ____
ROOT
ATOM      1  C   UNL     1       0.924  11.623  18.877  0.00  0.00    +0.000 A 
ATOM      2  N   UNL     1       2.049  12.369  19.010  0.00  0.00    +0.000 NA
ATOM      3  C   UNL     1       1.962  13.699  18.880  0.00  0.00    +0.000 A 
ATOM      4  N   UNL     1       0.831  14.361  18.614  0.00  0.00    +0.000 NA
ATOM      5  C   UNL     1      -0.273  13.599  18.477  0.00  0.00    +0.000 A 
ATOM      6  C   UNL     1      -0.288  12.217  18.586  0.00  0.00    +0.000 A 
ENDROOT
BRANCH   1  12
ATOM      7  C   UNL     1       0.882   9.794  21.590  0.00  0.00    +0.000 C 
ATOM      8  C   UNL     1       1.236   9.403  20.193  0.00  0.00    +0.000 A 
ATOM      9  N   UNL     1       1.642   8.089  20.002  0.00  0.00    +0.000 NA
ATOM     10  C   UNL     1       2.075   7.906  18.774  0.00  0.00    +0.000 A 
ATOM     11  S   UNL     1       1.976   9.301  17.782  0.00  0.00    +0.000 S 
ATOM     12  C   UNL     1       1.245  10.198  19.046  0.00  0.00    +0.000 A 
BRANCH  10  13
ATOM     13  C   UNL     1       2.726   6.670  18.299  0.00  0.00    +0.000 A 
ATOM     14  C   UNL     1       3.974   6.761  17.661  0.00  0.00    +0.000 A 
ATOM     15  C   UNL     1       4.561   5.644  17.063  0.00  0.00    +0.000 A 
ATOM     16  C   UNL     1       3.913   4.411  17.106  0.00  0.00    +0.000 A 
ATOM     17  C   UNL     1       2.702   4.287  17.778  0.00  0.00    +0.000 A 
ATOM     18  C   UNL     1       2.118   5.405  18.381  0.00  0.00    +0.000 A 
ENDBRANCH  10  13
ENDBRANCH   1  12
BRANCH   3  19
ATOM     19  C   UNL     1       3.165  14.493  19.121  0.00  0.00    +0.000 A 
ATOM     20  C   UNL     1       3.893  14.630  20.291  0.00  0.00    +0.000 A 
ATOM     21  C   UNL     1       5.034  15.473  20.140  0.00  0.00    +0.000 A 
ATOM     22  C   UNL     1       5.135  15.975  18.864  0.00  0.00    +0.000 A 
ATOM     23  S   UNL     1       3.867  15.428  17.859  0.00  0.00    +0.000 S 
ENDBRANCH   3  19
BRANCH   6  24
ATOM     24  S   UNL     1      -1.853  11.433  18.490  0.00  0.00    +0.000 S 
ATOM     25  O   UNL     1      -2.423  11.739  17.194  0.00  0.00    +0.000 OA
ATOM     26  O   UNL     1      -1.646  10.044  18.856  0.00  0.00    +0.000 OA
BRANCH  24  27
ATOM     27  C   UNL     1      -2.946  12.065  19.748  0.00  0.00    +0.000 A 
ATOM     28  C   UNL     1      -2.418  12.360  21.016  0.00  0.00    +0.000 A 
ATOM     29  C   UNL     1      -3.232  12.958  21.979  0.00  0.00    +0.000 A 
ATOM     30  C   UNL     1      -4.566  13.246  21.690  0.00  0.00    +0.000 A 
ATOM     31  C   UNL     1      -5.095  12.919  20.441  0.00  0.00    +0.000 A 
ATOM     32  C   UNL     1      -4.289  12.328  19.467  0.00  0.00    +0.000 A 
ENDBRANCH  24  27
ENDBRANCH   6  24
TORSDOF 5
ENDMDL
MODEL 9
REMARK VINA RESULT:      -7.5      2.689      6.025
REMARK  Name = 
REMARK  6 active torsions:
REMARK  status: ('A' for Active; 'I' for Inactive)
REMARK    1  A    between atoms: C_1  and  C_2
REMARK    2  A    between atoms: C_4  and  C_5
REMARK    3  A    between atoms: C_12  and  C_13
REMARK    4  A    between atoms: C_15  and  C_16
REMARK    5  A    between atoms: C_23  and  S_24
REMARK    6  A    between atoms: S_24  and  C_27
REMARK                            x       y       z     vdW  Elec       q    Type
REMARK                         _______ _______ _______ _____ _____    ______ ____
ROOT
ATOM      1  C   UNL     1      -0.973  11.828  20.420  0.00  0.00    +0.000 A 
ATOM      2  N   UNL     1      -2.262  11.603  20.062  0.00  0.00    +0.000 NA
ATOM      3  C   UNL     1      -3.114  12.636  20.037  0.00  0.00    +0.000 A 
ATOM      4  N   UNL     1      -2.790  13.894  20.354  0.00  0.00    +0.000 NA
ATOM      5  C   UNL     1      -1.506  14.091  20.717  0.00  0.00    +0.000 A 
ATOM      6  C   UNL     1      -0.549  13.091  20.781  0.00  0.00    +0.000 A 
ENDROOT
BRANCH   1  12
ATOM      7  C   UNL     1      -0.191   9.821  22.883  0.00  0.00    +0.000 C 
ATOM      8  C   UNL     1       0.126   9.699  21.429  0.00  0.00    +0.000 A 
ATOM      9  N   UNL     1       0.892   8.604  21.051  0.00  0.00    +0.000 NA
ATOM     10  C   UNL     1       1.238   8.687  19.785  0.00  0.00    +0.000 A 
ATOM     11  S   UNL     1       0.623  10.071  18.982  0.00  0.00    +0.000 S 
ATOM     12  C   UNL     1      -0.218  10.566  20.390  0.00  0.00    +0.000 A 
BRANCH  10  13
ATOM     13  C   UNL     1       2.183   7.770  19.121  0.00  0.00    +0.000 A 
ATOM     14  C   UNL     1       2.538   6.574  19.768  0.00  0.00    +0.000 A 
ATOM     15  C   UNL     1       3.538   5.746  19.253  0.00  0.00    +0.000 A 
ATOM     16  C   UNL     1       4.191   6.094  18.073  0.00  0.00    +0.000 A 
ATOM     17  C   UNL     1       3.819   7.247  17.389  0.00  0.00    +0.000 A 
ATOM     18  C   UNL     1       2.814   8.072  17.901  0.00  0.00    +0.000 A 
ENDBRANCH  10  13
ENDBRANCH   1  12
BRANCH   3  19
ATOM     19  C   UNL     1      -4.473  12.393  19.556  0.00  0.00    +0.000 A 
ATOM     20  C   UNL     1      -5.671  12.861  20.070  0.00  0.00    +0.000 A 
ATOM     21  C   UNL     1      -6.803  12.438  19.314  0.00  0.00    +0.000 A 
ATOM     22  C   UNL     1      -6.443  11.639  18.254  0.00  0.00    +0.000 A 
ATOM     23  S   UNL     1      -4.752  11.410  18.172  0.00  0.00    +0.000 S 
ENDBRANCH   3  19
BRANCH   6  24
ATOM     24  S   UNL     1       1.089  13.587  21.161  0.00  0.00    +0.000 S 
ATOM     25  O   UNL     1       1.030  14.468  22.311  0.00  0.00    +0.000 OA
ATOM     26  O   UNL     1       1.882  12.374  21.246  0.00  0.00    +0.000 OA
BRANCH  24  27
ATOM     27  C   UNL     1       1.801  14.489  19.798  0.00  0.00    +0.000 A 
ATOM     28  C   UNL     1       1.594  15.875  19.724  0.00  0.00    +0.000 A 
ATOM     29  C   UNL     1       2.233  16.615  18.727  0.00  0.00    +0.000 A 
ATOM     30  C   UNL     1       3.060  15.979  17.802  0.00  0.00    +0.000 A 
ATOM     31  C   UNL     1       3.234  14.595  17.859  0.00  0.00    +0.000 A 
ATOM     32  C   UNL     1       2.606  13.846  18.855  0.00  0.00    +0.000 A 
ENDBRANCH  24  27
ENDBRANCH   6  24
TORSDOF 5
ENDMDL
