MODEL 1
REMARK VINA RESULT:      -8.4      0.000      0.000
REMARK  Name = 
REMARK  10 active torsions:
REMARK  status: ('A' for Active; 'I' for Inactive)
REMARK    1  A    between atoms: C_1  and  C_2
REMARK    2  A    between atoms: C_8  and  C_9
REMARK    3  A    between atoms: C_11  and  O_12
REMARK    4  A    between atoms: O_12  and  C_13
REMARK    5  A    between atoms: C_13  and  C_14
REMARK    6  A    between atoms: C_14  and  N_15
REMARK    7  A    between atoms: C_14  and  C_16
REMARK    8  A    between atoms: C_16  and  C_17
REMARK    9  A    between atoms: C_26  and  C_27
REMARK   10  A    between atoms: C_30  and  C_31
REMARK                            x       y       z     vdW  Elec       q    Type
REMARK                         _______ _______ _______ _____ _____    ______ ____
ROOT
ATOM      1  C   UNL     1       2.438   6.434  19.325  0.00  0.00    +0.000 A 
ATOM      2  C   UNL     1       2.324   7.823  19.092  0.00  0.00    +0.000 A 
ATOM      3  C   UNL     1       1.550   8.662  19.904  0.00  0.00    +0.000 A 
ATOM      4  C   UNL     1       0.843   8.062  20.939  0.00  0.00    +0.000 A 
ATOM      5  N   UNL     1       0.940   6.738  21.219  0.00  0.00    +0.000 NA
ATOM      6  C   UNL     1       1.732   5.947  20.440  0.00  0.00    +0.000 A 
ENDROOT
BRANCH   1  14
ATOM      7  C   UNL     1       7.538   6.350  17.075  0.00  0.00    +0.000 C 
ATOM      8  C   UNL     1       6.515   5.318  16.781  0.00  0.00    +0.000 A 
ATOM      9  N   UNL     1       6.754   4.349  15.878  0.00  0.00    +0.000 NA
ATOM     10  N   UNL     1       5.601   3.643  15.859  0.00  0.00    +0.000 N 
ATOM     11  C   UNL     1       4.632   4.144  16.676  0.00  0.00    +0.000 A 
ATOM     12  N   UNL     1       3.364   3.711  16.824  0.00  0.00    +0.000 NA
ATOM     13  C   UNL     1       2.693   4.503  17.705  0.00  0.00    +0.000 A 
ATOM     14  C   UNL     1       3.235   5.596  18.399  0.00  0.00    +0.000 A 
ATOM     15  N   UNL     1       4.536   5.948  18.251  0.00  0.00    +0.000 NA
ATOM     16  C   UNL     1       5.214   5.215  17.330  0.00  0.00    +0.000 A 
ATOM     17  H   UNL     1       5.529   2.837  15.252  0.00  0.00    +0.000 HD
ENDBRANCH   1  14
BRANCH   6  18
ATOM     18  C   UNL     1       1.790   4.569  20.920  0.00  0.00    +0.000 A 
ATOM     19  C   UNL     1       0.962   3.438  20.663  0.00  0.00    +0.000 A 
ATOM     20  C   UNL     1       1.450   2.409  21.433  0.00  0.00    +0.000 A 
ATOM     21  O   UNL     1       2.569   2.801  22.091  0.00  0.00    +0.000 OA
ATOM     22  C   UNL     1       2.781   4.102  21.764  0.00  0.00    +0.000 A 
ENDBRANCH   6  18
BRANCH   4  23
ATOM     23  C   UNL     1      -0.079   8.760  21.788  0.00  0.00    +0.000 C 
ATOM     24  N   UNL     1      -0.859   9.331  22.438  0.00  0.00    +0.000 NA
ENDBRANCH   4  23
BRANCH   3  25
ATOM     25  O   UNL     1       1.558   9.968  19.505  0.00  0.00    +0.000 OA
BRANCH  25  26
ATOM     26  C   UNL     1       0.594  10.391  18.529  0.00  0.00    +0.000 C 
BRANCH  26  27
ATOM     27  C   UNL     1      -0.466  11.297  19.202  0.00  0.00    +0.000 C 
BRANCH  27  28
ATOM     28  N   UNL     1       0.176  12.088  20.276  0.00  0.00    +0.000 NA
ATOM     29  H   UNL     1       1.187  12.019  20.174  0.00  0.00    +0.000 HD
ATOM     30  H   UNL     1      -0.061  11.699  21.186  0.00  0.00    +0.000 HD
ENDBRANCH  27  28
BRANCH  27  31
ATOM     31  C   UNL     1      -1.170  12.190  18.150  0.00  0.00    +0.000 C 
BRANCH  31  32
ATOM     32  C   UNL     1      -2.520  11.682  17.734  0.00  0.00    +0.000 A 
ATOM     33  C   UNL     1      -2.794  11.024  16.551  0.00  0.00    +0.000 A 
ATOM     34  N   UNL     1      -4.135  10.770  16.498  0.00  0.00    +0.000 N 
ATOM     35  C   UNL     1      -4.751  11.227  17.637  0.00  0.00    +0.000 A 
ATOM     36  C   UNL     1      -6.102  11.191  18.000  0.00  0.00    +0.000 A 
ATOM     37  C   UNL     1      -6.456  11.736  19.236  0.00  0.00    +0.000 A 
ATOM     38  C   UNL     1      -5.492  12.286  20.077  0.00  0.00    +0.000 A 
ATOM     39  C   UNL     1      -4.144  12.319  19.695  0.00  0.00    +0.000 A 
ATOM     40  C   UNL     1      -3.760  11.787  18.446  0.00  0.00    +0.000 A 
ATOM     41  H   UNL     1      -4.614  10.324  15.728  0.00  0.00    +0.000 HD
ENDBRANCH  31  32
ENDBRANCH  27  31
ENDBRANCH  26  27
ENDBRANCH  25  26
ENDBRANCH   3  25
TORSDOF 9
ENDMDL
MODEL 2
REMARK VINA RESULT:      -8.2      2.410      3.907
REMARK  Name = 
REMARK  10 active torsions:
REMARK  status: ('A' for Active; 'I' for Inactive)
REMARK    1  A    between atoms: C_1  and  C_2
REMARK    2  A    between atoms: C_8  and  C_9
REMARK    3  A    between atoms: C_11  and  O_12
REMARK    4  A    between atoms: O_12  and  C_13
REMARK    5  A    between atoms: C_13  and  C_14
REMARK    6  A    between atoms: C_14  and  N_15
REMARK    7  A    between atoms: C_14  and  C_16
REMARK    8  A    between atoms: C_16  and  C_17
REMARK    9  A    between atoms: C_26  and  C_27
REMARK   10  A    between atoms: C_30  and  C_31
REMARK                            x       y       z     vdW  Elec       q    Type
REMARK                         _______ _______ _______ _____ _____    ______ ____
ROOT
ATOM      1  C   UNL     1       2.455   6.438  19.283  0.00  0.00    +0.000 A 
ATOM      2  C   UNL     1       2.345   7.822  19.027  0.00  0.00    +0.000 A 
ATOM      3  C   UNL     1       1.562   8.675  19.816  0.00  0.00    +0.000 A 
ATOM      4  C   UNL     1       0.843   8.093  20.852  0.00  0.00    +0.000 A 
ATOM      5  N   UNL     1       0.936   6.774  21.154  0.00  0.00    +0.000 NA
ATOM      6  C   UNL     1       1.735   5.969  20.397  0.00  0.00    +0.000 A 
ENDROOT
BRANCH   1  14
ATOM      7  C   UNL     1       7.570   6.328  17.071  0.00  0.00    +0.000 C 
ATOM      8  C   UNL     1       6.554   5.287  16.791  0.00  0.00    +0.000 A 
ATOM      9  N   UNL     1       6.803   4.300  15.910  0.00  0.00    +0.000 NA
ATOM     10  N   UNL     1       5.653   3.589  15.896  0.00  0.00    +0.000 N 
ATOM     11  C   UNL     1       4.676   4.103  16.696  0.00  0.00    +0.000 A 
ATOM     12  N   UNL     1       3.409   3.667  16.845  0.00  0.00    +0.000 NA
ATOM     13  C   UNL     1       2.729   4.475  17.705  0.00  0.00    +0.000 A 
ATOM     14  C   UNL     1       3.261   5.584  18.380  0.00  0.00    +0.000 A 
ATOM     15  N   UNL     1       4.563   5.938  18.233  0.00  0.00    +0.000 NA
ATOM     16  C   UNL     1       5.249   5.190  17.333  0.00  0.00    +0.000 A 
ATOM     17  H   UNL     1       5.588   2.770  15.306  0.00  0.00    +0.000 HD
ENDBRANCH   1  14
BRANCH   6  18
ATOM     18  C   UNL     1       1.786   4.600  20.900  0.00  0.00    +0.000 A 
ATOM     19  C   UNL     1       0.962   3.464  20.649  0.00  0.00    +0.000 A 
ATOM     20  C   UNL     1       1.439   2.448  21.442  0.00  0.00    +0.000 A 
ATOM     21  O   UNL     1       2.548   2.850  22.110  0.00  0.00    +0.000 OA
ATOM     22  C   UNL     1       2.765   4.145  21.766  0.00  0.00    +0.000 A 
ENDBRANCH   6  18
BRANCH   4  23
ATOM     23  C   UNL     1      -0.088   8.805  21.679  0.00  0.00    +0.000 C 
ATOM     24  N   UNL     1      -0.807   9.417  22.362  0.00  0.00    +0.000 NA
ENDBRANCH   4  23
BRANCH   3  25
ATOM     25  O   UNL     1       1.576   9.975  19.396  0.00  0.00    +0.000 OA
BRANCH  25  26
ATOM     26  C   UNL     1       0.522  10.426  18.532  0.00  0.00    +0.000 C 
BRANCH  26  27
ATOM     27  C   UNL     1      -0.032  11.777  19.048  0.00  0.00    +0.000 C 
BRANCH  27  28
ATOM     28  N   UNL     1      -1.262  11.535  19.833  0.00  0.00    +0.000 NA
ATOM     29  H   UNL     1      -1.721  12.427  20.007  0.00  0.00    +0.000 HD
ATOM     30  H   UNL     1      -1.027  11.137  20.740  0.00  0.00    +0.000 HD
ENDBRANCH  27  28
BRANCH  27  31
ATOM     31  C   UNL     1       1.048  12.537  19.859  0.00  0.00    +0.000 C 
BRANCH  31  32
ATOM     32  C   UNL     1       1.850  13.503  19.037  0.00  0.00    +0.000 A 
ATOM     33  C   UNL     1       3.049  13.216  18.414  0.00  0.00    +0.000 A 
ATOM     34  N   UNL     1       3.508  14.354  17.814  0.00  0.00    +0.000 N 
ATOM     35  C   UNL     1       2.622  15.385  18.009  0.00  0.00    +0.000 A 
ATOM     36  C   UNL     1       2.692  16.717  17.587  0.00  0.00    +0.000 A 
ATOM     37  C   UNL     1       1.635  17.563  17.930  0.00  0.00    +0.000 A 
ATOM     38  C   UNL     1       0.548  17.087  18.659  0.00  0.00    +0.000 A 
ATOM     39  C   UNL     1       0.497  15.751  19.079  0.00  0.00    +0.000 A 
ATOM     40  C   UNL     1       1.557  14.879  18.756  0.00  0.00    +0.000 A 
ATOM     41  H   UNL     1       4.380  14.436  17.310  0.00  0.00    +0.000 HD
ENDBRANCH  31  32
ENDBRANCH  27  31
ENDBRANCH  26  27
ENDBRANCH  25  26
ENDBRANCH   3  25
TORSDOF 9
ENDMDL
MODEL 3
REMARK VINA RESULT:      -8.1      1.236      1.966
REMARK  Name = 
REMARK  10 active torsions:
REMARK  status: ('A' for Active; 'I' for Inactive)
REMARK    1  A    between atoms: C_1  and  C_2
REMARK    2  A    between atoms: C_8  and  C_9
REMARK    3  A    between atoms: C_11  and  O_12
REMARK    4  A    between atoms: O_12  and  C_13
REMARK    5  A    between atoms: C_13  and  C_14
REMARK    6  A    between atoms: C_14  and  N_15
REMARK    7  A    between atoms: C_14  and  C_16
REMARK    8  A    between atoms: C_16  and  C_17
REMARK    9  A    between atoms: C_26  and  C_27
REMARK   10  A    between atoms: C_30  and  C_31
REMARK                            x       y       z     vdW  Elec       q    Type
REMARK                         _______ _______ _______ _____ _____    ______ ____
ROOT
ATOM      1  C   UNL     1       2.727   6.386  19.458  0.00  0.00    +0.000 A 
ATOM      2  C   UNL     1       2.612   7.791  19.368  0.00  0.00    +0.000 A 
ATOM      3  C   UNL     1       1.688   8.522  20.127  0.00  0.00    +0.000 A 
ATOM      4  C   UNL     1       0.838   7.798  20.954  0.00  0.00    +0.000 A 
ATOM      5  N   UNL     1       0.928   6.452  21.095  0.00  0.00    +0.000 NA
ATOM      6  C   UNL     1       1.861   5.765  20.376  0.00  0.00    +0.000 A 
ENDROOT
BRANCH   1  14
ATOM      7  C   UNL     1       8.239   5.701  18.981  0.00  0.00    +0.000 C 
ATOM      8  C   UNL     1       7.270   5.069  18.055  0.00  0.00    +0.000 A 
ATOM      9  N   UNL     1       7.694   4.358  16.994  0.00  0.00    +0.000 NA
ATOM     10  N   UNL     1       6.547   3.984  16.384  0.00  0.00    +0.000 N 
ATOM     11  C   UNL     1       5.420   4.458  16.986  0.00  0.00    +0.000 A 
ATOM     12  N   UNL     1       4.141   4.319  16.584  0.00  0.00    +0.000 NA
ATOM     13  C   UNL     1       3.303   4.975  17.434  0.00  0.00    +0.000 A 
ATOM     14  C   UNL     1       3.691   5.670  18.590  0.00  0.00    +0.000 A 
ATOM     15  N   UNL     1       4.991   5.725  18.975  0.00  0.00    +0.000 NA
ATOM     16  C   UNL     1       5.856   5.134  18.112  0.00  0.00    +0.000 A 
ATOM     17  H   UNL     1       6.597   3.419  15.546  0.00  0.00    +0.000 HD
ENDBRANCH   1  14
BRANCH   6  18
ATOM     18  C   UNL     1       1.880   4.342  20.701  0.00  0.00    +0.000 A 
ATOM     19  C   UNL     1       2.536   3.612  21.735  0.00  0.00    +0.000 A 
ATOM     20  C   UNL     1       2.249   2.285  21.524  0.00  0.00    +0.000 A 
ATOM     21  O   UNL     1       1.397   2.146  20.478  0.00  0.00    +0.000 OA
ATOM     22  C   UNL     1       1.163   3.393  19.995  0.00  0.00    +0.000 A 
ENDBRANCH   6  18
BRANCH   4  23
ATOM     23  C   UNL     1      -0.232   8.383  21.709  0.00  0.00    +0.000 C 
ATOM     24  N   UNL     1      -1.125   8.814  22.320  0.00  0.00    +0.000 NA
ENDBRANCH   4  23
BRANCH   3  25
ATOM     25  O   UNL     1       1.723   9.866  19.884  0.00  0.00    +0.000 OA
BRANCH  25  26
ATOM     26  C   UNL     1       0.873  10.397  18.858  0.00  0.00    +0.000 C 
BRANCH  26  27
ATOM     27  C   UNL     1       0.147  11.659  19.384  0.00  0.00    +0.000 C 
BRANCH  27  28
ATOM     28  N   UNL     1       0.031  12.650  18.292  0.00  0.00    +0.000 NA
ATOM     29  H   UNL     1       0.725  13.381  18.437  0.00  0.00    +0.000 HD
ATOM     30  H   UNL     1      -0.884  13.095  18.319  0.00  0.00    +0.000 HD
ENDBRANCH  27  28
BRANCH  27  31
ATOM     31  C   UNL     1      -1.228  11.286  19.993  0.00  0.00    +0.000 C 
BRANCH  31  32
ATOM     32  C   UNL     1      -2.388  11.568  19.082  0.00  0.00    +0.000 A 
ATOM     33  C   UNL     1      -3.419  12.447  19.354  0.00  0.00    +0.000 A 
ATOM     34  N   UNL     1      -4.315  12.394  18.324  0.00  0.00    +0.000 N 
ATOM     35  C   UNL     1      -3.883  11.512  17.364  0.00  0.00    +0.000 A 
ATOM     36  C   UNL     1      -4.485  11.138  16.157  0.00  0.00    +0.000 A 
ATOM     37  C   UNL     1      -3.816  10.207  15.359  0.00  0.00    +0.000 A 
ATOM     38  C   UNL     1      -2.588   9.681  15.753  0.00  0.00    +0.000 A 
ATOM     39  C   UNL     1      -2.002  10.062  16.968  0.00  0.00    +0.000 A 
ATOM     40  C   UNL     1      -2.663  10.991  17.799  0.00  0.00    +0.000 A 
ATOM     41  H   UNL     1      -5.179  12.914  18.277  0.00  0.00    +0.000 HD
ENDBRANCH  31  32
ENDBRANCH  27  31
ENDBRANCH  26  27
ENDBRANCH  25  26
ENDBRANCH   3  25
TORSDOF 9
ENDMDL
MODEL 4
REMARK VINA RESULT:      -8.1      1.746      2.574
REMARK  Name = 
REMARK  10 active torsions:
REMARK  status: ('A' for Active; 'I' for Inactive)
REMARK    1  A    between atoms: C_1  and  C_2
REMARK    2  A    between atoms: C_8  and  C_9
REMARK    3  A    between atoms: C_11  and  O_12
REMARK    4  A    between atoms: O_12  and  C_13
REMARK    5  A    between atoms: C_13  and  C_14
REMARK    6  A    between atoms: C_14  and  N_15
REMARK    7  A    between atoms: C_14  and  C_16
REMARK    8  A    between atoms: C_16  and  C_17
REMARK    9  A    between atoms: C_26  and  C_27
REMARK   10  A    between atoms: C_30  and  C_31
REMARK                            x       y       z     vdW  Elec       q    Type
REMARK                         _______ _______ _______ _____ _____    ______ ____
ROOT
ATOM      1  C   UNL     1       2.469   6.401  19.304  0.00  0.00    +0.000 A 
ATOM      2  C   UNL     1       2.343   7.785  19.055  0.00  0.00    +0.000 A 
ATOM      3  C   UNL     1       1.546   8.623  19.847  0.00  0.00    +0.000 A 
ATOM      4  C   UNL     1       0.830   8.025  20.876  0.00  0.00    +0.000 A 
ATOM      5  N   UNL     1       0.939   6.705  21.171  0.00  0.00    +0.000 NA
ATOM      6  C   UNL     1       1.751   5.916  20.412  0.00  0.00    +0.000 A 
ENDROOT
BRANCH   1  14
ATOM      7  C   UNL     1       7.595   6.369  17.114  0.00  0.00    +0.000 C 
ATOM      8  C   UNL     1       6.593   5.317  16.822  0.00  0.00    +0.000 A 
ATOM      9  N   UNL     1       6.858   4.340  15.935  0.00  0.00    +0.000 NA
ATOM     10  N   UNL     1       5.716   3.615  15.911  0.00  0.00    +0.000 N 
ATOM     11  C   UNL     1       4.730   4.111  16.710  0.00  0.00    +0.000 A 
ATOM     12  N   UNL     1       3.468   3.659  16.850  0.00  0.00    +0.000 NA
ATOM     13  C   UNL     1       2.774   4.452  17.713  0.00  0.00    +0.000 A 
ATOM     14  C   UNL     1       3.290   5.564  18.398  0.00  0.00    +0.000 A 
ATOM     15  N   UNL     1       4.588   5.934  18.260  0.00  0.00    +0.000 NA
ATOM     16  C   UNL     1       5.287   5.200  17.357  0.00  0.00    +0.000 A 
ATOM     17  H   UNL     1       5.664   2.799  15.315  0.00  0.00    +0.000 HD
ENDBRANCH   1  14
BRANCH   6  18
ATOM     18  C   UNL     1       1.818   4.544  20.907  0.00  0.00    +0.000 A 
ATOM     19  C   UNL     1       0.949   3.428  20.733  0.00  0.00    +0.000 A 
ATOM     20  C   UNL     1       1.475   2.399  21.477  0.00  0.00    +0.000 A 
ATOM     21  O   UNL     1       2.651   2.774  22.037  0.00  0.00    +0.000 OA
ATOM     22  C   UNL     1       2.864   4.065  21.675  0.00  0.00    +0.000 A 
ENDBRANCH   6  18
BRANCH   4  23
ATOM     23  C   UNL     1      -0.113   8.720  21.704  0.00  0.00    +0.000 C 
ATOM     24  N   UNL     1      -0.840   9.312  22.395  0.00  0.00    +0.000 NA
ENDBRANCH   4  23
BRANCH   3  25
ATOM     25  O   UNL     1       1.545   9.926  19.435  0.00  0.00    +0.000 OA
BRANCH  25  26
ATOM     26  C   UNL     1       0.368  10.439  18.793  0.00  0.00    +0.000 C 
BRANCH  26  27
ATOM     27  C   UNL     1       0.154  11.916  19.203  0.00  0.00    +0.000 C 
BRANCH  27  28
ATOM     28  N   UNL     1       0.631  12.800  18.117  0.00  0.00    +0.000 NA
ATOM     29  H   UNL     1       0.896  13.698  18.517  0.00  0.00    +0.000 HD
ATOM     30  H   UNL     1      -0.120  12.978  17.453  0.00  0.00    +0.000 HD
ENDBRANCH  27  28
BRANCH  27  31
ATOM     31  C   UNL     1      -1.330  12.174  19.567  0.00  0.00    +0.000 C 
BRANCH  31  32
ATOM     32  C   UNL     1      -1.542  12.545  21.006  0.00  0.00    +0.000 A 
ATOM     33  C   UNL     1      -0.539  12.745  21.934  0.00  0.00    +0.000 A 
ATOM     34  N   UNL     1      -1.116  13.008  23.144  0.00  0.00    +0.000 N 
ATOM     35  C   UNL     1      -2.484  13.009  23.029  0.00  0.00    +0.000 A 
ATOM     36  C   UNL     1      -3.464  13.218  24.005  0.00  0.00    +0.000 A 
ATOM     37  C   UNL     1      -4.801  13.163  23.604  0.00  0.00    +0.000 A 
ATOM     38  C   UNL     1      -5.139  12.918  22.275  0.00  0.00    +0.000 A 
ATOM     39  C   UNL     1      -4.144  12.705  21.311  0.00  0.00    +0.000 A 
ATOM     40  C   UNL     1      -2.786  12.743  21.692  0.00  0.00    +0.000 A 
ATOM     41  H   UNL     1      -0.614  13.165  24.007  0.00  0.00    +0.000 HD
ENDBRANCH  31  32
ENDBRANCH  27  31
ENDBRANCH  26  27
ENDBRANCH  25  26
ENDBRANCH   3  25
TORSDOF 9
ENDMDL
MODEL 5
REMARK VINA RESULT:      -8.1      2.340      3.980
REMARK  Name = 
REMARK  10 active torsions:
REMARK  status: ('A' for Active; 'I' for Inactive)
REMARK    1  A    between atoms: C_1  and  C_2
REMARK    2  A    between atoms: C_8  and  C_9
REMARK    3  A    between atoms: C_11  and  O_12
REMARK    4  A    between atoms: O_12  and  C_13
REMARK    5  A    between atoms: C_13  and  C_14
REMARK    6  A    between atoms: C_14  and  N_15
REMARK    7  A    between atoms: C_14  and  C_16
REMARK    8  A    between atoms: C_16  and  C_17
REMARK    9  A    between atoms: C_26  and  C_27
REMARK   10  A    between atoms: C_30  and  C_31
REMARK                            x       y       z     vdW  Elec       q    Type
REMARK                         _______ _______ _______ _____ _____    ______ ____
ROOT
ATOM      1  C   UNL     1       2.469   6.438  19.286  0.00  0.00    +0.000 A 
ATOM      2  C   UNL     1       2.370   7.823  19.026  0.00  0.00    +0.000 A 
ATOM      3  C   UNL     1       1.592   8.684  19.812  0.00  0.00    +0.000 A 
ATOM      4  C   UNL     1       0.869   8.110  20.849  0.00  0.00    +0.000 A 
ATOM      5  N   UNL     1       0.952   6.791  21.156  0.00  0.00    +0.000 NA
ATOM      6  C   UNL     1       1.746   5.978  20.401  0.00  0.00    +0.000 A 
ENDROOT
BRANCH   1  14
ATOM      7  C   UNL     1       7.582   6.290  17.069  0.00  0.00    +0.000 C 
ATOM      8  C   UNL     1       6.558   5.253  16.794  0.00  0.00    +0.000 A 
ATOM      9  N   UNL     1       6.801   4.262  15.917  0.00  0.00    +0.000 NA
ATOM     10  N   UNL     1       5.647   3.557  15.908  0.00  0.00    +0.000 N 
ATOM     11  C   UNL     1       4.674   4.080  16.706  0.00  0.00    +0.000 A 
ATOM     12  N   UNL     1       3.405   3.653  16.858  0.00  0.00    +0.000 NA
ATOM     13  C   UNL     1       2.730   4.467  17.715  0.00  0.00    +0.000 A 
ATOM     14  C   UNL     1       3.270   5.577  18.385  0.00  0.00    +0.000 A 
ATOM     15  N   UNL     1       4.573   5.922  18.236  0.00  0.00    +0.000 NA
ATOM     16  C   UNL     1       5.254   5.166  17.338  0.00  0.00    +0.000 A 
ATOM     17  H   UNL     1       5.577   2.737  15.320  0.00  0.00    +0.000 HD
ENDBRANCH   1  14
BRANCH   6  18
ATOM     18  C   UNL     1       1.787   4.610  20.908  0.00  0.00    +0.000 A 
ATOM     19  C   UNL     1       0.968   3.474  20.644  0.00  0.00    +0.000 A 
ATOM     20  C   UNL     1       1.429   2.459  21.449  0.00  0.00    +0.000 A 
ATOM     21  O   UNL     1       2.526   2.862  22.136  0.00  0.00    +0.000 OA
ATOM     22  C   UNL     1       2.749   4.157  21.793  0.00  0.00    +0.000 A 
ENDBRANCH   6  18
BRANCH   4  23
ATOM     23  C   UNL     1      -0.057   8.831  21.674  0.00  0.00    +0.000 C 
ATOM     24  N   UNL     1      -0.817   9.449  22.306  0.00  0.00    +0.000 NA
ENDBRANCH   4  23
BRANCH   3  25
ATOM     25  O   UNL     1       1.616   9.982  19.388  0.00  0.00    +0.000 OA
BRANCH  25  26
ATOM     26  C   UNL     1       0.672  10.392  18.387  0.00  0.00    +0.000 C 
BRANCH  26  27
ATOM     27  C   UNL     1      -0.147  11.598  18.907  0.00  0.00    +0.000 C 
BRANCH  27  28
ATOM     28  N   UNL     1      -1.454  11.123  19.413  0.00  0.00    +0.000 NA
ATOM     29  H   UNL     1      -1.402  11.036  20.426  0.00  0.00    +0.000 HD
ATOM     30  H   UNL     1      -1.657  10.197  19.042  0.00  0.00    +0.000 HD
ENDBRANCH  27  28
BRANCH  27  31
ATOM     31  C   UNL     1       0.652  12.382  19.977  0.00  0.00    +0.000 C 
BRANCH  31  32
ATOM     32  C   UNL     1       0.712  13.861  19.723  0.00  0.00    +0.000 A 
ATOM     33  C   UNL     1      -0.193  14.789  20.198  0.00  0.00    +0.000 A 
ATOM     34  N   UNL     1       0.153  16.018  19.713  0.00  0.00    +0.000 N 
ATOM     35  C   UNL     1       1.286  15.924  18.944  0.00  0.00    +0.000 A 
ATOM     36  C   UNL     1       1.980  16.920  18.247  0.00  0.00    +0.000 A 
ATOM     37  C   UNL     1       3.120  16.538  17.535  0.00  0.00    +0.000 A 
ATOM     38  C   UNL     1       3.549  15.214  17.531  0.00  0.00    +0.000 A 
ATOM     39  C   UNL     1       2.838  14.228  18.229  0.00  0.00    +0.000 A 
ATOM     40  C   UNL     1       1.677  14.584  18.946  0.00  0.00    +0.000 A 
ATOM     41  H   UNL     1      -0.356  16.875  19.881  0.00  0.00    +0.000 HD
ENDBRANCH  31  32
ENDBRANCH  27  31
ENDBRANCH  26  27
ENDBRANCH  25  26
ENDBRANCH   3  25
TORSDOF 9
ENDMDL
MODEL 6
REMARK VINA RESULT:      -8.1      0.991      1.417
REMARK  Name = 
REMARK  10 active torsions:
REMARK  status: ('A' for Active; 'I' for Inactive)
REMARK    1  A    between atoms: C_1  and  C_2
REMARK    2  A    between atoms: C_8  and  C_9
REMARK    3  A    between atoms: C_11  and  O_12
REMARK    4  A    between atoms: O_12  and  C_13
REMARK    5  A    between atoms: C_13  and  C_14
REMARK    6  A    between atoms: C_14  and  N_15
REMARK    7  A    between atoms: C_14  and  C_16
REMARK    8  A    between atoms: C_16  and  C_17
REMARK    9  A    between atoms: C_26  and  C_27
REMARK   10  A    between atoms: C_30  and  C_31
REMARK                            x       y       z     vdW  Elec       q    Type
REMARK                         _______ _______ _______ _____ _____    ______ ____
ROOT
ATOM      1  C   UNL     1       2.457   6.428  19.309  0.00  0.00    +0.000 A 
ATOM      2  C   UNL     1       2.337   7.813  19.060  0.00  0.00    +0.000 A 
ATOM      3  C   UNL     1       1.556   8.658  19.860  0.00  0.00    +0.000 A 
ATOM      4  C   UNL     1       0.851   8.067  20.901  0.00  0.00    +0.000 A 
ATOM      5  N   UNL     1       0.954   6.747  21.197  0.00  0.00    +0.000 NA
ATOM      6  C   UNL     1       1.750   5.950  20.428  0.00  0.00    +0.000 A 
ENDROOT
BRANCH   1  14
ATOM      7  C   UNL     1       7.574   6.320  17.102  0.00  0.00    +0.000 C 
ATOM      8  C   UNL     1       6.551   5.289  16.805  0.00  0.00    +0.000 A 
ATOM      9  N   UNL     1       6.796   4.314  15.909  0.00  0.00    +0.000 NA
ATOM     10  N   UNL     1       5.641   3.611  15.884  0.00  0.00    +0.000 N 
ATOM     11  C   UNL     1       4.667   4.118  16.690  0.00  0.00    +0.000 A 
ATOM     12  N   UNL     1       3.397   3.689  16.831  0.00  0.00    +0.000 NA
ATOM     13  C   UNL     1       2.720   4.487  17.702  0.00  0.00    +0.000 A 
ATOM     14  C   UNL     1       3.259   5.583  18.394  0.00  0.00    +0.000 A 
ATOM     15  N   UNL     1       4.562   5.931  18.255  0.00  0.00    +0.000 NA
ATOM     16  C   UNL     1       5.246   5.192  17.344  0.00  0.00    +0.000 A 
ATOM     17  H   UNL     1       5.572   2.801  15.281  0.00  0.00    +0.000 HD
ENDBRANCH   1  14
BRANCH   6  18
ATOM     18  C   UNL     1       1.814   4.579  20.925  0.00  0.00    +0.000 A 
ATOM     19  C   UNL     1       0.983   3.445  20.692  0.00  0.00    +0.000 A 
ATOM     20  C   UNL     1       1.480   2.425  21.468  0.00  0.00    +0.000 A 
ATOM     21  O   UNL     1       2.608   2.824  22.106  0.00  0.00    +0.000 OA
ATOM     22  C   UNL     1       2.816   4.120  21.760  0.00  0.00    +0.000 A 
ENDBRANCH   6  18
BRANCH   4  23
ATOM     23  C   UNL     1      -0.076   8.770  21.740  0.00  0.00    +0.000 C 
ATOM     24  N   UNL     1      -0.860   9.302  22.419  0.00  0.00    +0.000 NA
ENDBRANCH   4  23
BRANCH   3  25
ATOM     25  O   UNL     1       1.559   9.960  19.446  0.00  0.00    +0.000 OA
BRANCH  25  26
ATOM     26  C   UNL     1       0.466  10.422  18.638  0.00  0.00    +0.000 C 
BRANCH  26  27
ATOM     27  C   UNL     1      -0.252  11.591  19.354  0.00  0.00    +0.000 C 
BRANCH  27  28
ATOM     28  N   UNL     1       0.717  12.681  19.608  0.00  0.00    +0.000 NA
ATOM     29  H   UNL     1       0.829  12.792  20.614  0.00  0.00    +0.000 HD
ATOM     30  H   UNL     1       0.356  13.561  19.247  0.00  0.00    +0.000 HD
ENDBRANCH  27  28
BRANCH  27  31
ATOM     31  C   UNL     1      -1.476  12.067  18.533  0.00  0.00    +0.000 C 
BRANCH  31  32
ATOM     32  C   UNL     1      -2.705  12.301  19.362  0.00  0.00    +0.000 A 
ATOM     33  C   UNL     1      -2.722  12.868  20.622  0.00  0.00    +0.000 A 
ATOM     34  N   UNL     1      -4.007  12.862  21.082  0.00  0.00    +0.000 N 
ATOM     35  C   UNL     1      -4.847  12.323  20.140  0.00  0.00    +0.000 A 
ATOM     36  C   UNL     1      -6.230  12.111  20.189  0.00  0.00    +0.000 A 
ATOM     37  C   UNL     1      -6.839  11.536  19.071  0.00  0.00    +0.000 A 
ATOM     38  C   UNL     1      -6.091  11.198  17.946  0.00  0.00    +0.000 A 
ATOM     39  C   UNL     1      -4.706  11.413  17.915  0.00  0.00    +0.000 A 
ATOM     40  C   UNL     1      -4.064  11.979  19.036  0.00  0.00    +0.000 A 
ATOM     41  H   UNL     1      -4.302  13.192  21.990  0.00  0.00    +0.000 HD
ENDBRANCH  31  32
ENDBRANCH  27  31
ENDBRANCH  26  27
ENDBRANCH  25  26
ENDBRANCH   3  25
TORSDOF 9
ENDMDL
MODEL 7
REMARK VINA RESULT:      -8.0      2.860      9.609
REMARK  Name = 
REMARK  10 active torsions:
REMARK  status: ('A' for Active; 'I' for Inactive)
REMARK    1  A    between atoms: C_1  and  C_2
REMARK    2  A    between atoms: C_8  and  C_9
REMARK    3  A    between atoms: C_11  and  O_12
REMARK    4  A    between atoms: O_12  and  C_13
REMARK    5  A    between atoms: C_13  and  C_14
REMARK    6  A    between atoms: C_14  and  N_15
REMARK    7  A    between atoms: C_14  and  C_16
REMARK    8  A    between atoms: C_16  and  C_17
REMARK    9  A    between atoms: C_26  and  C_27
REMARK   10  A    between atoms: C_30  and  C_31
REMARK                            x       y       z     vdW  Elec       q    Type
REMARK                         _______ _______ _______ _____ _____    ______ ____
ROOT
ATOM      1  C   UNL     1       1.146   9.675  19.477  0.00  0.00    +0.000 A 
ATOM      2  C   UNL     1       1.826   8.812  18.591  0.00  0.00    +0.000 A 
ATOM      3  C   UNL     1       2.148   7.490  18.925  0.00  0.00    +0.000 A 
ATOM      4  C   UNL     1       1.812   7.062  20.203  0.00  0.00    +0.000 A 
ATOM      5  N   UNL     1       1.135   7.844  21.080  0.00  0.00    +0.000 NA
ATOM      6  C   UNL     1       0.796   9.115  20.719  0.00  0.00    +0.000 A 
ENDROOT
BRANCH   1  14
ATOM      7  C   UNL     1       3.531  14.693  19.935  0.00  0.00    +0.000 C 
ATOM      8  C   UNL     1       2.233  14.482  19.253  0.00  0.00    +0.000 A 
ATOM      9  N   UNL     1       1.526  15.526  18.781  0.00  0.00    +0.000 NA
ATOM     10  N   UNL     1       0.411  14.950  18.275  0.00  0.00    +0.000 N 
ATOM     11  C   UNL     1       0.363  13.599  18.440  0.00  0.00    +0.000 A 
ATOM     12  N   UNL     1      -0.636  12.756  18.111  0.00  0.00    +0.000 NA
ATOM     13  C   UNL     1      -0.322  11.482  18.477  0.00  0.00    +0.000 A 
ATOM     14  C   UNL     1       0.880  11.077  19.079  0.00  0.00    +0.000 A 
ATOM     15  N   UNL     1       1.873  11.965  19.333  0.00  0.00    +0.000 NA
ATOM     16  C   UNL     1       1.563  13.253  19.037  0.00  0.00    +0.000 A 
ATOM     17  H   UNL     1      -0.291  15.536  17.842  0.00  0.00    +0.000 HD
ENDBRANCH   1  14
BRANCH   6  18
ATOM     18  C   UNL     1       0.005   9.794  21.742  0.00  0.00    +0.000 A 
ATOM     19  C   UNL     1      -0.820  10.955  21.689  0.00  0.00    +0.000 A 
ATOM     20  C   UNL     1      -1.275  11.174  22.967  0.00  0.00    +0.000 A 
ATOM     21  O   UNL     1      -0.854  10.186  23.795  0.00  0.00    +0.000 OA
ATOM     22  C   UNL     1      -0.095   9.345  23.046  0.00  0.00    +0.000 A 
ENDBRANCH   6  18
BRANCH   4  23
ATOM     23  C   UNL     1       2.169   5.780  20.737  0.00  0.00    +0.000 C 
ATOM     24  N   UNL     1       2.432   4.749  21.213  0.00  0.00    +0.000 NA
ENDBRANCH   4  23
BRANCH   3  25
ATOM     25  O   UNL     1       2.819   6.824  17.938  0.00  0.00    +0.000 OA
BRANCH  25  26
ATOM     26  C   UNL     1       2.719   5.393  17.889  0.00  0.00    +0.000 C 
BRANCH  26  27
ATOM     27  C   UNL     1       4.136   4.774  17.831  0.00  0.00    +0.000 C 
BRANCH  27  28
ATOM     28  N   UNL     1       4.313   3.845  18.969  0.00  0.00    +0.000 NA
ATOM     29  H   UNL     1       5.310   3.703  19.124  0.00  0.00    +0.000 HD
ATOM     30  H   UNL     1       3.911   2.937  18.745  0.00  0.00    +0.000 HD
ENDBRANCH  27  28
BRANCH  27  31
ATOM     31  C   UNL     1       4.378   4.087  16.463  0.00  0.00    +0.000 C 
BRANCH  31  32
ATOM     32  C   UNL     1       5.596   4.589  15.743  0.00  0.00    +0.000 A 
ATOM     33  C   UNL     1       6.541   5.445  16.274  0.00  0.00    +0.000 A 
ATOM     34  N   UNL     1       7.465   5.723  15.308  0.00  0.00    +0.000 N 
ATOM     35  C   UNL     1       7.162   5.047  14.152  0.00  0.00    +0.000 A 
ATOM     36  C   UNL     1       7.821   5.045  12.917  0.00  0.00    +0.000 A 
ATOM     37  C   UNL     1       7.286   4.253  11.898  0.00  0.00    +0.000 A 
ATOM     38  C   UNL     1       6.143   3.487  12.113  0.00  0.00    +0.000 A 
ATOM     39  C   UNL     1       5.493   3.506  13.355  0.00  0.00    +0.000 A 
ATOM     40  C   UNL     1       6.004   4.307  14.397  0.00  0.00    +0.000 A 
ATOM     41  H   UNL     1       8.252   6.347  15.417  0.00  0.00    +0.000 HD
ENDBRANCH  31  32
ENDBRANCH  27  31
ENDBRANCH  26  27
ENDBRANCH  25  26
ENDBRANCH   3  25
TORSDOF 9
ENDMDL
MODEL 8
REMARK VINA RESULT:      -7.9      0.939      1.616
REMARK  Name = 
REMARK  10 active torsions:
REMARK  status: ('A' for Active; 'I' for Inactive)
REMARK    1  A    between atoms: C_1  and  C_2
REMARK    2  A    between atoms: C_8  and  C_9
REMARK    3  A    between atoms: C_11  and  O_12
REMARK    4  A    between atoms: O_12  and  C_13
REMARK    5  A    between atoms: C_13  and  C_14
REMARK    6  A    between atoms: C_14  and  N_15
REMARK    7  A    between atoms: C_14  and  C_16
REMARK    8  A    between atoms: C_16  and  C_17
REMARK    9  A    between atoms: C_26  and  C_27
REMARK   10  A    between atoms: C_30  and  C_31
REMARK                            x       y       z     vdW  Elec       q    Type
REMARK                         _______ _______ _______ _____ _____    ______ ____
ROOT
ATOM      1  C   UNL     1       2.502   6.379  19.390  0.00  0.00    +0.000 A 
ATOM      2  C   UNL     1       2.416   7.776  19.199  0.00  0.00    +0.000 A 
ATOM      3  C   UNL     1       1.655   8.606  20.032  0.00  0.00    +0.000 A 
ATOM      4  C   UNL     1       0.933   7.990  21.047  0.00  0.00    +0.000 A 
ATOM      5  N   UNL     1       1.003   6.657  21.288  0.00  0.00    +0.000 NA
ATOM      6  C   UNL     1       1.782   5.874  20.488  0.00  0.00    +0.000 A 
ENDROOT
BRANCH   1  14
ATOM      7  C   UNL     1       7.574   6.316  17.079  0.00  0.00    +0.000 C 
ATOM      8  C   UNL     1       6.545   5.292  16.781  0.00  0.00    +0.000 A 
ATOM      9  N   UNL     1       6.770   4.336  15.861  0.00  0.00    +0.000 NA
ATOM     10  N   UNL     1       5.615   3.633  15.844  0.00  0.00    +0.000 N 
ATOM     11  C   UNL     1       4.657   4.124  16.680  0.00  0.00    +0.000 A 
ATOM     12  N   UNL     1       3.390   3.692  16.837  0.00  0.00    +0.000 NA
ATOM     13  C   UNL     1       2.731   4.473  17.738  0.00  0.00    +0.000 A 
ATOM     14  C   UNL     1       3.285   5.554  18.442  0.00  0.00    +0.000 A 
ATOM     15  N   UNL     1       4.586   5.904  18.284  0.00  0.00    +0.000 NA
ATOM     16  C   UNL     1       5.250   5.184  17.344  0.00  0.00    +0.000 A 
ATOM     17  H   UNL     1       5.533   2.837  15.225  0.00  0.00    +0.000 HD
ENDBRANCH   1  14
BRANCH   6  18
ATOM     18  C   UNL     1       1.810   4.482  20.927  0.00  0.00    +0.000 A 
ATOM     19  C   UNL     1       0.967   3.373  20.627  0.00  0.00    +0.000 A 
ATOM     20  C   UNL     1       1.428   2.313  21.371  0.00  0.00    +0.000 A 
ATOM     21  O   UNL     1       2.546   2.665  22.052  0.00  0.00    +0.000 OA
ATOM     22  C   UNL     1       2.784   3.971  21.767  0.00  0.00    +0.000 A 
ENDBRANCH   6  18
BRANCH   4  23
ATOM     23  C   UNL     1       0.023   8.681  21.914  0.00  0.00    +0.000 C 
ATOM     24  N   UNL     1      -0.728   9.198  22.640  0.00  0.00    +0.000 NA
ENDBRANCH   4  23
BRANCH   3  25
ATOM     25  O   UNL     1       1.691   9.924  19.672  0.00  0.00    +0.000 OA
BRANCH  25  26
ATOM     26  C   UNL     1       0.485  10.532  19.187  0.00  0.00    +0.000 C 
BRANCH  26  27
ATOM     27  C   UNL     1      -0.073  11.505  20.255  0.00  0.00    +0.000 C 
BRANCH  27  28
ATOM     28  N   UNL     1       1.020  11.918  21.162  0.00  0.00    +0.000 NA
ATOM     29  H   UNL     1       1.551  11.092  21.434  0.00  0.00    +0.000 HD
ATOM     30  H   UNL     1       0.635  12.321  22.014  0.00  0.00    +0.000 HD
ENDBRANCH  27  28
BRANCH  27  31
ATOM     31  C   UNL     1      -0.772  12.713  19.583  0.00  0.00    +0.000 C 
BRANCH  31  32
ATOM     32  C   UNL     1      -2.195  12.442  19.186  0.00  0.00    +0.000 A 
ATOM     33  C   UNL     1      -3.306  12.728  19.956  0.00  0.00    +0.000 A 
ATOM     34  N   UNL     1      -4.416  12.287  19.294  0.00  0.00    +0.000 N 
ATOM     35  C   UNL     1      -4.062  11.736  18.087  0.00  0.00    +0.000 A 
ATOM     36  C   UNL     1      -4.865  11.154  17.099  0.00  0.00    +0.000 A 
ATOM     37  C   UNL     1      -4.232  10.666  15.953  0.00  0.00    +0.000 A 
ATOM     38  C   UNL     1      -2.851  10.767  15.803  0.00  0.00    +0.000 A 
ATOM     39  C   UNL     1      -2.062  11.347  16.805  0.00  0.00    +0.000 A 
ATOM     40  C   UNL     1      -2.674  11.836  17.978  0.00  0.00    +0.000 A 
ATOM     41  H   UNL     1      -5.363  12.343  19.642  0.00  0.00    +0.000 HD
ENDBRANCH  31  32
ENDBRANCH  27  31
ENDBRANCH  26  27
ENDBRANCH  25  26
ENDBRANCH   3  25
TORSDOF 9
ENDMDL
MODEL 9
REMARK VINA RESULT:      -7.8      3.407     10.761
REMARK  Name = 
REMARK  10 active torsions:
REMARK  status: ('A' for Active; 'I' for Inactive)
REMARK    1  A    between atoms: C_1  and  C_2
REMARK    2  A    between atoms: C_8  and  C_9
REMARK    3  A    between atoms: C_11  and  O_12
REMARK    4  A    between atoms: O_12  and  C_13
REMARK    5  A    between atoms: C_13  and  C_14
REMARK    6  A    between atoms: C_14  and  N_15
REMARK    7  A    between atoms: C_14  and  C_16
REMARK    8  A    between atoms: C_16  and  C_17
REMARK    9  A    between atoms: C_26  and  C_27
REMARK   10  A    between atoms: C_30  and  C_31
REMARK                            x       y       z     vdW  Elec       q    Type
REMARK                         _______ _______ _______ _____ _____    ______ ____
ROOT
ATOM      1  C   UNL     1      -3.103  12.556  20.454  0.00  0.00    +0.000 A 
ATOM      2  C   UNL     1      -1.814  12.147  20.046  0.00  0.00    +0.000 A 
ATOM      3  C   UNL     1      -1.574  11.533  18.809  0.00  0.00    +0.000 A 
ATOM      4  C   UNL     1      -2.678  11.290  18.001  0.00  0.00    +0.000 A 
ATOM      5  N   UNL     1      -3.931  11.687  18.337  0.00  0.00    +0.000 NA
ATOM      6  C   UNL     1      -4.135  12.319  19.528  0.00  0.00    +0.000 A 
ENDROOT
BRANCH   1  14
ATOM      7  C   UNL     1      -2.953  17.578  22.867  0.00  0.00    +0.000 C 
ATOM      8  C   UNL     1      -3.246  16.336  23.620  0.00  0.00    +0.000 A 
ATOM      9  N   UNL     1      -3.408  16.362  24.956  0.00  0.00    +0.000 NA
ATOM     10  N   UNL     1      -3.615  15.064  25.276  0.00  0.00    +0.000 N 
ATOM     11  C   UNL     1      -3.551  14.216  24.212  0.00  0.00    +0.000 A 
ATOM     12  N   UNL     1      -3.645  12.871  24.214  0.00  0.00    +0.000 NA
ATOM     13  C   UNL     1      -3.488  12.383  22.952  0.00  0.00    +0.000 A 
ATOM     14  C   UNL     1      -3.293  13.155  21.795  0.00  0.00    +0.000 A 
ATOM     15  N   UNL     1      -3.267  14.510  21.850  0.00  0.00    +0.000 NA
ATOM     16  C   UNL     1      -3.357  15.022  23.104  0.00  0.00    +0.000 A 
ATOM     17  H   UNL     1      -3.777  14.817  26.244  0.00  0.00    +0.000 HD
ENDBRANCH   1  14
BRANCH   6  18
ATOM     18  C   UNL     1      -5.519  12.750  19.701  0.00  0.00    +0.000 A 
ATOM     19  C   UNL     1      -6.165  13.996  19.450  0.00  0.00    +0.000 A 
ATOM     20  C   UNL     1      -7.470  13.852  19.855  0.00  0.00    +0.000 A 
ATOM     21  O   UNL     1      -7.700  12.582  20.268  0.00  0.00    +0.000 OA
ATOM     22  C   UNL     1      -6.522  11.914  20.157  0.00  0.00    +0.000 A 
ENDBRANCH   6  18
BRANCH   4  23
ATOM     23  C   UNL     1      -2.618  10.573  16.760  0.00  0.00    +0.000 C 
ATOM     24  N   UNL     1      -2.615  10.010  15.740  0.00  0.00    +0.000 NA
ENDBRANCH   4  23
BRANCH   3  25
ATOM     25  O   UNL     1      -0.264  11.200  18.609  0.00  0.00    +0.000 OA
BRANCH  25  26
ATOM     26  C   UNL     1       0.335  10.230  19.480  0.00  0.00    +0.000 C 
BRANCH  26  27
ATOM     27  C   UNL     1       1.154   9.216  18.645  0.00  0.00    +0.000 C 
BRANCH  27  28
ATOM     28  N   UNL     1       1.901   9.938  17.591  0.00  0.00    +0.000 NA
ATOM     29  H   UNL     1       2.844  10.126  17.928  0.00  0.00    +0.000 HD
ATOM     30  H   UNL     1       1.463  10.838  17.405  0.00  0.00    +0.000 HD
ENDBRANCH  27  28
BRANCH  27  31
ATOM     31  C   UNL     1       2.082   8.376  19.558  0.00  0.00    +0.000 C 
BRANCH  31  32
ATOM     32  C   UNL     1       2.491   7.063  18.958  0.00  0.00    +0.000 A 
ATOM     33  C   UNL     1       3.291   6.910  17.842  0.00  0.00    +0.000 A 
ATOM     34  N   UNL     1       3.395   5.578  17.563  0.00  0.00    +0.000 N 
ATOM     35  C   UNL     1       2.697   4.842  18.489  0.00  0.00    +0.000 A 
ATOM     36  C   UNL     1       2.521   3.457  18.583  0.00  0.00    +0.000 A 
ATOM     37  C   UNL     1       1.752   2.972  19.643  0.00  0.00    +0.000 A 
ATOM     38  C   UNL     1       1.190   3.841  20.575  0.00  0.00    +0.000 A 
ATOM     39  C   UNL     1       1.372   5.226  20.462  0.00  0.00    +0.000 A 
ATOM     40  C   UNL     1       2.134   5.744  19.394  0.00  0.00    +0.000 A 
ATOM     41  H   UNL     1       3.899   5.184  16.780  0.00  0.00    +0.000 HD
ENDBRANCH  31  32
ENDBRANCH  27  31
ENDBRANCH  26  27
ENDBRANCH  25  26
ENDBRANCH   3  25
TORSDOF 9
ENDMDL
