MODEL 1
REMARK VINA RESULT:      -8.1      0.000      0.000
REMARK  Name = 
REMARK  1 active torsions:
REMARK  status: ('A' for Active; 'I' for Inactive)
REMARK    1  A    between atoms: C_2  and  C_3
REMARK                            x       y       z     vdW  Elec       q    Type
REMARK                         _______ _______ _______ _____ _____    ______ ____
ROOT
ATOM      1  C   UNL     1       2.763   6.859  18.919  0.00  0.00    +0.000 A 
ATOM      2  C   UNL     1       2.150   7.365  20.090  0.00  0.00    +0.000 A 
ATOM      3  C   UNL     1       1.443   8.567  20.012  0.00  0.00    +0.000 A 
ATOM      4  C   UNL     1       1.397   9.263  18.813  0.00  0.00    +0.000 A 
ATOM      5  C   UNL     1       2.038   8.780  17.682  0.00  0.00    +0.000 A 
ATOM      6  N   UNL     1       2.694   7.591  17.766  0.00  0.00    +0.000 NA
ATOM      7  S   UNL     1       0.483  10.671  18.971  0.00  0.00    +0.000 S 
ATOM      8  C   UNL     1       0.120  10.384  20.594  0.00  0.00    +0.000 A 
ATOM      9  C   UNL     1      -0.662  11.168  21.437  0.00  0.00    +0.000 A 
ATOM     10  C   UNL     1      -0.849  10.743  22.760  0.00  0.00    +0.000 A 
ATOM     11  C   UNL     1      -0.255   9.550  23.216  0.00  0.00    +0.000 A 
ATOM     12  C   UNL     1       0.533   8.770  22.351  0.00  0.00    +0.000 A 
ATOM     13  C   UNL     1       0.715   9.201  21.029  0.00  0.00    +0.000 A 
ENDROOT
BRANCH   1  15
ATOM     14  O   UNL     1       4.536   5.520  19.577  0.00  0.00    +0.000 OA
ATOM     15  C   UNL     1       3.476   5.547  18.965  0.00  0.00    +0.000 C 
ATOM     16  N   UNL     1       2.997   4.378  18.407  0.00  0.00    +0.000 N 
ATOM     17  C   UNL     1       3.765   3.139  18.483  0.00  0.00    +0.000 C 
ATOM     18  C   UNL     1       2.956   2.111  19.281  0.00  0.00    +0.000 C 
ATOM     19  N   UNL     1       1.640   1.913  18.655  0.00  0.00    +0.000 NA
ATOM     20  C   UNL     1       0.893   3.177  18.610  0.00  0.00    +0.000 C 
ATOM     21  C   UNL     1       1.670   4.228  17.811  0.00  0.00    +0.000 C 
ATOM     22  H   UNL     1       1.097   1.229  19.231  0.00  0.00    +0.000 HD
ENDBRANCH   1  15
TORSDOF 1
ENDMDL
MODEL 2
REMARK VINA RESULT:      -7.5      3.277      7.263
REMARK  Name = 
REMARK  1 active torsions:
REMARK  status: ('A' for Active; 'I' for Inactive)
REMARK    1  A    between atoms: C_2  and  C_3
REMARK                            x       y       z     vdW  Elec       q    Type
REMARK                         _______ _______ _______ _____ _____    ______ ____
ROOT
ATOM      1  C   UNL     1       1.786   7.911  19.693  0.00  0.00    +0.000 A 
ATOM      2  C   UNL     1       2.697   7.650  18.642  0.00  0.00    +0.000 A 
ATOM      3  C   UNL     1       3.217   6.360  18.510  0.00  0.00    +0.000 A 
ATOM      4  C   UNL     1       2.874   5.381  19.431  0.00  0.00    +0.000 A 
ATOM      5  C   UNL     1       2.015   5.660  20.483  0.00  0.00    +0.000 A 
ATOM      6  N   UNL     1       1.492   6.912  20.579  0.00  0.00    +0.000 NA
ATOM      7  S   UNL     1       3.620   3.916  19.055  0.00  0.00    +0.000 S 
ATOM      8  C   UNL     1       4.381   4.530  17.680  0.00  0.00    +0.000 A 
ATOM      9  C   UNL     1       5.204   3.845  16.791  0.00  0.00    +0.000 A 
ATOM     10  C   UNL     1       5.733   4.544  15.697  0.00  0.00    +0.000 A 
ATOM     11  C   UNL     1       5.432   5.907  15.509  0.00  0.00    +0.000 A 
ATOM     12  C   UNL     1       4.598   6.585  16.416  0.00  0.00    +0.000 A 
ATOM     13  C   UNL     1       4.073   5.879  17.508  0.00  0.00    +0.000 A 
ENDROOT
BRANCH   1  15
ATOM     14  O   UNL     1       0.731   9.769  18.794  0.00  0.00    +0.000 OA
ATOM     15  C   UNL     1       1.174   9.268  19.820  0.00  0.00    +0.000 C 
ATOM     16  N   UNL     1       1.041   9.955  21.011  0.00  0.00    +0.000 N 
ATOM     17  C   UNL     1       0.443  11.287  21.047  0.00  0.00    +0.000 C 
ATOM     18  C   UNL     1      -0.829  11.228  21.899  0.00  0.00    +0.000 C 
ATOM     19  N   UNL     1      -0.509  10.725  23.243  0.00  0.00    +0.000 NA
ATOM     20  C   UNL     1       0.076   9.379  23.166  0.00  0.00    +0.000 C 
ATOM     21  C   UNL     1       1.357   9.402  22.327  0.00  0.00    +0.000 C 
ATOM     22  H   UNL     1      -1.395  10.668  23.797  0.00  0.00    +0.000 HD
ENDBRANCH   1  15
TORSDOF 1
ENDMDL
MODEL 3
REMARK VINA RESULT:      -7.4      1.479      1.609
REMARK  Name = 
REMARK  1 active torsions:
REMARK  status: ('A' for Active; 'I' for Inactive)
REMARK    1  A    between atoms: C_2  and  C_3
REMARK                            x       y       z     vdW  Elec       q    Type
REMARK                         _______ _______ _______ _____ _____    ______ ____
ROOT
ATOM      1  C   UNL     1       2.200   6.505  19.862  0.00  0.00    +0.000 A 
ATOM      2  C   UNL     1       1.525   7.281  20.833  0.00  0.00    +0.000 A 
ATOM      3  C   UNL     1       1.138   8.582  20.503  0.00  0.00    +0.000 A 
ATOM      4  C   UNL     1       1.464   9.103  19.259  0.00  0.00    +0.000 A 
ATOM      5  C   UNL     1       2.165   8.349  18.330  0.00  0.00    +0.000 A 
ATOM      6  N   UNL     1       2.505   7.072  18.655  0.00  0.00    +0.000 NA
ATOM      7  S   UNL     1       0.885  10.678  19.098  0.00  0.00    +0.000 S 
ATOM      8  C   UNL     1       0.187  10.696  20.635  0.00  0.00    +0.000 A 
ATOM      9  C   UNL     1      -0.530  11.731  21.226  0.00  0.00    +0.000 A 
ATOM     10  C   UNL     1      -1.038  11.538  22.519  0.00  0.00    +0.000 A 
ATOM     11  C   UNL     1      -0.824  10.321  23.194  0.00  0.00    +0.000 A 
ATOM     12  C   UNL     1      -0.097   9.284  22.582  0.00  0.00    +0.000 A 
ATOM     13  C   UNL     1       0.408   9.485  21.290  0.00  0.00    +0.000 A 
ENDROOT
BRANCH   1  15
ATOM     14  O   UNL     1       1.910   4.525  21.031  0.00  0.00    +0.000 OA
ATOM     15  C   UNL     1       2.574   5.092  20.172  0.00  0.00    +0.000 C 
ATOM     16  N   UNL     1       3.574   4.390  19.529  0.00  0.00    +0.000 N 
ATOM     17  C   UNL     1       3.887   3.014  19.904  0.00  0.00    +0.000 C 
ATOM     18  C   UNL     1       3.619   2.107  18.699  0.00  0.00    +0.000 C 
ATOM     19  N   UNL     1       4.406   2.561  17.544  0.00  0.00    +0.000 NA
ATOM     20  C   UNL     1       4.053   3.942  17.188  0.00  0.00    +0.000 C 
ATOM     21  C   UNL     1       4.317   4.881  18.369  0.00  0.00    +0.000 C 
ATOM     22  H   UNL     1       4.187   1.944  16.728  0.00  0.00    +0.000 HD
ENDBRANCH   1  15
TORSDOF 1
ENDMDL
MODEL 4
REMARK VINA RESULT:      -7.4      1.781      2.350
REMARK  Name = 
REMARK  1 active torsions:
REMARK  status: ('A' for Active; 'I' for Inactive)
REMARK    1  A    between atoms: C_2  and  C_3
REMARK                            x       y       z     vdW  Elec       q    Type
REMARK                         _______ _______ _______ _____ _____    ______ ____
ROOT
ATOM      1  C   UNL     1       2.444   7.344  18.835  0.00  0.00    +0.000 A 
ATOM      2  C   UNL     1       1.837   7.772  20.039  0.00  0.00    +0.000 A 
ATOM      3  C   UNL     1       1.186   9.008  20.061  0.00  0.00    +0.000 A 
ATOM      4  C   UNL     1       1.189   9.809  18.928  0.00  0.00    +0.000 A 
ATOM      5  C   UNL     1       1.825   9.399  17.766  0.00  0.00    +0.000 A 
ATOM      6  N   UNL     1       2.426   8.178  17.751  0.00  0.00    +0.000 NA
ATOM      7  S   UNL     1       0.338  11.238  19.202  0.00  0.00    +0.000 S 
ATOM      8  C   UNL     1      -0.063  10.825  20.788  0.00  0.00    +0.000 A 
ATOM      9  C   UNL     1      -0.822  11.566  21.689  0.00  0.00    +0.000 A 
ATOM     10  C   UNL     1      -1.048  11.034  22.967  0.00  0.00    +0.000 A 
ATOM     11  C   UNL     1      -0.516   9.779  23.320  0.00  0.00    +0.000 A 
ATOM     12  C   UNL     1       0.249   9.043  22.399  0.00  0.00    +0.000 A 
ATOM     13  C   UNL     1       0.472   9.581  21.123  0.00  0.00    +0.000 A 
ENDROOT
BRANCH   1  15
ATOM     14  O   UNL     1       2.477   5.066  19.262  0.00  0.00    +0.000 OA
ATOM     15  C   UNL     1       3.096   6.002  18.771  0.00  0.00    +0.000 C 
ATOM     16  N   UNL     1       4.312   5.753  18.164  0.00  0.00    +0.000 N 
ATOM     17  C   UNL     1       4.889   4.411  18.159  0.00  0.00    +0.000 C 
ATOM     18  C   UNL     1       5.007   3.937  16.707  0.00  0.00    +0.000 C 
ATOM     19  N   UNL     1       5.811   4.891  15.931  0.00  0.00    +0.000 NA
ATOM     20  C   UNL     1       5.191   6.223  15.947  0.00  0.00    +0.000 C 
ATOM     21  C   UNL     1       5.065   6.735  17.385  0.00  0.00    +0.000 C 
ATOM     22  H   UNL     1       5.855   4.560  14.939  0.00  0.00    +0.000 HD
ENDBRANCH   1  15
TORSDOF 1
ENDMDL
MODEL 5
REMARK VINA RESULT:      -7.3      1.099      1.099
REMARK  Name = 
REMARK  1 active torsions:
REMARK  status: ('A' for Active; 'I' for Inactive)
REMARK    1  A    between atoms: C_2  and  C_3
REMARK                            x       y       z     vdW  Elec       q    Type
REMARK                         _______ _______ _______ _____ _____    ______ ____
ROOT
ATOM      1  C   UNL     1       2.622   7.402  18.633  0.00  0.00    +0.000 A 
ATOM      2  C   UNL     1       2.051   7.765  19.875  0.00  0.00    +0.000 A 
ATOM      3  C   UNL     1       1.305   8.944  19.953  0.00  0.00    +0.000 A 
ATOM      4  C   UNL     1       1.180   9.755  18.834  0.00  0.00    +0.000 A 
ATOM      5  C   UNL     1       1.780   9.412  17.632  0.00  0.00    +0.000 A 
ATOM      6  N   UNL     1       2.476   8.245  17.565  0.00  0.00    +0.000 NA
ATOM      7  S   UNL     1       0.232  11.107  19.177  0.00  0.00    +0.000 S 
ATOM      8  C   UNL     1      -0.044  10.645  20.776  0.00  0.00    +0.000 A 
ATOM      9  C   UNL     1      -0.809  11.311  21.729  0.00  0.00    +0.000 A 
ATOM     10  C   UNL     1      -0.919  10.748  23.009  0.00  0.00    +0.000 A 
ATOM     11  C   UNL     1      -0.268   9.537  23.313  0.00  0.00    +0.000 A 
ATOM     12  C   UNL     1       0.501   8.877  22.339  0.00  0.00    +0.000 A 
ATOM     13  C   UNL     1       0.607   9.446  21.061  0.00  0.00    +0.000 A 
ENDROOT
BRANCH   1  15
ATOM     14  O   UNL     1       4.528   6.195  18.102  0.00  0.00    +0.000 OA
ATOM     15  C   UNL     1       3.376   6.119  18.512  0.00  0.00    +0.000 C 
ATOM     16  N   UNL     1       2.875   4.882  18.870  0.00  0.00    +0.000 N 
ATOM     17  C   UNL     1       3.674   3.671  18.705  0.00  0.00    +0.000 C 
ATOM     18  C   UNL     1       3.909   3.051  20.086  0.00  0.00    +0.000 C 
ATOM     19  N   UNL     1       2.621   2.783  20.742  0.00  0.00    +0.000 NA
ATOM     20  C   UNL     1       1.854   4.025  20.903  0.00  0.00    +0.000 C 
ATOM     21  C   UNL     1       1.592   4.670  19.538  0.00  0.00    +0.000 C 
ATOM     22  H   UNL     1       2.807   2.385  21.692  0.00  0.00    +0.000 HD
ENDBRANCH   1  15
TORSDOF 1
ENDMDL
MODEL 6
REMARK VINA RESULT:      -7.3      3.037      6.825
REMARK  Name = 
REMARK  1 active torsions:
REMARK  status: ('A' for Active; 'I' for Inactive)
REMARK    1  A    between atoms: C_2  and  C_3
REMARK                            x       y       z     vdW  Elec       q    Type
REMARK                         _______ _______ _______ _____ _____    ______ ____
ROOT
ATOM      1  C   UNL     1       1.396   8.926  19.866  0.00  0.00    +0.000 A 
ATOM      2  C   UNL     1       1.483   7.613  20.387  0.00  0.00    +0.000 A 
ATOM      3  C   UNL     1       2.197   6.651  19.668  0.00  0.00    +0.000 A 
ATOM      4  C   UNL     1       2.760   6.983  18.444  0.00  0.00    +0.000 A 
ATOM      5  C   UNL     1       2.631   8.261  17.922  0.00  0.00    +0.000 A 
ATOM      6  N   UNL     1       1.961   9.195  18.650  0.00  0.00    +0.000 NA
ATOM      7  S   UNL     1       3.570   5.663  17.779  0.00  0.00    +0.000 S 
ATOM      8  C   UNL     1       3.217   4.649  19.082  0.00  0.00    +0.000 A 
ATOM      9  C   UNL     1       3.603   3.323  19.251  0.00  0.00    +0.000 A 
ATOM     10  C   UNL     1       3.209   2.658  20.421  0.00  0.00    +0.000 A 
ATOM     11  C   UNL     1       2.442   3.324  21.395  0.00  0.00    +0.000 A 
ATOM     12  C   UNL     1       2.060   4.664  21.209  0.00  0.00    +0.000 A 
ATOM     13  C   UNL     1       2.457   5.323  20.037  0.00  0.00    +0.000 A 
ENDROOT
BRANCH   1  15
ATOM     14  O   UNL     1       1.230  10.368  21.673  0.00  0.00    +0.000 OA
ATOM     15  C   UNL     1       0.687   9.985  20.645  0.00  0.00    +0.000 C 
ATOM     16  N   UNL     1      -0.499  10.576  20.256  0.00  0.00    +0.000 N 
ATOM     17  C   UNL     1      -1.137  11.596  21.084  0.00  0.00    +0.000 C 
ATOM     18  C   UNL     1      -1.189  12.906  20.292  0.00  0.00    +0.000 C 
ATOM     19  N   UNL     1      -1.899  12.696  19.021  0.00  0.00    +0.000 NA
ATOM     20  C   UNL     1      -1.219  11.676  18.211  0.00  0.00    +0.000 C 
ATOM     21  C   UNL     1      -1.157  10.347  18.971  0.00  0.00    +0.000 C 
ATOM     22  H   UNL     1      -1.898  13.597  18.487  0.00  0.00    +0.000 HD
ENDBRANCH   1  15
TORSDOF 1
ENDMDL
MODEL 7
REMARK VINA RESULT:      -7.2      3.067      7.167
REMARK  Name = 
REMARK  1 active torsions:
REMARK  status: ('A' for Active; 'I' for Inactive)
REMARK    1  A    between atoms: C_2  and  C_3
REMARK                            x       y       z     vdW  Elec       q    Type
REMARK                         _______ _______ _______ _____ _____    ______ ____
ROOT
ATOM      1  C   UNL     1       1.971   7.077  20.110  0.00  0.00    +0.000 A 
ATOM      2  C   UNL     1       2.849   7.073  19.000  0.00  0.00    +0.000 A 
ATOM      3  C   UNL     1       3.337   5.850  18.534  0.00  0.00    +0.000 A 
ATOM      4  C   UNL     1       2.996   4.676  19.191  0.00  0.00    +0.000 A 
ATOM      5  C   UNL     1       2.170   4.696  20.305  0.00  0.00    +0.000 A 
ATOM      6  N   UNL     1       1.677   5.892  20.726  0.00  0.00    +0.000 NA
ATOM      7  S   UNL     1       3.698   3.341  18.439  0.00  0.00    +0.000 S 
ATOM      8  C   UNL     1       4.438   4.269  17.238  0.00  0.00    +0.000 A 
ATOM      9  C   UNL     1       5.223   3.815  16.183  0.00  0.00    +0.000 A 
ATOM     10  C   UNL     1       5.740   4.759  15.283  0.00  0.00    +0.000 A 
ATOM     11  C   UNL     1       5.464   6.129  15.451  0.00  0.00    +0.000 A 
ATOM     12  C   UNL     1       4.670   6.571  16.523  0.00  0.00    +0.000 A 
ATOM     13  C   UNL     1       4.157   5.622  17.419  0.00  0.00    +0.000 A 
ENDROOT
BRANCH   1  15
ATOM     14  O   UNL     1       1.350   8.532  21.804  0.00  0.00    +0.000 OA
ATOM     15  C   UNL     1       1.393   8.367  20.591  0.00  0.00    +0.000 C 
ATOM     16  N   UNL     1       0.954   9.382  19.763  0.00  0.00    +0.000 N 
ATOM     17  C   UNL     1       0.386  10.609  20.315  0.00  0.00    +0.000 C 
ATOM     18  C   UNL     1       1.276  11.787  19.905  0.00  0.00    +0.000 C 
ATOM     19  N   UNL     1       1.397  11.839  18.441  0.00  0.00    +0.000 NA
ATOM     20  C   UNL     1       1.985  10.595  17.926  0.00  0.00    +0.000 C 
ATOM     21  C   UNL     1       1.115   9.395  18.310  0.00  0.00    +0.000 C 
ATOM     22  H   UNL     1       2.030  12.633  18.187  0.00  0.00    +0.000 HD
ENDBRANCH   1  15
TORSDOF 1
ENDMDL
MODEL 8
REMARK VINA RESULT:      -7.2      2.582      4.044
REMARK  Name = 
REMARK  1 active torsions:
REMARK  status: ('A' for Active; 'I' for Inactive)
REMARK    1  A    between atoms: C_2  and  C_3
REMARK                            x       y       z     vdW  Elec       q    Type
REMARK                         _______ _______ _______ _____ _____    ______ ____
ROOT
ATOM      1  C   UNL     1       3.195   5.296  18.396  0.00  0.00    +0.000 A 
ATOM      2  C   UNL     1       2.838   6.634  18.108  0.00  0.00    +0.000 A 
ATOM      3  C   UNL     1       2.177   7.378  19.088  0.00  0.00    +0.000 A 
ATOM      4  C   UNL     1       1.841   6.783  20.295  0.00  0.00    +0.000 A 
ATOM      5  C   UNL     1       2.157   5.457  20.551  0.00  0.00    +0.000 A 
ATOM      6  N   UNL     1       2.830   4.756  19.598  0.00  0.00    +0.000 NA
ATOM      7  S   UNL     1       1.061   7.881  21.309  0.00  0.00    +0.000 S 
ATOM      8  C   UNL     1       1.167   9.149  20.200  0.00  0.00    +0.000 A 
ATOM      9  C   UNL     1       0.721  10.457  20.365  0.00  0.00    +0.000 A 
ATOM     10  C   UNL     1       0.917  11.366  19.315  0.00  0.00    +0.000 A 
ATOM     11  C   UNL     1       1.552  10.956  18.127  0.00  0.00    +0.000 A 
ATOM     12  C   UNL     1       1.997   9.631  17.976  0.00  0.00    +0.000 A 
ATOM     13  C   UNL     1       1.797   8.727  19.030  0.00  0.00    +0.000 A 
ENDROOT
BRANCH   1  15
ATOM     14  O   UNL     1       3.294   3.757  16.665  0.00  0.00    +0.000 OA
ATOM     15  C   UNL     1       3.952   4.499  17.385  0.00  0.00    +0.000 C 
ATOM     16  N   UNL     1       5.317   4.581  17.189  0.00  0.00    +0.000 N 
ATOM     17  C   UNL     1       5.984   3.753  16.187  0.00  0.00    +0.000 C 
ATOM     18  C   UNL     1       6.616   4.673  15.137  0.00  0.00    +0.000 C 
ATOM     19  N   UNL     1       7.540   5.614  15.785  0.00  0.00    +0.000 NA
ATOM     20  C   UNL     1       6.830   6.438  16.773  0.00  0.00    +0.000 C 
ATOM     21  C   UNL     1       6.192   5.550  17.847  0.00  0.00    +0.000 C 
ATOM     22  H   UNL     1       7.938   6.248  15.053  0.00  0.00    +0.000 HD
ENDBRANCH   1  15
TORSDOF 1
ENDMDL
MODEL 9
REMARK VINA RESULT:      -6.9      3.026      6.524
REMARK  Name = 
REMARK  1 active torsions:
REMARK  status: ('A' for Active; 'I' for Inactive)
REMARK    1  A    between atoms: C_2  and  C_3
REMARK                            x       y       z     vdW  Elec       q    Type
REMARK                         _______ _______ _______ _____ _____    ______ ____
ROOT
ATOM      1  C   UNL     1       1.758   8.673  19.067  0.00  0.00    +0.000 A 
ATOM      2  C   UNL     1       1.656   7.459  19.786  0.00  0.00    +0.000 A 
ATOM      3  C   UNL     1       2.452   6.379  19.398  0.00  0.00    +0.000 A 
ATOM      4  C   UNL     1       3.284   6.498  18.294  0.00  0.00    +0.000 A 
ATOM      5  C   UNL     1       3.345   7.679  17.569  0.00  0.00    +0.000 A 
ATOM      6  N   UNL     1       2.587   8.732  17.981  0.00  0.00    +0.000 NA
ATOM      7  S   UNL     1       4.143   5.071  18.033  0.00  0.00    +0.000 S 
ATOM      8  C   UNL     1       3.459   4.287  19.363  0.00  0.00    +0.000 A 
ATOM      9  C   UNL     1       3.724   2.997  19.812  0.00  0.00    +0.000 A 
ATOM     10  C   UNL     1       3.049   2.537  20.952  0.00  0.00    +0.000 A 
ATOM     11  C   UNL     1       2.128   3.367  21.619  0.00  0.00    +0.000 A 
ATOM     12  C   UNL     1       1.872   4.668  21.152  0.00  0.00    +0.000 A 
ATOM     13  C   UNL     1       2.550   5.122  20.012  0.00  0.00    +0.000 A 
ENDROOT
BRANCH   1  15
ATOM     14  O   UNL     1       0.290  10.414  18.635  0.00  0.00    +0.000 OA
ATOM     15  C   UNL     1       0.959   9.858  19.498  0.00  0.00    +0.000 C 
ATOM     16  N   UNL     1       0.896  10.328  20.796  0.00  0.00    +0.000 N 
ATOM     17  C   UNL     1       0.100  11.505  21.132  0.00  0.00    +0.000 C 
ATOM     18  C   UNL     1      -1.000  11.087  22.112  0.00  0.00    +0.000 C 
ATOM     19  N   UNL     1      -0.403  10.461  23.300  0.00  0.00    +0.000 NA
ATOM     20  C   UNL     1       0.375   9.273  22.924  0.00  0.00    +0.000 C 
ATOM     21  C   UNL     1       1.494   9.656  21.949  0.00  0.00    +0.000 C 
ATOM     22  H   UNL     1      -1.174  10.160  23.941  0.00  0.00    +0.000 HD
ENDBRANCH   1  15
TORSDOF 1
ENDMDL
