MODEL 1
REMARK VINA RESULT:      -8.2      0.000      0.000
REMARK  Name = 
REMARK  1 active torsions:
REMARK  status: ('A' for Active; 'I' for Inactive)
REMARK    1  A    between atoms: N_10  and  C_11
REMARK                            x       y       z     vdW  Elec       q    Type
REMARK                         _______ _______ _______ _____ _____    ______ ____
ROOT
ATOM      1  F   UNL     1       0.639  10.823  19.187  0.00  0.00    +0.000 F 
ATOM      2  C   UNL     1       1.076   9.590  19.481  0.00  0.00    +0.000 A 
ATOM      3  C   UNL     1       0.713   9.010  20.691  0.00  0.00    +0.000 A 
ATOM      4  C   UNL     1       1.155   7.724  20.997  0.00  0.00    +0.000 A 
ATOM      5  C   UNL     1       1.958   7.014  20.090  0.00  0.00    +0.000 A 
ATOM      6  C   UNL     1       2.348   7.616  18.878  0.00  0.00    +0.000 A 
ATOM      7  C   UNL     1       1.884   8.902  18.582  0.00  0.00    +0.000 A 
ATOM      8  F   UNL     1       2.217   9.478  17.418  0.00  0.00    +0.000 F 
ATOM      9  C   UNL     1       3.226   6.914  17.868  0.00  0.00    +0.000 C 
ATOM     10  N   UNL     1       3.763   5.653  18.373  0.00  0.00    +0.000 N 
ATOM     11  C   UNL     1       2.906   4.838  19.218  0.00  0.00    +0.000 C 
ATOM     12  C   UNL     1       2.461   5.638  20.447  0.00  0.00    +0.000 C 
ENDROOT
BRANCH  10  13
ATOM     13  C   UNL     1       5.101   5.372  18.192  0.00  0.00    +0.000 A 
ATOM     14  N   UNL     1       5.940   5.455  19.261  0.00  0.00    +0.000 NA
ATOM     15  C   UNL     1       7.251   5.184  19.105  0.00  0.00    +0.000 A 
ATOM     16  N   UNL     1       7.897   4.844  17.979  0.00  0.00    +0.000 NA
ATOM     17  C   UNL     1       7.055   4.802  16.938  0.00  0.00    +0.000 A 
ATOM     18  N   UNL     1       7.439   4.522  15.655  0.00  0.00    +0.000 N 
ATOM     19  C   UNL     1       6.353   4.592  14.821  0.00  0.00    +0.000 A 
ATOM     20  C   UNL     1       5.258   4.920  15.592  0.00  0.00    +0.000 A 
ATOM     21  C   UNL     1       5.688   5.040  16.949  0.00  0.00    +0.000 A 
ATOM     22  H   UNL     1       8.391   4.326  15.385  0.00  0.00    +0.000 HD
ENDBRANCH  10  13
TORSDOF 1
ENDMDL
MODEL 2
REMARK VINA RESULT:      -7.9      0.907      2.041
REMARK  Name = 
REMARK  1 active torsions:
REMARK  status: ('A' for Active; 'I' for Inactive)
REMARK    1  A    between atoms: N_10  and  C_11
REMARK                            x       y       z     vdW  Elec       q    Type
REMARK                         _______ _______ _______ _____ _____    ______ ____
ROOT
ATOM      1  F   UNL     1       0.973  10.419  19.561  0.00  0.00    +0.000 F 
ATOM      2  C   UNL     1       1.384   9.145  19.638  0.00  0.00    +0.000 A 
ATOM      3  C   UNL     1       1.184   8.435  20.816  0.00  0.00    +0.000 A 
ATOM      4  C   UNL     1       1.598   7.107  20.897  0.00  0.00    +0.000 A 
ATOM      5  C   UNL     1       2.212   6.486  19.798  0.00  0.00    +0.000 A 
ATOM      6  C   UNL     1       2.440   7.217  18.615  0.00  0.00    +0.000 A 
ATOM      7  C   UNL     1       2.005   8.544  18.548  0.00  0.00    +0.000 A 
ATOM      8  F   UNL     1       2.182   9.246  17.419  0.00  0.00    +0.000 F 
ATOM      9  C   UNL     1       3.112   6.613  17.404  0.00  0.00    +0.000 C 
ATOM     10  N   UNL     1       3.653   5.282  17.668  0.00  0.00    +0.000 N 
ATOM     11  C   UNL     1       2.896   4.400  18.541  0.00  0.00    +0.000 C 
ATOM     12  C   UNL     1       2.691   5.060  19.909  0.00  0.00    +0.000 C 
ENDROOT
BRANCH  10  13
ATOM     13  C   UNL     1       4.930   4.980  17.243  0.00  0.00    +0.000 A 
ATOM     14  N   UNL     1       5.102   4.468  15.994  0.00  0.00    +0.000 NA
ATOM     15  C   UNL     1       6.341   4.166  15.560  0.00  0.00    +0.000 A 
ATOM     16  N   UNL     1       7.501   4.282  16.224  0.00  0.00    +0.000 NA
ATOM     17  C   UNL     1       7.300   4.756  17.461  0.00  0.00    +0.000 A 
ATOM     18  N   UNL     1       8.296   4.941  18.381  0.00  0.00    +0.000 N 
ATOM     19  C   UNL     1       7.761   5.402  19.556  0.00  0.00    +0.000 A 
ATOM     20  C   UNL     1       6.398   5.515  19.376  0.00  0.00    +0.000 A 
ATOM     21  C   UNL     1       6.092   5.122  18.037  0.00  0.00    +0.000 A 
ATOM     22  H   UNL     1       9.267   4.733  18.205  0.00  0.00    +0.000 HD
ENDBRANCH  10  13
TORSDOF 1
ENDMDL
MODEL 3
REMARK VINA RESULT:      -7.9      3.382      6.018
REMARK  Name = 
REMARK  1 active torsions:
REMARK  status: ('A' for Active; 'I' for Inactive)
REMARK    1  A    between atoms: N_10  and  C_11
REMARK                            x       y       z     vdW  Elec       q    Type
REMARK                         _______ _______ _______ _____ _____    ______ ____
ROOT
ATOM      1  F   UNL     1       9.105   7.896  19.254  0.00  0.00    +0.000 F 
ATOM      2  C   UNL     1       8.115   7.364  18.523  0.00  0.00    +0.000 A 
ATOM      3  C   UNL     1       7.662   8.039  17.396  0.00  0.00    +0.000 A 
ATOM      4  C   UNL     1       6.642   7.485  16.625  0.00  0.00    +0.000 A 
ATOM      5  C   UNL     1       6.074   6.250  16.981  0.00  0.00    +0.000 A 
ATOM      6  C   UNL     1       6.516   5.582  18.140  0.00  0.00    +0.000 A 
ATOM      7  C   UNL     1       7.550   6.148  18.892  0.00  0.00    +0.000 A 
ATOM      8  F   UNL     1       8.007   5.510  19.980  0.00  0.00    +0.000 F 
ATOM      9  C   UNL     1       5.935   4.261  18.587  0.00  0.00    +0.000 C 
ATOM     10  N   UNL     1       4.765   3.870  17.805  0.00  0.00    +0.000 N 
ATOM     11  C   UNL     1       4.765   4.171  16.383  0.00  0.00    +0.000 C 
ATOM     12  C   UNL     1       4.945   5.676  16.162  0.00  0.00    +0.000 C 
ENDROOT
BRANCH  10  13
ATOM     13  C   UNL     1       3.642   3.409  18.460  0.00  0.00    +0.000 A 
ATOM     14  N   UNL     1       3.244   2.123  18.256  0.00  0.00    +0.000 NA
ATOM     15  C   UNL     1       2.150   1.654  18.886  0.00  0.00    +0.000 A 
ATOM     16  N   UNL     1       1.331   2.310  19.722  0.00  0.00    +0.000 NA
ATOM     17  C   UNL     1       1.726   3.581  19.880  0.00  0.00    +0.000 A 
ATOM     18  N   UNL     1       1.060   4.500  20.644  0.00  0.00    +0.000 N 
ATOM     19  C   UNL     1       1.697   5.711  20.571  0.00  0.00    +0.000 A 
ATOM     20  C   UNL     1       2.791   5.556  19.746  0.00  0.00    +0.000 A 
ATOM     21  C   UNL     1       2.832   4.196  19.311  0.00  0.00    +0.000 A 
ATOM     22  H   UNL     1       0.212   4.297  21.152  0.00  0.00    +0.000 HD
ENDBRANCH  10  13
TORSDOF 1
ENDMDL
MODEL 4
REMARK VINA RESULT:      -7.8      1.196      1.196
REMARK  Name = 
REMARK  1 active torsions:
REMARK  status: ('A' for Active; 'I' for Inactive)
REMARK    1  A    between atoms: N_10  and  C_11
REMARK                            x       y       z     vdW  Elec       q    Type
REMARK                         _______ _______ _______ _____ _____    ______ ____
ROOT
ATOM      1  F   UNL     1       0.180  10.852  19.942  0.00  0.00    +0.000 F 
ATOM      2  C   UNL     1       0.803   9.666  19.915  0.00  0.00    +0.000 A 
ATOM      3  C   UNL     1       0.708   8.822  21.015  0.00  0.00    +0.000 A 
ATOM      4  C   UNL     1       1.344   7.581  20.988  0.00  0.00    +0.000 A 
ATOM      5  C   UNL     1       2.075   7.183  19.857  0.00  0.00    +0.000 A 
ATOM      6  C   UNL     1       2.193   8.053  18.755  0.00  0.00    +0.000 A 
ATOM      7  C   UNL     1       1.536   9.287  18.796  0.00  0.00    +0.000 A 
ATOM      8  F   UNL     1       1.610  10.114  17.743  0.00  0.00    +0.000 F 
ATOM      9  C   UNL     1       2.979   7.691  17.517  0.00  0.00    +0.000 C 
ATOM     10  N   UNL     1       3.737   6.453  17.675  0.00  0.00    +0.000 N 
ATOM     11  C   UNL     1       3.128   5.375  18.437  0.00  0.00    +0.000 C 
ATOM     12  C   UNL     1       2.790   5.855  19.852  0.00  0.00    +0.000 C 
ENDROOT
BRANCH  10  13
ATOM     13  C   UNL     1       5.054   6.414  17.267  0.00  0.00    +0.000 A 
ATOM     14  N   UNL     1       5.910   7.372  17.718  0.00  0.00    +0.000 NA
ATOM     15  C   UNL     1       7.200   7.352  17.331  0.00  0.00    +0.000 A 
ATOM     16  N   UNL     1       7.801   6.486  16.500  0.00  0.00    +0.000 NA
ATOM     17  C   UNL     1       6.930   5.576  16.045  0.00  0.00    +0.000 A 
ATOM     18  N   UNL     1       7.250   4.591  15.150  0.00  0.00    +0.000 N 
ATOM     19  C   UNL     1       6.135   3.848  14.861  0.00  0.00    +0.000 A 
ATOM     20  C   UNL     1       5.087   4.370  15.590  0.00  0.00    +0.000 A 
ATOM     21  C   UNL     1       5.584   5.463  16.365  0.00  0.00    +0.000 A 
ATOM     22  H   UNL     1       8.170   4.471  14.755  0.00  0.00    +0.000 HD
ENDBRANCH  10  13
TORSDOF 1
ENDMDL
MODEL 5
REMARK VINA RESULT:      -7.7      3.185      6.319
REMARK  Name = 
REMARK  1 active torsions:
REMARK  status: ('A' for Active; 'I' for Inactive)
REMARK    1  A    between atoms: N_10  and  C_11
REMARK                            x       y       z     vdW  Elec       q    Type
REMARK                         _______ _______ _______ _____ _____    ______ ____
ROOT
ATOM      1  F   UNL     1       8.178   4.385  17.304  0.00  0.00    +0.000 F 
ATOM      2  C   UNL     1       6.838   4.427  17.321  0.00  0.00    +0.000 A 
ATOM      3  C   UNL     1       6.128   3.969  16.217  0.00  0.00    +0.000 A 
ATOM      4  C   UNL     1       4.734   3.999  16.235  0.00  0.00    +0.000 A 
ATOM      5  C   UNL     1       4.049   4.485  17.360  0.00  0.00    +0.000 A 
ATOM      6  C   UNL     1       4.772   4.975  18.465  0.00  0.00    +0.000 A 
ATOM      7  C   UNL     1       6.169   4.924  18.434  0.00  0.00    +0.000 A 
ATOM      8  F   UNL     1       6.874   5.354  19.491  0.00  0.00    +0.000 F 
ATOM      9  C   UNL     1       4.095   5.528  19.697  0.00  0.00    +0.000 C 
ATOM     10  N   UNL     1       2.651   5.668  19.529  0.00  0.00    +0.000 N 
ATOM     11  C   UNL     1       1.952   4.647  18.765  0.00  0.00    +0.000 C 
ATOM     12  C   UNL     1       2.542   4.548  17.354  0.00  0.00    +0.000 C 
ENDROOT
BRANCH  10  13
ATOM     13  C   UNL     1       2.038   6.837  19.929  0.00  0.00    +0.000 A 
ATOM     14  N   UNL     1       1.392   6.863  21.128  0.00  0.00    +0.000 NA
ATOM     15  C   UNL     1       0.787   7.995  21.537  0.00  0.00    +0.000 A 
ATOM     16  N   UNL     1       0.703   9.168  20.890  0.00  0.00    +0.000 NA
ATOM     17  C   UNL     1       1.317   9.105  19.701  0.00  0.00    +0.000 A 
ATOM     18  N   UNL     1       1.358  10.139  18.806  0.00  0.00    +0.000 N 
ATOM     19  C   UNL     1       2.028   9.747  17.677  0.00  0.00    +0.000 A 
ATOM     20  C   UNL     1       2.422   8.438  17.861  0.00  0.00    +0.000 A 
ATOM     21  C   UNL     1       1.990   8.021  19.157  0.00  0.00    +0.000 A 
ATOM     22  H   UNL     1       0.926  11.036  18.966  0.00  0.00    +0.000 HD
ENDBRANCH  10  13
TORSDOF 1
ENDMDL
MODEL 6
REMARK VINA RESULT:      -7.4      3.053      4.461
REMARK  Name = 
REMARK  1 active torsions:
REMARK  status: ('A' for Active; 'I' for Inactive)
REMARK    1  A    between atoms: N_10  and  C_11
REMARK                            x       y       z     vdW  Elec       q    Type
REMARK                         _______ _______ _______ _____ _____    ______ ____
ROOT
ATOM      1  F   UNL     1      -0.623  10.796  21.408  0.00  0.00    +0.000 F 
ATOM      2  C   UNL     1       0.127  10.187  20.479  0.00  0.00    +0.000 A 
ATOM      3  C   UNL     1       0.277  10.777  19.230  0.00  0.00    +0.000 A 
ATOM      4  C   UNL     1       1.066  10.154  18.264  0.00  0.00    +0.000 A 
ATOM      5  C   UNL     1       1.709   8.938  18.550  0.00  0.00    +0.000 A 
ATOM      6  C   UNL     1       1.531   8.328  19.807  0.00  0.00    +0.000 A 
ATOM      7  C   UNL     1       0.747   8.976  20.767  0.00  0.00    +0.000 A 
ATOM      8  F   UNL     1       0.594   8.427  21.981  0.00  0.00    +0.000 F 
ATOM      9  C   UNL     1       2.180   7.013  20.170  0.00  0.00    +0.000 C 
ATOM     10  N   UNL     1       2.834   6.377  19.030  0.00  0.00    +0.000 N 
ATOM     11  C   UNL     1       3.512   7.231  18.069  0.00  0.00    +0.000 C 
ATOM     12  C   UNL     1       2.530   8.253  17.486  0.00  0.00    +0.000 C 
ENDROOT
BRANCH  10  13
ATOM     13  C   UNL     1       2.630   5.031  18.803  0.00  0.00    +0.000 A 
ATOM     14  N   UNL     1       2.726   4.558  17.530  0.00  0.00    +0.000 NA
ATOM     15  C   UNL     1       2.530   3.247  17.288  0.00  0.00    +0.000 A 
ATOM     16  N   UNL     1       2.216   2.282  18.165  0.00  0.00    +0.000 NA
ATOM     17  C   UNL     1       2.095   2.780  19.403  0.00  0.00    +0.000 A 
ATOM     18  N   UNL     1       1.743   2.036  20.496  0.00  0.00    +0.000 N 
ATOM     19  C   UNL     1       1.673   2.842  21.602  0.00  0.00    +0.000 A 
ATOM     20  C   UNL     1       1.991   4.124  21.202  0.00  0.00    +0.000 A 
ATOM     21  C   UNL     1       2.281   4.095  19.804  0.00  0.00    +0.000 A 
ATOM     22  H   UNL     1       1.540   1.048  20.460  0.00  0.00    +0.000 HD
ENDBRANCH  10  13
TORSDOF 1
ENDMDL
MODEL 7
REMARK VINA RESULT:      -7.4      2.352      3.870
REMARK  Name = 
REMARK  1 active torsions:
REMARK  status: ('A' for Active; 'I' for Inactive)
REMARK    1  A    between atoms: N_10  and  C_11
REMARK                            x       y       z     vdW  Elec       q    Type
REMARK                         _______ _______ _______ _____ _____    ______ ____
ROOT
ATOM      1  F   UNL     1      -0.140   9.973  20.483  0.00  0.00    +0.000 F 
ATOM      2  C   UNL     1       0.752   9.289  19.753  0.00  0.00    +0.000 A 
ATOM      3  C   UNL     1       1.010   9.687  18.447  0.00  0.00    +0.000 A 
ATOM      4  C   UNL     1       1.946   8.987  17.687  0.00  0.00    +0.000 A 
ATOM      5  C   UNL     1       2.628   7.889  18.236  0.00  0.00    +0.000 A 
ATOM      6  C   UNL     1       2.343   7.471  19.551  0.00  0.00    +0.000 A 
ATOM      7  C   UNL     1       1.411   8.194  20.302  0.00  0.00    +0.000 A 
ATOM      8  F   UNL     1       1.151   7.832  21.567  0.00  0.00    +0.000 F 
ATOM      9  C   UNL     1       3.028   6.287  20.193  0.00  0.00    +0.000 C 
ATOM     10  N   UNL     1       3.851   5.536  19.249  0.00  0.00    +0.000 N 
ATOM     11  C   UNL     1       4.582   6.282  18.238  0.00  0.00    +0.000 C 
ATOM     12  C   UNL     1       3.611   7.115  17.393  0.00  0.00    +0.000 C 
ENDROOT
BRANCH  10  13
ATOM     13  C   UNL     1       3.763   4.159  19.228  0.00  0.00    +0.000 A 
ATOM     14  N   UNL     1       4.895   3.426  19.406  0.00  0.00    +0.000 NA
ATOM     15  C   UNL     1       4.830   2.080  19.389  0.00  0.00    +0.000 A 
ATOM     16  N   UNL     1       3.752   1.307  19.189  0.00  0.00    +0.000 NA
ATOM     17  C   UNL     1       2.658   2.053  18.983  0.00  0.00    +0.000 A 
ATOM     18  N   UNL     1       1.420   1.538  18.712  0.00  0.00    +0.000 N 
ATOM     19  C   UNL     1       0.526   2.558  18.519  0.00  0.00    +0.000 A 
ATOM     20  C   UNL     1       1.211   3.746  18.672  0.00  0.00    +0.000 A 
ATOM     21  C   UNL     1       2.570   3.438  18.987  0.00  0.00    +0.000 A 
ATOM     22  H   UNL     1       1.228   0.550  18.642  0.00  0.00    +0.000 HD
ENDBRANCH  10  13
TORSDOF 1
ENDMDL
MODEL 8
REMARK VINA RESULT:      -7.4      3.132      4.056
REMARK  Name = 
REMARK  1 active torsions:
REMARK  status: ('A' for Active; 'I' for Inactive)
REMARK    1  A    between atoms: N_10  and  C_11
REMARK                            x       y       z     vdW  Elec       q    Type
REMARK                         _______ _______ _______ _____ _____    ______ ____
ROOT
ATOM      1  F   UNL     1      -0.663  11.241  20.380  0.00  0.00    +0.000 F 
ATOM      2  C   UNL     1       0.148  10.343  19.804  0.00  0.00    +0.000 A 
ATOM      3  C   UNL     1       0.531  10.521  18.480  0.00  0.00    +0.000 A 
ATOM      4  C   UNL     1       1.384   9.597  17.879  0.00  0.00    +0.000 A 
ATOM      5  C   UNL     1       1.859   8.492  18.605  0.00  0.00    +0.000 A 
ATOM      6  C   UNL     1       1.445   8.299  19.938  0.00  0.00    +0.000 A 
ATOM      7  C   UNL     1       0.600   9.244  20.527  0.00  0.00    +0.000 A 
ATOM      8  F   UNL     1       0.223   9.095  21.806  0.00  0.00    +0.000 F 
ATOM      9  C   UNL     1       1.905   7.122  20.767  0.00  0.00    +0.000 C 
ATOM     10  N   UNL     1       2.648   6.140  19.983  0.00  0.00    +0.000 N 
ATOM     11  C   UNL     1       3.536   6.630  18.942  0.00  0.00    +0.000 C 
ATOM     12  C   UNL     1       2.751   7.478  17.936  0.00  0.00    +0.000 C 
ENDROOT
BRANCH  10  13
ATOM     13  C   UNL     1       2.348   4.800  20.125  0.00  0.00    +0.000 A 
ATOM     14  N   UNL     1       2.031   4.326  21.361  0.00  0.00    +0.000 NA
ATOM     15  C   UNL     1       1.735   3.021  21.520  0.00  0.00    +0.000 A 
ATOM     16  N   UNL     1       1.724   2.056  20.588  0.00  0.00    +0.000 NA
ATOM     17  C   UNL     1       2.072   2.543  19.390  0.00  0.00    +0.000 A 
ATOM     18  N   UNL     1       2.186   1.781  18.258  0.00  0.00    +0.000 N 
ATOM     19  C   UNL     1       2.589   2.567  17.210  0.00  0.00    +0.000 A 
ATOM     20  C   UNL     1       2.731   3.854  17.687  0.00  0.00    +0.000 A 
ATOM     21  C   UNL     1       2.386   3.856  19.073  0.00  0.00    +0.000 A 
ATOM     22  H   UNL     1       2.021   0.787  18.233  0.00  0.00    +0.000 HD
ENDBRANCH  10  13
TORSDOF 1
ENDMDL
MODEL 9
REMARK VINA RESULT:      -7.3      2.272      3.491
REMARK  Name = 
REMARK  1 active torsions:
REMARK  status: ('A' for Active; 'I' for Inactive)
REMARK    1  A    between atoms: N_10  and  C_11
REMARK                            x       y       z     vdW  Elec       q    Type
REMARK                         _______ _______ _______ _____ _____    ______ ____
ROOT
ATOM      1  F   UNL     1      -0.969  10.456  22.293  0.00  0.00    +0.000 F 
ATOM      2  C   UNL     1      -0.327  10.104  21.170  0.00  0.00    +0.000 A 
ATOM      3  C   UNL     1      -0.547  10.829  20.005  0.00  0.00    +0.000 A 
ATOM      4  C   UNL     1       0.127  10.475  18.837  0.00  0.00    +0.000 A 
ATOM      5  C   UNL     1       1.025   9.396  18.834  0.00  0.00    +0.000 A 
ATOM      6  C   UNL     1       1.223   8.645  20.010  0.00  0.00    +0.000 A 
ATOM      7  C   UNL     1       0.548   9.024  21.175  0.00  0.00    +0.000 A 
ATOM      8  F   UNL     1       0.751   8.342  22.312  0.00  0.00    +0.000 F 
ATOM      9  C   UNL     1       2.161   7.462  20.069  0.00  0.00    +0.000 C 
ATOM     10  N   UNL     1       2.671   7.085  18.753  0.00  0.00    +0.000 N 
ATOM     11  C   UNL     1       2.970   8.148  17.808  0.00  0.00    +0.000 C 
ATOM     12  C   UNL     1       1.721   8.998  17.557  0.00  0.00    +0.000 C 
ENDROOT
BRANCH  10  13
ATOM     13  C   UNL     1       2.673   5.754  18.390  0.00  0.00    +0.000 A 
ATOM     14  N   UNL     1       1.580   4.994  18.674  0.00  0.00    +0.000 NA
ATOM     15  C   UNL     1       1.562   3.692  18.327  0.00  0.00    +0.000 A 
ATOM     16  N   UNL     1       2.529   2.983  17.724  0.00  0.00    +0.000 NA
ATOM     17  C   UNL     1       3.605   3.746  17.487  0.00  0.00    +0.000 A 
ATOM     18  N   UNL     1       4.760   3.283  16.918  0.00  0.00    +0.000 N 
ATOM     19  C   UNL     1       5.678   4.298  16.843  0.00  0.00    +0.000 A 
ATOM     20  C   UNL     1       5.092   5.429  17.374  0.00  0.00    +0.000 A 
ATOM     21  C   UNL     1       3.761   5.095  17.772  0.00  0.00    +0.000 A 
ATOM     22  H   UNL     1       4.899   2.326  16.632  0.00  0.00    +0.000 HD
ENDBRANCH  10  13
TORSDOF 1
ENDMDL
