MODEL 1
REMARK VINA RESULT:      -9.1      0.000      0.000
REMARK  Name = 
REMARK  5 active torsions:
REMARK  status: ('A' for Active; 'I' for Inactive)
REMARK    1  A    between atoms: C_1  and  C_2
REMARK    2  A    between atoms: C_6  and  C_7
REMARK    3  A    between atoms: C_13  and  C_14
REMARK    4  A    between atoms: C_18  and  C_19
REMARK    5  A    between atoms: C_19  and  C_21
REMARK                            x       y       z     vdW  Elec       q    Type
REMARK                         _______ _______ _______ _____ _____    ______ ____
ROOT
ATOM      1  C   UNL     1       1.251  11.978  18.784  0.00  0.00    +0.000 C 
ATOM      2  CA  UNL     1       1.225  10.756  19.351  0.00  0.00    +0.000 A 
ATOM      3  N   UNL     1       0.889  10.572  20.672  0.00  0.00    +0.000 N 
ATOM      4  C   UNL     1       0.872   9.382  21.341  0.00  0.00    +0.000 A 
ATOM      5  O   UNL     1       0.559   9.304  22.524  0.00  0.00    +0.000 OA
ATOM      6  CA  UNL     1       1.281   8.188  20.522  0.00  0.00    +0.000 A 
ATOM      7  C   UNL     1       1.328   6.999  21.148  0.00  0.00    +0.000 C 
ATOM      8  N   UNL     1       1.606   8.361  19.195  0.00  0.00    +0.000 N 
ATOM      9  C   UNL     1       1.595   9.559  18.526  0.00  0.00    +0.000 A 
ATOM     10  O   UNL     1       1.886   9.624  17.335  0.00  0.00    +0.000 OA
ATOM     11  H   UNL     1       0.650  11.408  21.208  0.00  0.00    +0.000 HD
ATOM     12  H   UNL     1       1.894   7.563  18.644  0.00  0.00    +0.000 HD
ENDROOT
BRANCH   1  18
ATOM     13  C   UNL     1       2.971  14.752  18.708  0.00  0.00    +0.000 C 
ATOM     14  C   UNL     1       1.733  14.369  19.421  0.00  0.00    +0.000 A 
ATOM     15  N   UNL     1       1.073  15.221  20.276  0.00  0.00    +0.000 N 
ATOM     16  C   UNL     1      -0.020  14.563  20.765  0.00  0.00    +0.000 A 
ATOM     17  N   UNL     1      -0.102  13.347  20.281  0.00  0.00    +0.000 NA
ATOM     18  C   UNL     1       0.988  13.209  19.454  0.00  0.00    +0.000 A 
ATOM     19  H   UNL     1       1.347  16.164  20.515  0.00  0.00    +0.000 HD
ENDBRANCH   1  18
BRANCH   7  20
ATOM     20  C   UNL     1       1.764   5.750  20.524  0.00  0.00    +0.000 A 
ATOM     21  C   UNL     1       0.853   4.702  20.361  0.00  0.00    +0.000 A 
ATOM     22  C   UNL     1       1.271   3.489  19.813  0.00  0.00    +0.000 A 
ATOM     23  C   UNL     1       2.607   3.312  19.447  0.00  0.00    +0.000 A 
ATOM     24  C   UNL     1       3.527   4.352  19.621  0.00  0.00    +0.000 A 
ATOM     25  C   UNL     1       3.093   5.584  20.127  0.00  0.00    +0.000 A 
BRANCH  24  26
ATOM     26  C   UNL     1       4.948   4.118  19.241  0.00  0.00    +0.000 C 
ATOM     27  O   UNL     1       5.437   3.005  19.398  0.00  0.00    +0.000 OA
BRANCH  26  28
ATOM     28  C   UNL     1       5.789   5.205  18.671  0.00  0.00    +0.000 A 
ATOM     29  C   UNL     1       7.013   5.497  19.291  0.00  0.00    +0.000 A 
ATOM     30  C   UNL     1       7.845   6.485  18.762  0.00  0.00    +0.000 A 
ATOM     31  C   UNL     1       7.450   7.179  17.623  0.00  0.00    +0.000 A 
ATOM     32  F   UNL     1       8.256   8.114  17.107  0.00  0.00    +0.000 F 
ATOM     33  C   UNL     1       6.227   6.921  17.015  0.00  0.00    +0.000 A 
ATOM     34  C   UNL     1       5.384   5.946  17.550  0.00  0.00    +0.000 A 
ENDBRANCH  26  28
ENDBRANCH  24  26
ENDBRANCH   7  20
TORSDOF 4
ENDMDL
MODEL 2
REMARK VINA RESULT:      -8.8      0.738      1.106
REMARK  Name = 
REMARK  5 active torsions:
REMARK  status: ('A' for Active; 'I' for Inactive)
REMARK    1  A    between atoms: C_1  and  C_2
REMARK    2  A    between atoms: C_6  and  C_7
REMARK    3  A    between atoms: C_13  and  C_14
REMARK    4  A    between atoms: C_18  and  C_19
REMARK    5  A    between atoms: C_19  and  C_21
REMARK                            x       y       z     vdW  Elec       q    Type
REMARK                         _______ _______ _______ _____ _____    ______ ____
ROOT
ATOM      1  C   UNL     1       1.355  11.925  18.855  0.00  0.00    +0.000 C 
ATOM      2  CA  UNL     1       1.346  10.679  19.369  0.00  0.00    +0.000 A 
ATOM      3  N   UNL     1       1.098  10.442  20.701  0.00  0.00    +0.000 N 
ATOM      4  C   UNL     1       1.107   9.225  21.318  0.00  0.00    +0.000 A 
ATOM      5  O   UNL     1       0.874   9.100  22.515  0.00  0.00    +0.000 OA
ATOM      6  CA  UNL     1       1.438   8.062  20.423  0.00  0.00    +0.000 A 
ATOM      7  C   UNL     1       1.507   6.846  20.993  0.00  0.00    +0.000 C 
ATOM      8  N   UNL     1       1.675   8.288  19.085  0.00  0.00    +0.000 N 
ATOM      9  C   UNL     1       1.639   9.515  18.471  0.00  0.00    +0.000 A 
ATOM     10  O   UNL     1       1.850   9.628  17.266  0.00  0.00    +0.000 OA
ATOM     11  H   UNL     1       0.910  11.258  21.287  0.00  0.00    +0.000 HD
ATOM     12  H   UNL     1       1.911   7.511  18.482  0.00  0.00    +0.000 HD
ENDROOT
BRANCH   1  18
ATOM     13  C   UNL     1       2.954  14.760  18.598  0.00  0.00    +0.000 C 
ATOM     14  C   UNL     1       1.854  14.315  19.480  0.00  0.00    +0.000 A 
ATOM     15  N   UNL     1       1.306  15.122  20.451  0.00  0.00    +0.000 N 
ATOM     16  C   UNL     1       0.323  14.414  21.082  0.00  0.00    +0.000 A 
ATOM     17  N   UNL     1       0.206  13.207  20.581  0.00  0.00    +0.000 NA
ATOM     18  C   UNL     1       1.159  13.129  19.593  0.00  0.00    +0.000 A 
ATOM     19  H   UNL     1       1.584  16.069  20.673  0.00  0.00    +0.000 HD
ENDBRANCH   1  18
BRANCH   7  20
ATOM     20  C   UNL     1       1.878   5.620  20.288  0.00  0.00    +0.000 A 
ATOM     21  C   UNL     1       1.178   4.436  20.542  0.00  0.00    +0.000 A 
ATOM     22  C   UNL     1       1.557   3.250  19.912  0.00  0.00    +0.000 A 
ATOM     23  C   UNL     1       2.650   3.239  19.043  0.00  0.00    +0.000 A 
ATOM     24  C   UNL     1       3.364   4.418  18.796  0.00  0.00    +0.000 A 
ATOM     25  C   UNL     1       2.951   5.616  19.393  0.00  0.00    +0.000 A 
BRANCH  24  26
ATOM     26  C   UNL     1       4.538   4.362  17.882  0.00  0.00    +0.000 C 
ATOM     27  O   UNL     1       4.556   3.536  16.977  0.00  0.00    +0.000 OA
BRANCH  26  28
ATOM     28  C   UNL     1       5.691   5.290  18.041  0.00  0.00    +0.000 A 
ATOM     29  C   UNL     1       5.780   6.395  17.183  0.00  0.00    +0.000 A 
ATOM     30  C   UNL     1       6.828   7.307  17.326  0.00  0.00    +0.000 A 
ATOM     31  C   UNL     1       7.781   7.108  18.319  0.00  0.00    +0.000 A 
ATOM     32  F   UNL     1       8.775   7.991  18.467  0.00  0.00    +0.000 F 
ATOM     33  C   UNL     1       7.721   6.001  19.158  0.00  0.00    +0.000 A 
ATOM     34  C   UNL     1       6.686   5.078  19.008  0.00  0.00    +0.000 A 
ENDBRANCH  26  28
ENDBRANCH  24  26
ENDBRANCH   7  20
TORSDOF 4
ENDMDL
MODEL 3
REMARK VINA RESULT:      -8.8      1.597      1.746
REMARK  Name = 
REMARK  5 active torsions:
REMARK  status: ('A' for Active; 'I' for Inactive)
REMARK    1  A    between atoms: C_1  and  C_2
REMARK    2  A    between atoms: C_6  and  C_7
REMARK    3  A    between atoms: C_13  and  C_14
REMARK    4  A    between atoms: C_18  and  C_19
REMARK    5  A    between atoms: C_19  and  C_21
REMARK                            x       y       z     vdW  Elec       q    Type
REMARK                         _______ _______ _______ _____ _____    ______ ____
ROOT
ATOM      1  C   UNL     1       1.064  11.747  18.582  0.00  0.00    +0.000 C 
ATOM      2  CA  UNL     1       1.114  10.523  19.146  0.00  0.00    +0.000 A 
ATOM      3  N   UNL     1       0.610  10.279  20.402  0.00  0.00    +0.000 N 
ATOM      4  C   UNL     1       0.649   9.088  21.068  0.00  0.00    +0.000 A 
ATOM      5  O   UNL     1       0.175   8.953  22.190  0.00  0.00    +0.000 OA
ATOM      6  CA  UNL     1       1.331   7.969  20.328  0.00  0.00    +0.000 A 
ATOM      7  C   UNL     1       1.439   6.788  20.961  0.00  0.00    +0.000 C 
ATOM      8  N   UNL     1       1.826   8.201  19.064  0.00  0.00    +0.000 N 
ATOM      9  C   UNL     1       1.759   9.397  18.394  0.00  0.00    +0.000 A 
ATOM     10  O   UNL     1       2.215   9.517  17.260  0.00  0.00    +0.000 OA
ATOM     11  H   UNL     1       0.185  11.069  20.890  0.00  0.00    +0.000 HD
ATOM     12  H   UNL     1       2.296   7.456  18.567  0.00  0.00    +0.000 HD
ENDROOT
BRANCH   1  18
ATOM     13  C   UNL     1       2.419  14.710  18.794  0.00  0.00    +0.000 C 
ATOM     14  C   UNL     1       1.136  14.165  19.289  0.00  0.00    +0.000 A 
ATOM     15  N   UNL     1       0.242  14.913  20.019  0.00  0.00    +0.000 N 
ATOM     16  C   UNL     1      -0.828  14.119  20.318  0.00  0.00    +0.000 A 
ATOM     17  N   UNL     1      -0.678  12.911  19.828  0.00  0.00    +0.000 NA
ATOM     18  C   UNL     1       0.543  12.923  19.197  0.00  0.00    +0.000 A 
ATOM     19  H   UNL     1       0.354  15.878  20.300  0.00  0.00    +0.000 HD
ENDBRANCH   1  18
BRANCH   7  20
ATOM     20  C   UNL     1       2.124   5.615  20.418  0.00  0.00    +0.000 A 
ATOM     21  C   UNL     1       1.508   4.362  20.479  0.00  0.00    +0.000 A 
ATOM     22  C   UNL     1       2.174   3.230  20.010  0.00  0.00    +0.000 A 
ATOM     23  C   UNL     1       3.468   3.344  19.497  0.00  0.00    +0.000 A 
ATOM     24  C   UNL     1       4.096   4.595  19.445  0.00  0.00    +0.000 A 
ATOM     25  C   UNL     1       3.405   5.735  19.873  0.00  0.00    +0.000 A 
BRANCH  24  26
ATOM     26  C   UNL     1       5.485   4.673  18.914  0.00  0.00    +0.000 C 
ATOM     27  O   UNL     1       6.424   4.763  19.696  0.00  0.00    +0.000 OA
BRANCH  26  28
ATOM     28  C   UNL     1       5.760   4.641  17.451  0.00  0.00    +0.000 A 
ATOM     29  C   UNL     1       7.086   4.784  17.019  0.00  0.00    +0.000 A 
ATOM     30  C   UNL     1       7.387   4.722  15.657  0.00  0.00    +0.000 A 
ATOM     31  C   UNL     1       6.364   4.523  14.736  0.00  0.00    +0.000 A 
ATOM     32  F   UNL     1       6.655   4.447  13.432  0.00  0.00    +0.000 F 
ATOM     33  C   UNL     1       5.041   4.409  15.147  0.00  0.00    +0.000 A 
ATOM     34  C   UNL     1       4.734   4.487  16.506  0.00  0.00    +0.000 A 
ENDBRANCH  26  28
ENDBRANCH  24  26
ENDBRANCH   7  20
TORSDOF 4
ENDMDL
MODEL 4
REMARK VINA RESULT:      -8.8      2.487      3.659
REMARK  Name = 
REMARK  5 active torsions:
REMARK  status: ('A' for Active; 'I' for Inactive)
REMARK    1  A    between atoms: C_1  and  C_2
REMARK    2  A    between atoms: C_6  and  C_7
REMARK    3  A    between atoms: C_13  and  C_14
REMARK    4  A    between atoms: C_18  and  C_19
REMARK    5  A    between atoms: C_19  and  C_21
REMARK                            x       y       z     vdW  Elec       q    Type
REMARK                         _______ _______ _______ _____ _____    ______ ____
ROOT
ATOM      1  C   UNL     1      -0.926  11.598  22.810  0.00  0.00    +0.000 C 
ATOM      2  CA  UNL     1      -0.272  10.794  21.948  0.00  0.00    +0.000 A 
ATOM      3  N   UNL     1      -0.275  11.024  20.591  0.00  0.00    +0.000 N 
ATOM      4  C   UNL     1       0.323  10.248  19.641  0.00  0.00    +0.000 A 
ATOM      5  O   UNL     1       0.273  10.525  18.448  0.00  0.00    +0.000 OA
ATOM      6  CA  UNL     1       1.026   9.028  20.170  0.00  0.00    +0.000 A 
ATOM      7  C   UNL     1       1.590   8.204  19.269  0.00  0.00    +0.000 C 
ATOM      8  N   UNL     1       1.046   8.797  21.527  0.00  0.00    +0.000 N 
ATOM      9  C   UNL     1       0.463   9.598  22.476  0.00  0.00    +0.000 A 
ATOM     10  O   UNL     1       0.539   9.327  23.671  0.00  0.00    +0.000 OA
ATOM     11  H   UNL     1      -0.791  11.843  20.264  0.00  0.00    +0.000 HD
ATOM     12  H   UNL     1       1.507   7.971  21.886  0.00  0.00    +0.000 HD
ENDROOT
BRANCH   1  18
ATOM     13  C   UNL     1      -3.805  12.542  24.025  0.00  0.00    +0.000 C 
ATOM     14  C   UNL     1      -2.939  13.106  22.968  0.00  0.00    +0.000 A 
ATOM     15  N   UNL     1      -3.281  14.225  22.245  0.00  0.00    +0.000 N 
ATOM     16  C   UNL     1      -2.274  14.477  21.357  0.00  0.00    +0.000 A 
ATOM     17  N   UNL     1      -1.310  13.594  21.463  0.00  0.00    +0.000 NA
ATOM     18  C   UNL     1      -1.716  12.730  22.453  0.00  0.00    +0.000 A 
ATOM     19  H   UNL     1      -4.132  14.764  22.338  0.00  0.00    +0.000 HD
ENDBRANCH   1  18
BRANCH   7  20
ATOM     20  C   UNL     1       2.257   6.945  19.600  0.00  0.00    +0.000 A 
ATOM     21  C   UNL     1       1.641   6.041  20.471  0.00  0.00    +0.000 A 
ATOM     22  C   UNL     1       2.292   4.862  20.833  0.00  0.00    +0.000 A 
ATOM     23  C   UNL     1       3.571   4.592  20.342  0.00  0.00    +0.000 A 
ATOM     24  C   UNL     1       4.200   5.499  19.481  0.00  0.00    +0.000 A 
ATOM     25  C   UNL     1       3.523   6.659  19.083  0.00  0.00    +0.000 A 
BRANCH  24  26
ATOM     26  C   UNL     1       5.573   5.188  18.997  0.00  0.00    +0.000 C 
ATOM     27  O   UNL     1       6.511   5.224  19.786  0.00  0.00    +0.000 OA
BRANCH  26  28
ATOM     28  C   UNL     1       5.835   4.830  17.576  0.00  0.00    +0.000 A 
ATOM     29  C   UNL     1       4.800   4.240  16.836  0.00  0.00    +0.000 A 
ATOM     30  C   UNL     1       4.997   3.924  15.491  0.00  0.00    +0.000 A 
ATOM     31  C   UNL     1       6.224   4.194  14.894  0.00  0.00    +0.000 A 
ATOM     32  F   UNL     1       6.407   3.907  13.600  0.00  0.00    +0.000 F 
ATOM     33  C   UNL     1       7.268   4.752  15.623  0.00  0.00    +0.000 A 
ATOM     34  C   UNL     1       7.081   5.054  16.972  0.00  0.00    +0.000 A 
ENDBRANCH  26  28
ENDBRANCH  24  26
ENDBRANCH   7  20
TORSDOF 4
ENDMDL
MODEL 5
REMARK VINA RESULT:      -8.7      0.788      1.219
REMARK  Name = 
REMARK  5 active torsions:
REMARK  status: ('A' for Active; 'I' for Inactive)
REMARK    1  A    between atoms: C_1  and  C_2
REMARK    2  A    between atoms: C_6  and  C_7
REMARK    3  A    between atoms: C_13  and  C_14
REMARK    4  A    between atoms: C_18  and  C_19
REMARK    5  A    between atoms: C_19  and  C_21
REMARK                            x       y       z     vdW  Elec       q    Type
REMARK                         _______ _______ _______ _____ _____    ______ ____
ROOT
ATOM      1  C   UNL     1       0.997  12.200  19.388  0.00  0.00    +0.000 C 
ATOM      2  CA  UNL     1       1.075  10.940  19.859  0.00  0.00    +0.000 A 
ATOM      3  N   UNL     1       0.958  10.654  21.200  0.00  0.00    +0.000 N 
ATOM      4  C   UNL     1       1.062   9.420  21.772  0.00  0.00    +0.000 A 
ATOM      5  O   UNL     1       0.944   9.250  22.981  0.00  0.00    +0.000 OA
ATOM      6  CA  UNL     1       1.349   8.297  20.813  0.00  0.00    +0.000 A 
ATOM      7  C   UNL     1       1.509   7.068  21.333  0.00  0.00    +0.000 C 
ATOM      8  N   UNL     1       1.454   8.572  19.467  0.00  0.00    +0.000 N 
ATOM      9  C   UNL     1       1.323   9.814  18.899  0.00  0.00    +0.000 A 
ATOM     10  O   UNL     1       1.419   9.971  17.685  0.00  0.00    +0.000 OA
ATOM     11  H   UNL     1       0.798  11.445  21.827  0.00  0.00    +0.000 HD
ATOM     12  H   UNL     1       1.660   7.822  18.820  0.00  0.00    +0.000 HD
ENDROOT
BRANCH   1  18
ATOM     13  C   UNL     1      -0.206  15.105  18.507  0.00  0.00    +0.000 C 
ATOM     14  C   UNL     1       0.332  14.598  19.788  0.00  0.00    +0.000 A 
ATOM     15  N   UNL     1       0.439  15.384  20.912  0.00  0.00    +0.000 N 
ATOM     16  C   UNL     1       0.970  14.619  21.911  0.00  0.00    +0.000 A 
ATOM     17  N   UNL     1       1.211  13.397  21.501  0.00  0.00    +0.000 NA
ATOM     18  C   UNL     1       0.830  13.374  20.180  0.00  0.00    +0.000 A 
ATOM     19  H   UNL     1       0.183  16.359  20.991  0.00  0.00    +0.000 HD
ENDBRANCH   1  18
BRANCH   7  20
ATOM     20  C   UNL     1       1.853   5.877  20.557  0.00  0.00    +0.000 A 
ATOM     21  C   UNL     1       0.860   4.944  20.242  0.00  0.00    +0.000 A 
ATOM     22  C   UNL     1       1.188   3.780  19.545  0.00  0.00    +0.000 A 
ATOM     23  C   UNL     1       2.514   3.535  19.182  0.00  0.00    +0.000 A 
ATOM     24  C   UNL     1       3.515   4.458  19.507  0.00  0.00    +0.000 A 
ATOM     25  C   UNL     1       3.174   5.647  20.164  0.00  0.00    +0.000 A 
BRANCH  24  26
ATOM     26  C   UNL     1       4.920   4.150  19.123  0.00  0.00    +0.000 C 
ATOM     27  O   UNL     1       5.336   3.002  19.232  0.00  0.00    +0.000 OA
BRANCH  26  28
ATOM     28  C   UNL     1       5.834   5.206  18.606  0.00  0.00    +0.000 A 
ATOM     29  C   UNL     1       5.440   5.932  17.473  0.00  0.00    +0.000 A 
ATOM     30  C   UNL     1       6.254   6.954  16.981  0.00  0.00    +0.000 A 
ATOM     31  C   UNL     1       7.457   7.241  17.619  0.00  0.00    +0.000 A 
ATOM     32  F   UNL     1       8.228   8.233  17.158  0.00  0.00    +0.000 F 
ATOM     33  C   UNL     1       7.874   6.511  18.726  0.00  0.00    +0.000 A 
ATOM     34  C   UNL     1       7.071   5.477  19.210  0.00  0.00    +0.000 A 
ENDBRANCH  26  28
ENDBRANCH  24  26
ENDBRANCH   7  20
TORSDOF 4
ENDMDL
MODEL 6
REMARK VINA RESULT:      -8.7      3.035      4.236
REMARK  Name = 
REMARK  5 active torsions:
REMARK  status: ('A' for Active; 'I' for Inactive)
REMARK    1  A    between atoms: C_1  and  C_2
REMARK    2  A    between atoms: C_6  and  C_7
REMARK    3  A    between atoms: C_13  and  C_14
REMARK    4  A    between atoms: C_18  and  C_19
REMARK    5  A    between atoms: C_19  and  C_21
REMARK                            x       y       z     vdW  Elec       q    Type
REMARK                         _______ _______ _______ _____ _____    ______ ____
ROOT
ATOM      1  C   UNL     1      -2.208  13.335  22.110  0.00  0.00    +0.000 C 
ATOM      2  CA  UNL     1      -1.482  12.215  21.924  0.00  0.00    +0.000 A 
ATOM      3  N   UNL     1      -1.119  11.400  22.971  0.00  0.00    +0.000 N 
ATOM      4  C   UNL     1      -0.355  10.272  22.886  0.00  0.00    +0.000 A 
ATOM      5  O   UNL     1      -0.077   9.598  23.872  0.00  0.00    +0.000 OA
ATOM      6  CA  UNL     1       0.127   9.934  21.502  0.00  0.00    +0.000 A 
ATOM      7  C   UNL     1       0.924   8.859  21.372  0.00  0.00    +0.000 C 
ATOM      8  N   UNL     1      -0.242  10.738  20.446  0.00  0.00    +0.000 N 
ATOM      9  C   UNL     1      -1.032  11.856  20.539  0.00  0.00    +0.000 A 
ATOM     10  O   UNL     1      -1.326  12.511  19.543  0.00  0.00    +0.000 OA
ATOM     11  H   UNL     1      -1.435  11.677  23.902  0.00  0.00    +0.000 HD
ATOM     12  H   UNL     1       0.090  10.522  19.515  0.00  0.00    +0.000 HD
ENDROOT
BRANCH   1  18
ATOM     13  C   UNL     1      -5.153  13.066  23.494  0.00  0.00    +0.000 C 
ATOM     14  C   UNL     1      -3.904  13.726  23.933  0.00  0.00    +0.000 A 
ATOM     15  N   UNL     1      -3.809  14.426  25.113  0.00  0.00    +0.000 N 
ATOM     16  C   UNL     1      -2.534  14.907  25.215  0.00  0.00    +0.000 A 
ATOM     17  N   UNL     1      -1.808  14.562  24.179  0.00  0.00    +0.000 NA
ATOM     18  C   UNL     1      -2.651  13.838  23.368  0.00  0.00    +0.000 A 
ATOM     19  H   UNL     1      -4.549  14.575  25.786  0.00  0.00    +0.000 HD
ENDBRANCH   1  18
BRANCH   7  20
ATOM     20  C   UNL     1       1.532   8.424  20.115  0.00  0.00    +0.000 A 
ATOM     21  C   UNL     1       1.392   9.211  18.968  0.00  0.00    +0.000 A 
ATOM     22  C   UNL     1       1.925   8.780  17.753  0.00  0.00    +0.000 A 
ATOM     23  C   UNL     1       2.582   7.550  17.676  0.00  0.00    +0.000 A 
ATOM     24  C   UNL     1       2.713   6.751  18.818  0.00  0.00    +0.000 A 
ATOM     25  C   UNL     1       2.218   7.209  20.046  0.00  0.00    +0.000 A 
BRANCH  24  26
ATOM     26  C   UNL     1       3.399   5.435  18.691  0.00  0.00    +0.000 C 
ATOM     27  O   UNL     1       3.020   4.491  19.377  0.00  0.00    +0.000 OA
BRANCH  26  28
ATOM     28  C   UNL     1       4.533   5.237  17.747  0.00  0.00    +0.000 A 
ATOM     29  C   UNL     1       4.392   4.286  16.726  0.00  0.00    +0.000 A 
ATOM     30  C   UNL     1       5.420   4.099  15.801  0.00  0.00    +0.000 A 
ATOM     31  C   UNL     1       6.582   4.857  15.902  0.00  0.00    +0.000 A 
ATOM     32  F   UNL     1       7.560   4.690  15.004  0.00  0.00    +0.000 F 
ATOM     33  C   UNL     1       6.747   5.783  16.926  0.00  0.00    +0.000 A 
ATOM     34  C   UNL     1       5.729   5.961  17.864  0.00  0.00    +0.000 A 
ENDBRANCH  26  28
ENDBRANCH  24  26
ENDBRANCH   7  20
TORSDOF 4
ENDMDL
MODEL 7
REMARK VINA RESULT:      -8.7      1.840      2.235
REMARK  Name = 
REMARK  5 active torsions:
REMARK  status: ('A' for Active; 'I' for Inactive)
REMARK    1  A    between atoms: C_1  and  C_2
REMARK    2  A    between atoms: C_6  and  C_7
REMARK    3  A    between atoms: C_13  and  C_14
REMARK    4  A    between atoms: C_18  and  C_19
REMARK    5  A    between atoms: C_19  and  C_21
REMARK                            x       y       z     vdW  Elec       q    Type
REMARK                         _______ _______ _______ _____ _____    ______ ____
ROOT
ATOM      1  C   UNL     1       0.839  11.499  18.463  0.00  0.00    +0.000 C 
ATOM      2  CA  UNL     1       0.941  10.294  19.058  0.00  0.00    +0.000 A 
ATOM      3  N   UNL     1       0.385  10.040  20.290  0.00  0.00    +0.000 N 
ATOM      4  C   UNL     1       0.468   8.869  20.986  0.00  0.00    +0.000 A 
ATOM      5  O   UNL     1      -0.058   8.724  22.083  0.00  0.00    +0.000 OA
ATOM      6  CA  UNL     1       1.266   7.786  20.312  0.00  0.00    +0.000 A 
ATOM      7  C   UNL     1       1.419   6.628  20.979  0.00  0.00    +0.000 C 
ATOM      8  N   UNL     1       1.814   8.026  19.071  0.00  0.00    +0.000 N 
ATOM      9  C   UNL     1       1.703   9.200  18.370  0.00  0.00    +0.000 A 
ATOM     10  O   UNL     1       2.213   9.328  17.260  0.00  0.00    +0.000 OA
ATOM     11  H   UNL     1      -0.120  10.808  20.735  0.00  0.00    +0.000 HD
ATOM     12  H   UNL     1       2.362   7.305  18.620  0.00  0.00    +0.000 HD
ENDROOT
BRANCH   1  18
ATOM     13  C   UNL     1      -2.348  12.067  18.887  0.00  0.00    +0.000 C 
ATOM     14  C   UNL     1      -1.146  12.877  19.179  0.00  0.00    +0.000 A 
ATOM     15  N   UNL     1      -1.214  14.146  19.706  0.00  0.00    +0.000 N 
ATOM     16  C   UNL     1       0.062  14.611  19.850  0.00  0.00    +0.000 A 
ATOM     17  N   UNL     1       0.942  13.726  19.450  0.00  0.00    +0.000 NA
ATOM     18  C   UNL     1       0.205  12.648  19.019  0.00  0.00    +0.000 A 
ATOM     19  H   UNL     1      -2.056  14.656  19.938  0.00  0.00    +0.000 HD
ENDBRANCH   1  18
BRANCH   7  20
ATOM     20  C   UNL     1       2.212   5.495  20.502  0.00  0.00    +0.000 A 
ATOM     21  C   UNL     1       1.739   4.193  20.681  0.00  0.00    +0.000 A 
ATOM     22  C   UNL     1       2.511   3.104  20.276  0.00  0.00    +0.000 A 
ATOM     23  C   UNL     1       3.770   3.314  19.710  0.00  0.00    +0.000 A 
ATOM     24  C   UNL     1       4.257   4.616  19.541  0.00  0.00    +0.000 A 
ATOM     25  C   UNL     1       3.458   5.707  19.905  0.00  0.00    +0.000 A 
BRANCH  24  26
ATOM     26  C   UNL     1       5.614   4.799  18.956  0.00  0.00    +0.000 C 
ATOM     27  O   UNL     1       6.561   5.037  19.697  0.00  0.00    +0.000 OA
BRANCH  26  28
ATOM     28  C   UNL     1       5.848   4.695  17.490  0.00  0.00    +0.000 A 
ATOM     29  C   UNL     1       7.162   4.816  17.014  0.00  0.00    +0.000 A 
ATOM     30  C   UNL     1       7.425   4.688  15.649  0.00  0.00    +0.000 A 
ATOM     31  C   UNL     1       6.376   4.445  14.767  0.00  0.00    +0.000 A 
ATOM     32  F   UNL     1       6.631   4.305  13.461  0.00  0.00    +0.000 F 
ATOM     33  C   UNL     1       5.066   4.352  15.221  0.00  0.00    +0.000 A 
ATOM     34  C   UNL     1       4.796   4.497  16.582  0.00  0.00    +0.000 A 
ENDBRANCH  26  28
ENDBRANCH  24  26
ENDBRANCH   7  20
TORSDOF 4
ENDMDL
MODEL 8
REMARK VINA RESULT:      -8.7      1.219      1.565
REMARK  Name = 
REMARK  5 active torsions:
REMARK  status: ('A' for Active; 'I' for Inactive)
REMARK    1  A    between atoms: C_1  and  C_2
REMARK    2  A    between atoms: C_6  and  C_7
REMARK    3  A    between atoms: C_13  and  C_14
REMARK    4  A    between atoms: C_18  and  C_19
REMARK    5  A    between atoms: C_19  and  C_21
REMARK                            x       y       z     vdW  Elec       q    Type
REMARK                         _______ _______ _______ _____ _____    ______ ____
ROOT
ATOM      1  C   UNL     1       1.629  11.710  18.696  0.00  0.00    +0.000 C 
ATOM      2  CA  UNL     1       1.534  10.503  19.288  0.00  0.00    +0.000 A 
ATOM      3  N   UNL     1       1.292  10.369  20.635  0.00  0.00    +0.000 N 
ATOM      4  C   UNL     1       1.217   9.195  21.327  0.00  0.00    +0.000 A 
ATOM      5  O   UNL     1       0.996   9.162  22.533  0.00  0.00    +0.000 OA
ATOM      6  CA  UNL     1       1.443   7.957  20.503  0.00  0.00    +0.000 A 
ATOM      7  C   UNL     1       1.429   6.777  21.147  0.00  0.00    +0.000 C 
ATOM      8  N   UNL     1       1.673   8.081  19.150  0.00  0.00    +0.000 N 
ATOM      9  C   UNL     1       1.721   9.266  18.460  0.00  0.00    +0.000 A 
ATOM     10  O   UNL     1       1.918   9.288  17.248  0.00  0.00    +0.000 OA
ATOM     11  H   UNL     1       1.177  11.231  21.171  0.00  0.00    +0.000 HD
ATOM     12  H   UNL     1       1.838   7.252  18.594  0.00  0.00    +0.000 HD
ENDROOT
BRANCH   1  18
ATOM     13  C   UNL     1       3.670  14.253  18.534  0.00  0.00    +0.000 C 
ATOM     14  C   UNL     1       2.419  14.029  19.290  0.00  0.00    +0.000 A 
ATOM     15  N   UNL     1       1.895  14.961  20.155  0.00  0.00    +0.000 N 
ATOM     16  C   UNL     1       0.747  14.445  20.686  0.00  0.00    +0.000 A 
ATOM     17  N   UNL     1       0.502  13.245  20.219  0.00  0.00    +0.000 NA
ATOM     18  C   UNL     1       1.540  12.969  19.360  0.00  0.00    +0.000 A 
ATOM     19  H   UNL     1       2.290  15.866  20.375  0.00  0.00    +0.000 HD
ENDBRANCH   1  18
BRANCH   7  20
ATOM     20  C   UNL     1       1.691   5.484  20.516  0.00  0.00    +0.000 A 
ATOM     21  C   UNL     1       0.642   4.579  20.325  0.00  0.00    +0.000 A 
ATOM     22  C   UNL     1       0.892   3.324  19.770  0.00  0.00    +0.000 A 
ATOM     23  C   UNL     1       2.195   2.960  19.424  0.00  0.00    +0.000 A 
ATOM     24  C   UNL     1       3.252   3.856  19.625  0.00  0.00    +0.000 A 
ATOM     25  C   UNL     1       2.990   5.132  20.138  0.00  0.00    +0.000 A 
BRANCH  24  26
ATOM     26  C   UNL     1       4.630   3.423  19.266  0.00  0.00    +0.000 C 
ATOM     27  O   UNL     1       5.211   2.612  19.979  0.00  0.00    +0.000 OA
BRANCH  26  28
ATOM     28  C   UNL     1       5.320   3.950  18.057  0.00  0.00    +0.000 A 
ATOM     29  C   UNL     1       4.724   3.742  16.805  0.00  0.00    +0.000 A 
ATOM     30  C   UNL     1       5.324   4.253  15.652  0.00  0.00    +0.000 A 
ATOM     31  C   UNL     1       6.515   4.964  15.755  0.00  0.00    +0.000 A 
ATOM     32  F   UNL     1       7.080   5.469  14.652  0.00  0.00    +0.000 F 
ATOM     33  C   UNL     1       7.132   5.154  16.987  0.00  0.00    +0.000 A 
ATOM     34  C   UNL     1       6.545   4.630  18.139  0.00  0.00    +0.000 A 
ENDBRANCH  26  28
ENDBRANCH  24  26
ENDBRANCH   7  20
TORSDOF 4
ENDMDL
MODEL 9
REMARK VINA RESULT:      -8.6      0.983      1.319
REMARK  Name = 
REMARK  5 active torsions:
REMARK  status: ('A' for Active; 'I' for Inactive)
REMARK    1  A    between atoms: C_1  and  C_2
REMARK    2  A    between atoms: C_6  and  C_7
REMARK    3  A    between atoms: C_13  and  C_14
REMARK    4  A    between atoms: C_18  and  C_19
REMARK    5  A    between atoms: C_19  and  C_21
REMARK                            x       y       z     vdW  Elec       q    Type
REMARK                         _______ _______ _______ _____ _____    ______ ____
ROOT
ATOM      1  C   UNL     1       1.346  11.956  19.050  0.00  0.00    +0.000 C 
ATOM      2  CA  UNL     1       1.328  10.694  19.524  0.00  0.00    +0.000 A 
ATOM      3  N   UNL     1       1.083  10.416  20.849  0.00  0.00    +0.000 N 
ATOM      4  C   UNL     1       1.083   9.180  21.426  0.00  0.00    +0.000 A 
ATOM      5  O   UNL     1       0.854   9.017  22.619  0.00  0.00    +0.000 OA
ATOM      6  CA  UNL     1       1.402   8.044  20.492  0.00  0.00    +0.000 A 
ATOM      7  C   UNL     1       1.463   6.809  21.022  0.00  0.00    +0.000 C 
ATOM      8  N   UNL     1       1.636   8.311  19.161  0.00  0.00    +0.000 N 
ATOM      9  C   UNL     1       1.608   9.557  18.587  0.00  0.00    +0.000 A 
ATOM     10  O   UNL     1       1.816   9.707  17.386  0.00  0.00    +0.000 OA
ATOM     11  H   UNL     1       0.904  11.214  21.461  0.00  0.00    +0.000 HD
ATOM     12  H   UNL     1       1.864   7.552  18.533  0.00  0.00    +0.000 HD
ENDROOT
BRANCH   1  18
ATOM     13  C   UNL     1      -1.443  13.396  19.948  0.00  0.00    +0.000 C 
ATOM     14  C   UNL     1      -0.025  13.739  20.187  0.00  0.00    +0.000 A 
ATOM     15  N   UNL     1       0.362  14.864  20.879  0.00  0.00    +0.000 N 
ATOM     16  C   UNL     1       1.727  14.885  20.918  0.00  0.00    +0.000 A 
ATOM     17  N   UNL     1       2.240  13.850  20.297  0.00  0.00    +0.000 NA
ATOM     18  C   UNL     1       1.162  13.137  19.827  0.00  0.00    +0.000 A 
ATOM     19  H   UNL     1      -0.249  15.563  21.280  0.00  0.00    +0.000 HD
ENDBRANCH   1  18
BRANCH   7  20
ATOM     20  C   UNL     1       1.821   5.603  20.277  0.00  0.00    +0.000 A 
ATOM     21  C   UNL     1       1.087   4.428  20.465  0.00  0.00    +0.000 A 
ATOM     22  C   UNL     1       1.452   3.259  19.796  0.00  0.00    +0.000 A 
ATOM     23  C   UNL     1       2.565   3.256  18.953  0.00  0.00    +0.000 A 
ATOM     24  C   UNL     1       3.313   4.426  18.771  0.00  0.00    +0.000 A 
ATOM     25  C   UNL     1       2.915   5.608  19.407  0.00  0.00    +0.000 A 
BRANCH  24  26
ATOM     26  C   UNL     1       4.507   4.377  17.884  0.00  0.00    +0.000 C 
ATOM     27  O   UNL     1       4.568   3.527  17.002  0.00  0.00    +0.000 OA
BRANCH  26  28
ATOM     28  C   UNL     1       5.631   5.341  18.039  0.00  0.00    +0.000 A 
ATOM     29  C   UNL     1       6.576   5.107  19.049  0.00  0.00    +0.000 A 
ATOM     30  C   UNL     1       7.663   5.969  19.201  0.00  0.00    +0.000 A 
ATOM     31  C   UNL     1       7.798   7.061  18.350  0.00  0.00    +0.000 A 
ATOM     32  F   UNL     1       8.850   7.877  18.485  0.00  0.00    +0.000 F 
ATOM     33  C   UNL     1       6.854   7.322  17.363  0.00  0.00    +0.000 A 
ATOM     34  C   UNL     1       5.756   6.473  17.219  0.00  0.00    +0.000 A 
ENDBRANCH  26  28
ENDBRANCH  24  26
ENDBRANCH   7  20
TORSDOF 4
ENDMDL
