MODEL 1
REMARK VINA RESULT:      -7.4      0.000      0.000
REMARK  Name = 
REMARK  2 active torsions:
REMARK  status: ('A' for Active; 'I' for Inactive)
REMARK    1  A    between atoms: O_1  and  C_2
REMARK    2  A    between atoms: C_10  and  C_11
REMARK                            x       y       z     vdW  Elec       q    Type
REMARK                         _______ _______ _______ _____ _____    ______ ____
ROOT
ATOM      1  C   UNL     1       6.234   5.286  18.459  0.00  0.00    +0.000 A 
ATOM      2  N   UNL     1       7.312   5.265  17.636  0.00  0.00    +0.000 NA
ATOM      3  C   UNL     1       6.914   5.225  16.332  0.00  0.00    +0.000 A 
ATOM      4  N   UNL     1       7.705   5.191  15.262  0.00  0.00    +0.000 NA
ATOM      5  O   UNL     1       6.828   5.147  14.178  0.00  0.00    +0.000 OA
ATOM      6  N   UNL     1       5.491   5.155  14.580  0.00  0.00    +0.000 NA
ATOM      7  C   UNL     1       5.540   5.207  15.911  0.00  0.00    +0.000 A 
ATOM      8  N   UNL     1       4.477   5.234  16.765  0.00  0.00    +0.000 NA
ATOM      9  C   UNL     1       4.865   5.281  18.077  0.00  0.00    +0.000 A 
ENDROOT
BRANCH   9  10
ATOM     10  C   UNL     1       3.735   5.307  19.042  0.00  0.00    +0.000 A 
ATOM     11  C   UNL     1       3.027   6.504  19.282  0.00  0.00    +0.000 A 
ATOM     12  C   UNL     1       1.951   6.557  20.177  0.00  0.00    +0.000 A 
ATOM     13  C   UNL     1       1.556   5.410  20.857  0.00  0.00    +0.000 A 
ATOM     14  C   UNL     1       2.248   4.222  20.650  0.00  0.00    +0.000 A 
ATOM     15 BR   UNL     1       1.721   2.657  21.572  0.00  0.00    +0.000 Br
ATOM     16  C   UNL     1       3.330   4.171  19.765  0.00  0.00    +0.000 A 
ENDBRANCH   9  10
BRANCH   1  17
ATOM     17  O   UNL     1       6.616   5.281  19.767  0.00  0.00    +0.000 OA
ATOM     18  H   UNL     1       6.212   6.106  20.092  0.00  0.00    +0.000 HD
ENDBRANCH   1  17
TORSDOF 2
ENDMDL
MODEL 2
REMARK VINA RESULT:      -7.1      1.355      1.778
REMARK  Name = 
REMARK  2 active torsions:
REMARK  status: ('A' for Active; 'I' for Inactive)
REMARK    1  A    between atoms: O_1  and  C_2
REMARK    2  A    between atoms: C_10  and  C_11
REMARK                            x       y       z     vdW  Elec       q    Type
REMARK                         _______ _______ _______ _____ _____    ______ ____
ROOT
ATOM      1  C   UNL     1       6.182   5.022  18.449  0.00  0.00    +0.000 A 
ATOM      2  N   UNL     1       7.275   4.966  17.649  0.00  0.00    +0.000 NA
ATOM      3  C   UNL     1       6.904   4.822  16.344  0.00  0.00    +0.000 A 
ATOM      4  N   UNL     1       7.716   4.729  15.294  0.00  0.00    +0.000 NA
ATOM      5  O   UNL     1       6.861   4.586  14.201  0.00  0.00    +0.000 OA
ATOM      6  N   UNL     1       5.516   4.591  14.578  0.00  0.00    +0.000 NA
ATOM      7  C   UNL     1       5.539   4.741  15.902  0.00  0.00    +0.000 A 
ATOM      8  N   UNL     1       4.460   4.805  16.733  0.00  0.00    +0.000 NA
ATOM      9  C   UNL     1       4.821   4.956  18.045  0.00  0.00    +0.000 A 
ENDROOT
BRANCH   9  10
ATOM     10  C   UNL     1       3.673   5.025  18.985  0.00  0.00    +0.000 A 
ATOM     11  C   UNL     1       3.092   3.844  19.495  0.00  0.00    +0.000 A 
ATOM     12  C   UNL     1       2.017   3.879  20.391  0.00  0.00    +0.000 A 
ATOM     13  C   UNL     1       1.493   5.100  20.801  0.00  0.00    +0.000 A 
ATOM     14  C   UNL     1       2.036   6.277  20.300  0.00  0.00    +0.000 A 
ATOM     15 BR   UNL     1       1.329   7.944  20.848  0.00  0.00    +0.000 Br
ATOM     16  C   UNL     1       3.103   6.244  19.396  0.00  0.00    +0.000 A 
ENDBRANCH   9  10
BRANCH   1  17
ATOM     17  O   UNL     1       6.539   5.120  19.760  0.00  0.00    +0.000 OA
ATOM     18  H   UNL     1       6.470   6.081  19.910  0.00  0.00    +0.000 HD
ENDBRANCH   1  17
TORSDOF 2
ENDMDL
MODEL 3
REMARK VINA RESULT:      -7.1      4.137      6.225
REMARK  Name = 
REMARK  2 active torsions:
REMARK  status: ('A' for Active; 'I' for Inactive)
REMARK    1  A    between atoms: O_1  and  C_2
REMARK    2  A    between atoms: C_10  and  C_11
REMARK                            x       y       z     vdW  Elec       q    Type
REMARK                         _______ _______ _______ _____ _____    ______ ____
ROOT
ATOM      1  C   UNL     1       1.644   3.974  18.327  0.00  0.00    +0.000 A 
ATOM      2  N   UNL     1       0.780   3.378  19.184  0.00  0.00    +0.000 NA
ATOM      3  C   UNL     1       1.423   3.010  20.329  0.00  0.00    +0.000 A 
ATOM      4  N   UNL     1       0.883   2.397  21.380  0.00  0.00    +0.000 NA
ATOM      5  O   UNL     1       1.942   2.234  22.274  0.00  0.00    +0.000 OA
ATOM      6  N   UNL     1       3.140   2.748  21.773  0.00  0.00    +0.000 NA
ATOM      7  C   UNL     1       2.822   3.232  20.573  0.00  0.00    +0.000 A 
ATOM      8  N   UNL     1       3.665   3.841  19.691  0.00  0.00    +0.000 NA
ATOM      9  C   UNL     1       3.029   4.220  18.539  0.00  0.00    +0.000 A 
ENDROOT
BRANCH   9  10
ATOM     10  C   UNL     1       3.914   4.884  17.548  0.00  0.00    +0.000 A 
ATOM     11  C   UNL     1       4.182   6.266  17.640  0.00  0.00    +0.000 A 
ATOM     12  C   UNL     1       5.021   6.917  16.728  0.00  0.00    +0.000 A 
ATOM     13  C   UNL     1       5.616   6.198  15.696  0.00  0.00    +0.000 A 
ATOM     14  C   UNL     1       5.355   4.839  15.573  0.00  0.00    +0.000 A 
ATOM     15 BR   UNL     1       6.154   3.852  14.171  0.00  0.00    +0.000 Br
ATOM     16  C   UNL     1       4.507   4.190  16.477  0.00  0.00    +0.000 A 
ENDBRANCH   9  10
BRANCH   1  17
ATOM     17  O   UNL     1       1.026   4.307  17.159  0.00  0.00    +0.000 OA
ATOM     18  H   UNL     1       1.702   4.057  16.502  0.00  0.00    +0.000 HD
ENDBRANCH   1  17
TORSDOF 2
ENDMDL
MODEL 4
REMARK VINA RESULT:      -7.0      3.607      6.157
REMARK  Name = 
REMARK  2 active torsions:
REMARK  status: ('A' for Active; 'I' for Inactive)
REMARK    1  A    between atoms: O_1  and  C_2
REMARK    2  A    between atoms: C_10  and  C_11
REMARK                            x       y       z     vdW  Elec       q    Type
REMARK                         _______ _______ _______ _____ _____    ______ ____
ROOT
ATOM      1  C   UNL     1       6.880   4.498  17.184  0.00  0.00    +0.000 A 
ATOM      2  N   UNL     1       6.563   4.633  18.495  0.00  0.00    +0.000 NA
ATOM      3  C   UNL     1       5.301   5.132  18.631  0.00  0.00    +0.000 A 
ATOM      4  N   UNL     1       4.671   5.393  19.774  0.00  0.00    +0.000 NA
ATOM      5  O   UNL     1       3.427   5.891  19.383  0.00  0.00    +0.000 OA
ATOM      6  N   UNL     1       3.289   5.935  17.994  0.00  0.00    +0.000 NA
ATOM      7  C   UNL     1       4.444   5.463  17.526  0.00  0.00    +0.000 A 
ATOM      8  N   UNL     1       4.791   5.311  16.216  0.00  0.00    +0.000 NA
ATOM      9  C   UNL     1       6.055   4.805  16.067  0.00  0.00    +0.000 A 
ENDROOT
BRANCH   9  10
ATOM     10  C   UNL     1       6.474   4.628  14.653  0.00  0.00    +0.000 A 
ATOM     11  C   UNL     1       7.465   5.461  14.091  0.00  0.00    +0.000 A 
ATOM     12  C   UNL     1       7.888   5.311  12.765  0.00  0.00    +0.000 A 
ATOM     13  C   UNL     1       7.328   4.321  11.964  0.00  0.00    +0.000 A 
ATOM     14  C   UNL     1       6.338   3.499  12.489  0.00  0.00    +0.000 A 
ATOM     15 BR   UNL     1       5.567   2.151  11.409  0.00  0.00    +0.000 Br
ATOM     16  C   UNL     1       5.906   3.655  13.810  0.00  0.00    +0.000 A 
ENDBRANCH   9  10
BRANCH   1  17
ATOM     17  O   UNL     1       8.155   4.043  17.031  0.00  0.00    +0.000 OA
ATOM     18  H   UNL     1       8.406   3.854  17.954  0.00  0.00    +0.000 HD
ENDBRANCH   1  17
TORSDOF 2
ENDMDL
MODEL 5
REMARK VINA RESULT:      -7.0      4.021      6.316
REMARK  Name = 
REMARK  2 active torsions:
REMARK  status: ('A' for Active; 'I' for Inactive)
REMARK    1  A    between atoms: O_1  and  C_2
REMARK    2  A    between atoms: C_10  and  C_11
REMARK                            x       y       z     vdW  Elec       q    Type
REMARK                         _______ _______ _______ _____ _____    ______ ____
ROOT
ATOM      1  C   UNL     1       2.106   3.886  18.233  0.00  0.00    +0.000 A 
ATOM      2  N   UNL     1       1.082   3.482  19.025  0.00  0.00    +0.000 NA
ATOM      3  C   UNL     1       1.554   3.057  20.232  0.00  0.00    +0.000 A 
ATOM      4  N   UNL     1       0.830   2.590  21.247  0.00  0.00    +0.000 NA
ATOM      5  O   UNL     1       1.766   2.284  22.235  0.00  0.00    +0.000 OA
ATOM      6  N   UNL     1       3.073   2.565  21.830  0.00  0.00    +0.000 NA
ATOM      7  C   UNL     1       2.945   3.046  20.593  0.00  0.00    +0.000 A 
ATOM      8  N   UNL     1       3.952   3.465  19.774  0.00  0.00    +0.000 NA
ATOM      9  C   UNL     1       3.489   3.899  18.561  0.00  0.00    +0.000 A 
ENDROOT
BRANCH   9  10
ATOM     10  C   UNL     1       4.556   4.360  17.636  0.00  0.00    +0.000 A 
ATOM     11  C   UNL     1       4.778   3.695  16.411  0.00  0.00    +0.000 A 
ATOM     12  C   UNL     1       5.768   4.113  15.514  0.00  0.00    +0.000 A 
ATOM     13  C   UNL     1       6.565   5.211  15.821  0.00  0.00    +0.000 A 
ATOM     14  C   UNL     1       6.377   5.873  17.029  0.00  0.00    +0.000 A 
ATOM     15 BR   UNL     1       7.458   7.365  17.458  0.00  0.00    +0.000 Br
ATOM     16  C   UNL     1       5.396   5.449  17.931  0.00  0.00    +0.000 A 
ENDBRANCH   9  10
BRANCH   1  17
ATOM     17  O   UNL     1       1.654   4.270  17.006  0.00  0.00    +0.000 OA
ATOM     18  H   UNL     1       1.456   3.410  16.593  0.00  0.00    +0.000 HD
ENDBRANCH   1  17
TORSDOF 2
ENDMDL
MODEL 6
REMARK VINA RESULT:      -6.9      3.866      6.177
REMARK  Name = 
REMARK  2 active torsions:
REMARK  status: ('A' for Active; 'I' for Inactive)
REMARK    1  A    between atoms: O_1  and  C_2
REMARK    2  A    between atoms: C_10  and  C_11
REMARK                            x       y       z     vdW  Elec       q    Type
REMARK                         _______ _______ _______ _____ _____    ______ ____
ROOT
ATOM      1  C   UNL     1       2.549   4.707  18.660  0.00  0.00    +0.000 A 
ATOM      2  N   UNL     1       1.499   4.406  19.462  0.00  0.00    +0.000 NA
ATOM      3  C   UNL     1       1.875   3.519  20.427  0.00  0.00    +0.000 A 
ATOM      4  N   UNL     1       1.099   3.005  21.379  0.00  0.00    +0.000 NA
ATOM      5  O   UNL     1       1.941   2.154  22.096  0.00  0.00    +0.000 OA
ATOM      6  N   UNL     1       3.241   2.143  21.586  0.00  0.00    +0.000 NA
ATOM      7  C   UNL     1       3.205   2.989  20.556  0.00  0.00    +0.000 A 
ATOM      8  N   UNL     1       4.243   3.316  19.735  0.00  0.00    +0.000 NA
ATOM      9  C   UNL     1       3.877   4.211  18.765  0.00  0.00    +0.000 A 
ENDROOT
BRANCH   9  10
ATOM     10  C   UNL     1       4.980   4.591  17.845  0.00  0.00    +0.000 A 
ATOM     11  C   UNL     1       6.037   5.411  18.294  0.00  0.00    +0.000 A 
ATOM     12  C   UNL     1       7.095   5.776  17.453  0.00  0.00    +0.000 A 
ATOM     13  C   UNL     1       7.123   5.329  16.136  0.00  0.00    +0.000 A 
ATOM     14  C   UNL     1       6.084   4.534  15.665  0.00  0.00    +0.000 A 
ATOM     15 BR   UNL     1       6.109   3.924  13.874  0.00  0.00    +0.000 Br
ATOM     16  C   UNL     1       5.021   4.178  16.500  0.00  0.00    +0.000 A 
ENDBRANCH   9  10
BRANCH   1  17
ATOM     17  O   UNL     1       2.177   5.558  17.663  0.00  0.00    +0.000 OA
ATOM     18  H   UNL     1       1.860   6.327  18.171  0.00  0.00    +0.000 HD
ENDBRANCH   1  17
TORSDOF 2
ENDMDL
MODEL 7
REMARK VINA RESULT:      -6.9      3.859      5.811
REMARK  Name = 
REMARK  2 active torsions:
REMARK  status: ('A' for Active; 'I' for Inactive)
REMARK    1  A    between atoms: O_1  and  C_2
REMARK    2  A    between atoms: C_10  and  C_11
REMARK                            x       y       z     vdW  Elec       q    Type
REMARK                         _______ _______ _______ _____ _____    ______ ____
ROOT
ATOM      1  C   UNL     1       4.578   3.337  19.458  0.00  0.00    +0.000 A 
ATOM      2  N   UNL     1       4.152   2.661  20.554  0.00  0.00    +0.000 NA
ATOM      3  C   UNL     1       2.816   2.859  20.746  0.00  0.00    +0.000 A 
ATOM      4  N   UNL     1       2.072   2.351  21.725  0.00  0.00    +0.000 NA
ATOM      5  O   UNL     1       0.791   2.853  21.490  0.00  0.00    +0.000 OA
ATOM      6  N   UNL     1       0.745   3.673  20.360  0.00  0.00    +0.000 NA
ATOM      7  C   UNL     1       1.994   3.676  19.895  0.00  0.00    +0.000 A 
ATOM      8  N   UNL     1       2.453   4.340  18.796  0.00  0.00    +0.000 NA
ATOM      9  C   UNL     1       3.792   4.143  18.590  0.00  0.00    +0.000 A 
ENDROOT
BRANCH   9  10
ATOM     10  C   UNL     1       4.333   4.855  17.403  0.00  0.00    +0.000 A 
ATOM     11  C   UNL     1       4.322   6.265  17.347  0.00  0.00    +0.000 A 
ATOM     12  C   UNL     1       4.834   6.963  16.247  0.00  0.00    +0.000 A 
ATOM     13  C   UNL     1       5.374   6.265  15.171  0.00  0.00    +0.000 A 
ATOM     14  C   UNL     1       5.382   4.876  15.195  0.00  0.00    +0.000 A 
ATOM     15 BR   UNL     1       6.110   3.917  13.736  0.00  0.00    +0.000 Br
ATOM     16  C   UNL     1       4.859   4.177  16.288  0.00  0.00    +0.000 A 
ENDBRANCH   9  10
BRANCH   1  17
ATOM     17  O   UNL     1       5.920   3.185  19.280  0.00  0.00    +0.000 OA
ATOM     18  H   UNL     1       6.065   3.684  18.454  0.00  0.00    +0.000 HD
ENDBRANCH   1  17
TORSDOF 2
ENDMDL
MODEL 8
REMARK VINA RESULT:      -6.8      1.677      2.280
REMARK  Name = 
REMARK  2 active torsions:
REMARK  status: ('A' for Active; 'I' for Inactive)
REMARK    1  A    between atoms: O_1  and  C_2
REMARK    2  A    between atoms: C_10  and  C_11
REMARK                            x       y       z     vdW  Elec       q    Type
REMARK                         _______ _______ _______ _____ _____    ______ ____
ROOT
ATOM      1  C   UNL     1       6.325   5.028  17.273  0.00  0.00    +0.000 A 
ATOM      2  N   UNL     1       7.320   5.505  16.485  0.00  0.00    +0.000 NA
ATOM      3  C   UNL     1       7.137   5.106  15.194  0.00  0.00    +0.000 A 
ATOM      4  N   UNL     1       7.924   5.388  14.158  0.00  0.00    +0.000 NA
ATOM      5  O   UNL     1       7.319   4.750  13.074  0.00  0.00    +0.000 OA
ATOM      6  N   UNL     1       6.154   4.073  13.443  0.00  0.00    +0.000 NA
ATOM      7  C   UNL     1       6.037   4.294  14.752  0.00  0.00    +0.000 A 
ATOM      8  N   UNL     1       5.047   3.834  15.570  0.00  0.00    +0.000 NA
ATOM      9  C   UNL     1       5.218   4.234  16.868  0.00  0.00    +0.000 A 
ENDROOT
BRANCH   9  10
ATOM     10  C   UNL     1       4.162   3.749  17.795  0.00  0.00    +0.000 A 
ATOM     11  C   UNL     1       3.798   2.386  17.815  0.00  0.00    +0.000 A 
ATOM     12  C   UNL     1       2.815   1.898  18.684  0.00  0.00    +0.000 A 
ATOM     13  C   UNL     1       2.169   2.766  19.559  0.00  0.00    +0.000 A 
ATOM     14  C   UNL     1       2.498   4.116  19.547  0.00  0.00    +0.000 A 
ATOM     15 BR   UNL     1       1.622   5.305  20.729  0.00  0.00    +0.000 Br
ATOM     16  C   UNL     1       3.471   4.606  18.671  0.00  0.00    +0.000 A 
ENDBRANCH   9  10
BRANCH   1  17
ATOM     17  O   UNL     1       6.519   5.381  18.575  0.00  0.00    +0.000 OA
ATOM     18  H   UNL     1       6.673   4.513  18.991  0.00  0.00    +0.000 HD
ENDBRANCH   1  17
TORSDOF 2
ENDMDL
MODEL 9
REMARK VINA RESULT:      -6.7      1.650      2.089
REMARK  Name = 
REMARK  2 active torsions:
REMARK  status: ('A' for Active; 'I' for Inactive)
REMARK    1  A    between atoms: O_1  and  C_2
REMARK    2  A    between atoms: C_10  and  C_11
REMARK                            x       y       z     vdW  Elec       q    Type
REMARK                         _______ _______ _______ _____ _____    ______ ____
ROOT
ATOM      1  C   UNL     1       6.502   5.743  17.177  0.00  0.00    +0.000 A 
ATOM      2  N   UNL     1       7.411   5.899  16.183  0.00  0.00    +0.000 NA
ATOM      3  C   UNL     1       7.011   5.232  15.063  0.00  0.00    +0.000 A 
ATOM      4  N   UNL     1       7.662   5.167  13.903  0.00  0.00    +0.000 NA
ATOM      5  O   UNL     1       6.856   4.367  13.092  0.00  0.00    +0.000 OA
ATOM      6  N   UNL     1       5.703   3.938  13.753  0.00  0.00    +0.000 NA
ATOM      7  C   UNL     1       5.793   4.474  14.970  0.00  0.00    +0.000 A 
ATOM      8  N   UNL     1       4.896   4.340  15.988  0.00  0.00    +0.000 NA
ATOM      9  C   UNL     1       5.285   5.011  17.116  0.00  0.00    +0.000 A 
ENDROOT
BRANCH   9  10
ATOM     10  C   UNL     1       4.335   4.887  18.252  0.00  0.00    +0.000 A 
ATOM     11  C   UNL     1       4.144   3.644  18.893  0.00  0.00    +0.000 A 
ATOM     12  C   UNL     1       3.265   3.498  19.972  0.00  0.00    +0.000 A 
ATOM     13  C   UNL     1       2.551   4.597  20.440  0.00  0.00    +0.000 A 
ATOM     14  C   UNL     1       2.708   5.828  19.815  0.00  0.00    +0.000 A 
ATOM     15 BR   UNL     1       1.739   7.328  20.440  0.00  0.00    +0.000 Br
ATOM     16  C   UNL     1       3.577   5.972  18.729  0.00  0.00    +0.000 A 
ENDBRANCH   9  10
BRANCH   1  17
ATOM     17  O   UNL     1       6.910   6.366  18.317  0.00  0.00    +0.000 OA
ATOM     18  H   UNL     1       6.802   5.657  18.977  0.00  0.00    +0.000 HD
ENDBRANCH   1  17
TORSDOF 2
ENDMDL
