MODEL 1
REMARK VINA RESULT:      -8.8      0.000      0.000
REMARK  Name = 
REMARK  10 active torsions:
REMARK  status: ('A' for Active; 'I' for Inactive)
REMARK    1  A    between atoms: C_1  and  O_2
REMARK    2  A    between atoms: O_2  and  C_3
REMARK    3  A    between atoms: C_6  and  N_7
REMARK    4  A    between atoms: N_17  and  C_18
REMARK    5  A    between atoms: C_18  and  C_19
REMARK    6  A    between atoms: C_19  and  C_20
REMARK    7  A    between atoms: C_20  and  C_21
REMARK    8  A    between atoms: N_29  and  C_30
REMARK    9  A    between atoms: C_31  and  O_32
REMARK   10  A    between atoms: O_32  and  C_33
REMARK                            x       y       z     vdW  Elec       q    Type
REMARK                         _______ _______ _______ _____ _____    ______ ____
ROOT
ATOM      1  N   UNL     1       1.235   9.182  19.917  0.00  0.00    +0.000 N 
ATOM      2  C   UNL     1       1.919   9.869  18.795  0.00  0.00    +0.000 C 
ATOM      3  C   UNL     1       2.401   8.752  17.868  0.00  0.00    +0.000 C 
ATOM      4  N   UNL     1       2.275   7.618  18.743  0.00  0.00    +0.000 N 
ATOM      5  C   UNL     1       1.593   7.871  19.900  0.00  0.00    +0.000 A 
ATOM      6  N   UNL     1       1.574   6.788  20.651  0.00  0.00    +0.000 NA
ATOM      7  C   UNL     1       2.275   5.848  19.910  0.00  0.00    +0.000 A 
ATOM      8  C   UNL     1       2.692   6.345  18.715  0.00  0.00    +0.000 A 
ATOM      9  C   UNL     1       3.418   5.625  17.741  0.00  0.00    +0.000 A 
ATOM     10  O   UNL     1       3.772   6.133  16.679  0.00  0.00    +0.000 OA
ATOM     11  N   UNL     1       3.687   4.312  18.127  0.00  0.00    +0.000 N 
ATOM     12  C   UNL     1       3.360   3.762  19.388  0.00  0.00    +0.000 A 
ATOM     13  O   UNL     1       3.744   2.631  19.703  0.00  0.00    +0.000 OA
ATOM     14  N   UNL     1       2.597   4.552  20.264  0.00  0.00    +0.000 N 
ATOM     15  C   UNL     1       2.211   4.028  21.562  0.00  0.00    +0.000 C 
ENDROOT
BRANCH   1  19
ATOM     16  C   UNL     1      -1.326  11.394  22.517  0.00  0.00    +0.000 A 
ATOM     17  C   UNL     1      -0.552  10.342  22.981  0.00  0.00    +0.000 A 
ATOM     18  C   UNL     1       0.256   9.621  22.099  0.00  0.00    +0.000 A 
ATOM     19  C   UNL     1       0.341   9.920  20.718  0.00  0.00    +0.000 A 
ATOM     20  C   UNL     1      -0.451  10.999  20.260  0.00  0.00    +0.000 A 
ATOM     21  C   UNL     1      -1.277  11.715  21.161  0.00  0.00    +0.000 A 
BRANCH  16  23
ATOM     22  C   UNL     1      -3.394  12.389  23.147  0.00  0.00    +0.000 C 
ATOM     23  O   UNL     1      -2.060  12.030  23.479  0.00  0.00    +0.000 OA
ENDBRANCH  16  23
BRANCH  20  24
ATOM     24  O   UNL     1      -0.309  11.369  18.944  0.00  0.00    +0.000 OA
ATOM     25  C   UNL     1      -1.487  11.669  18.208  0.00  0.00    +0.000 C 
ENDBRANCH  20  24
ENDBRANCH   1  19
BRANCH  11  26
ATOM     26  C   UNL     1       4.454   3.484  17.188  0.00  0.00    +0.000 C 
BRANCH  26  27
ATOM     27  C   UNL     1       5.035   4.294  16.024  0.00  0.00    +0.000 C 
BRANCH  27  28
ATOM     28  C   UNL     1       6.564   4.194  15.942  0.00  0.00    +0.000 C 
BRANCH  28  29
ATOM     29  C   UNL     1       7.187   5.178  16.904  0.00  0.00    +0.000 A 
ATOM     30  C   UNL     1       7.658   4.753  18.152  0.00  0.00    +0.000 A 
ATOM     31  C   UNL     1       8.090   5.683  19.099  0.00  0.00    +0.000 A 
ATOM     32  C   UNL     1       8.061   7.045  18.803  0.00  0.00    +0.000 A 
ATOM     33  C   UNL     1       7.625   7.477  17.552  0.00  0.00    +0.000 A 
ATOM     34  C   UNL     1       7.192   6.548  16.606  0.00  0.00    +0.000 A 
ENDBRANCH  28  29
ENDBRANCH  27  28
ENDBRANCH  26  27
ENDBRANCH  11  26
TORSDOF 7
ENDMDL
MODEL 2
REMARK VINA RESULT:      -8.6      2.447      9.807
REMARK  Name = 
REMARK  10 active torsions:
REMARK  status: ('A' for Active; 'I' for Inactive)
REMARK    1  A    between atoms: C_1  and  O_2
REMARK    2  A    between atoms: O_2  and  C_3
REMARK    3  A    between atoms: C_6  and  N_7
REMARK    4  A    between atoms: N_17  and  C_18
REMARK    5  A    between atoms: C_18  and  C_19
REMARK    6  A    between atoms: C_19  and  C_20
REMARK    7  A    between atoms: C_20  and  C_21
REMARK    8  A    between atoms: N_29  and  C_30
REMARK    9  A    between atoms: C_31  and  O_32
REMARK   10  A    between atoms: O_32  and  C_33
REMARK                            x       y       z     vdW  Elec       q    Type
REMARK                         _______ _______ _______ _____ _____    ______ ____
ROOT
ATOM      1  N   UNL     1       2.141   8.004  18.761  0.00  0.00    +0.000 N 
ATOM      2  C   UNL     1       1.633   8.550  17.479  0.00  0.00    +0.000 C 
ATOM      3  C   UNL     1       1.018   9.905  17.830  0.00  0.00    +0.000 C 
ATOM      4  N   UNL     1       0.913   9.779  19.259  0.00  0.00    +0.000 N 
ATOM      5  C   UNL     1       1.571   8.701  19.779  0.00  0.00    +0.000 A 
ATOM      6  N   UNL     1       1.376   8.646  21.081  0.00  0.00    +0.000 NA
ATOM      7  C   UNL     1       0.564   9.740  21.349  0.00  0.00    +0.000 A 
ATOM      8  C   UNL     1       0.293  10.462  20.230  0.00  0.00    +0.000 A 
ATOM      9  C   UNL     1      -0.495  11.633  20.187  0.00  0.00    +0.000 A 
ATOM     10  O   UNL     1      -0.710  12.240  19.140  0.00  0.00    +0.000 OA
ATOM     11  N   UNL     1      -0.996  11.996  21.437  0.00  0.00    +0.000 N 
ATOM     12  C   UNL     1      -0.825  11.241  22.621  0.00  0.00    +0.000 A 
ATOM     13  O   UNL     1      -1.404  11.561  23.663  0.00  0.00    +0.000 OA
ATOM     14  N   UNL     1       0.017  10.117  22.560  0.00  0.00    +0.000 N 
ATOM     15  C   UNL     1       0.248   9.320  23.752  0.00  0.00    +0.000 C 
ENDROOT
BRANCH   1  19
ATOM     16  C   UNL     1       5.222   5.055  18.619  0.00  0.00    +0.000 A 
ATOM     17  C   UNL     1       5.297   6.222  17.875  0.00  0.00    +0.000 A 
ATOM     18  C   UNL     1       4.259   7.155  17.924  0.00  0.00    +0.000 A 
ATOM     19  C   UNL     1       3.105   6.977  18.724  0.00  0.00    +0.000 A 
ATOM     20  C   UNL     1       3.044   5.783  19.480  0.00  0.00    +0.000 A 
ATOM     21  C   UNL     1       4.096   4.837  19.413  0.00  0.00    +0.000 A 
BRANCH  16  23
ATOM     22  C   UNL     1       7.308   4.607  17.565  0.00  0.00    +0.000 C 
ATOM     23  O   UNL     1       6.305   4.231  18.499  0.00  0.00    +0.000 OA
ENDBRANCH  16  23
BRANCH  20  24
ATOM     24  O   UNL     1       1.979   5.636  20.336  0.00  0.00    +0.000 OA
ATOM     25  C   UNL     1       1.905   4.441  21.103  0.00  0.00    +0.000 C 
ENDBRANCH  20  24
ENDBRANCH   1  19
BRANCH  11  26
ATOM     26  C   UNL     1      -1.844  13.192  21.495  0.00  0.00    +0.000 C 
BRANCH  26  27
ATOM     27  C   UNL     1      -3.338  12.856  21.562  0.00  0.00    +0.000 C 
BRANCH  27  28
ATOM     28  C   UNL     1      -4.126  13.435  20.380  0.00  0.00    +0.000 C 
BRANCH  28  29
ATOM     29  C   UNL     1      -5.027  12.369  19.803  0.00  0.00    +0.000 A 
ATOM     30  C   UNL     1      -4.844  11.916  18.491  0.00  0.00    +0.000 A 
ATOM     31  C   UNL     1      -5.768  11.047  17.908  0.00  0.00    +0.000 A 
ATOM     32  C   UNL     1      -6.879  10.621  18.634  0.00  0.00    +0.000 A 
ATOM     33  C   UNL     1      -7.054  11.040  19.950  0.00  0.00    +0.000 A 
ATOM     34  C   UNL     1      -6.131  11.909  20.534  0.00  0.00    +0.000 A 
ENDBRANCH  28  29
ENDBRANCH  27  28
ENDBRANCH  26  27
ENDBRANCH  11  26
TORSDOF 7
ENDMDL
MODEL 3
REMARK VINA RESULT:      -8.6      2.222     10.300
REMARK  Name = 
REMARK  10 active torsions:
REMARK  status: ('A' for Active; 'I' for Inactive)
REMARK    1  A    between atoms: C_1  and  O_2
REMARK    2  A    between atoms: O_2  and  C_3
REMARK    3  A    between atoms: C_6  and  N_7
REMARK    4  A    between atoms: N_17  and  C_18
REMARK    5  A    between atoms: C_18  and  C_19
REMARK    6  A    between atoms: C_19  and  C_20
REMARK    7  A    between atoms: C_20  and  C_21
REMARK    8  A    between atoms: N_29  and  C_30
REMARK    9  A    between atoms: C_31  and  O_32
REMARK   10  A    between atoms: O_32  and  C_33
REMARK                            x       y       z     vdW  Elec       q    Type
REMARK                         _______ _______ _______ _____ _____    ______ ____
ROOT
ATOM      1  N   UNL     1       2.158   7.872  18.747  0.00  0.00    +0.000 N 
ATOM      2  C   UNL     1       1.628   8.357  17.449  0.00  0.00    +0.000 C 
ATOM      3  C   UNL     1       0.979   9.708  17.752  0.00  0.00    +0.000 C 
ATOM      4  N   UNL     1       0.888   9.633  19.186  0.00  0.00    +0.000 N 
ATOM      5  C   UNL     1       1.577   8.593  19.742  0.00  0.00    +0.000 A 
ATOM      6  N   UNL     1       1.392   8.583  21.047  0.00  0.00    +0.000 NA
ATOM      7  C   UNL     1       0.554   9.664  21.279  0.00  0.00    +0.000 A 
ATOM      8  C   UNL     1       0.256  10.336  20.135  0.00  0.00    +0.000 A 
ATOM      9  C   UNL     1      -0.563  11.484  20.054  0.00  0.00    +0.000 A 
ATOM     10  O   UNL     1      -0.800  12.045  18.987  0.00  0.00    +0.000 OA
ATOM     11  N   UNL     1      -1.065  11.880  21.293  0.00  0.00    +0.000 N 
ATOM     12  C   UNL     1      -0.865  11.176  22.504  0.00  0.00    +0.000 A 
ATOM     13  O   UNL     1      -1.446  11.520  23.537  0.00  0.00    +0.000 OA
ATOM     14  N   UNL     1       0.005  10.073  22.479  0.00  0.00    +0.000 N 
ATOM     15  C   UNL     1       0.265   9.329  23.698  0.00  0.00    +0.000 C 
ENDROOT
BRANCH   1  19
ATOM     16  C   UNL     1       5.314   5.001  18.688  0.00  0.00    +0.000 A 
ATOM     17  C   UNL     1       5.343   6.129  17.883  0.00  0.00    +0.000 A 
ATOM     18  C   UNL     1       4.281   7.037  17.907  0.00  0.00    +0.000 A 
ATOM     19  C   UNL     1       3.149   6.871  18.741  0.00  0.00    +0.000 A 
ATOM     20  C   UNL     1       3.136   5.717  19.558  0.00  0.00    +0.000 A 
ATOM     21  C   UNL     1       4.212   4.797  19.517  0.00  0.00    +0.000 A 
BRANCH  16  23
ATOM     22  C   UNL     1       7.483   4.663  17.768  0.00  0.00    +0.000 C 
ATOM     23  O   UNL     1       6.417   4.200  18.586  0.00  0.00    +0.000 OA
ENDBRANCH  16  23
BRANCH  20  24
ATOM     24  O   UNL     1       2.095   5.587  20.445  0.00  0.00    +0.000 OA
ATOM     25  C   UNL     1       1.851   4.301  20.999  0.00  0.00    +0.000 C 
ENDBRANCH  20  24
ENDBRANCH   1  19
BRANCH  11  26
ATOM     26  C   UNL     1      -1.943  13.056  21.313  0.00  0.00    +0.000 C 
BRANCH  26  27
ATOM     27  C   UNL     1      -3.416  12.698  21.084  0.00  0.00    +0.000 C 
BRANCH  27  28
ATOM     28  C   UNL     1      -4.366  13.844  21.454  0.00  0.00    +0.000 C 
BRANCH  28  29
ATOM     29  C   UNL     1      -5.646  13.276  22.022  0.00  0.00    +0.000 A 
ATOM     30  C   UNL     1      -5.871  13.270  23.404  0.00  0.00    +0.000 A 
ATOM     31  C   UNL     1      -6.979  12.609  23.936  0.00  0.00    +0.000 A 
ATOM     32  C   UNL     1      -7.874  11.954  23.091  0.00  0.00    +0.000 A 
ATOM     33  C   UNL     1      -7.677  11.982  21.713  0.00  0.00    +0.000 A 
ATOM     34  C   UNL     1      -6.570  12.642  21.179  0.00  0.00    +0.000 A 
ENDBRANCH  28  29
ENDBRANCH  27  28
ENDBRANCH  26  27
ENDBRANCH  11  26
TORSDOF 7
ENDMDL
MODEL 4
REMARK VINA RESULT:      -8.6      2.019      9.397
REMARK  Name = 
REMARK  10 active torsions:
REMARK  status: ('A' for Active; 'I' for Inactive)
REMARK    1  A    between atoms: C_1  and  O_2
REMARK    2  A    between atoms: O_2  and  C_3
REMARK    3  A    between atoms: C_6  and  N_7
REMARK    4  A    between atoms: N_17  and  C_18
REMARK    5  A    between atoms: C_18  and  C_19
REMARK    6  A    between atoms: C_19  and  C_20
REMARK    7  A    between atoms: C_20  and  C_21
REMARK    8  A    between atoms: N_29  and  C_30
REMARK    9  A    between atoms: C_31  and  O_32
REMARK   10  A    between atoms: O_32  and  C_33
REMARK                            x       y       z     vdW  Elec       q    Type
REMARK                         _______ _______ _______ _____ _____    ______ ____
ROOT
ATOM      1  N   UNL     1       2.136   7.509  18.933  0.00  0.00    +0.000 N 
ATOM      2  C   UNL     1       2.001   8.127  17.591  0.00  0.00    +0.000 C 
ATOM      3  C   UNL     1       1.730   9.610  17.852  0.00  0.00    +0.000 C 
ATOM      4  N   UNL     1       1.375   9.566  19.246  0.00  0.00    +0.000 N 
ATOM      5  C   UNL     1       1.627   8.368  19.854  0.00  0.00    +0.000 A 
ATOM      6  N   UNL     1       1.226   8.413  21.108  0.00  0.00    +0.000 NA
ATOM      7  C   UNL     1       0.711   9.694  21.254  0.00  0.00    +0.000 A 
ATOM      8  C   UNL     1       0.822  10.423  20.112  0.00  0.00    +0.000 A 
ATOM      9  C   UNL     1       0.398  11.762  19.956  0.00  0.00    +0.000 A 
ATOM     10  O   UNL     1       0.521  12.367  18.894  0.00  0.00    +0.000 OA
ATOM     11  N   UNL     1      -0.172  12.289  21.114  0.00  0.00    +0.000 N 
ATOM     12  C   UNL     1      -0.397  11.557  22.304  0.00  0.00    +0.000 A 
ATOM     13  O   UNL     1      -1.022  12.056  23.244  0.00  0.00    +0.000 OA
ATOM     14  N   UNL     1       0.106  10.246  22.366  0.00  0.00    +0.000 N 
ATOM     15  C   UNL     1      -0.075   9.458  23.573  0.00  0.00    +0.000 C 
ENDROOT
BRANCH   1  19
ATOM     16  C   UNL     1       3.876   3.626  19.250  0.00  0.00    +0.000 A 
ATOM     17  C   UNL     1       2.650   3.922  19.824  0.00  0.00    +0.000 A 
ATOM     18  C   UNL     1       2.120   5.210  19.724  0.00  0.00    +0.000 A 
ATOM     19  C   UNL     1       2.778   6.259  19.039  0.00  0.00    +0.000 A 
ATOM     20  C   UNL     1       4.027   5.940  18.455  0.00  0.00    +0.000 A 
ATOM     21  C   UNL     1       4.561   4.634  18.573  0.00  0.00    +0.000 A 
BRANCH  16  23
ATOM     22  C   UNL     1       3.754   1.373  18.490  0.00  0.00    +0.000 C 
ATOM     23  O   UNL     1       4.279   2.328  19.402  0.00  0.00    +0.000 OA
ENDBRANCH  16  23
BRANCH  20  24
ATOM     24  O   UNL     1       4.635   6.916  17.702  0.00  0.00    +0.000 OA
ATOM     25  C   UNL     1       5.951   6.664  17.228  0.00  0.00    +0.000 C 
ENDBRANCH  20  24
ENDBRANCH   1  19
BRANCH  11  26
ATOM     26  C   UNL     1      -0.661  13.671  21.049  0.00  0.00    +0.000 C 
BRANCH  26  27
ATOM     27  C   UNL     1      -1.931  13.810  20.202  0.00  0.00    +0.000 C 
BRANCH  27  28
ATOM     28  C   UNL     1      -3.088  12.951  20.728  0.00  0.00    +0.000 C 
BRANCH  28  29
ATOM     29  C   UNL     1      -3.901  12.432  19.566  0.00  0.00    +0.000 A 
ATOM     30  C   UNL     1      -5.292  12.590  19.544  0.00  0.00    +0.000 A 
ATOM     31  C   UNL     1      -6.057  11.976  18.550  0.00  0.00    +0.000 A 
ATOM     32  C   UNL     1      -5.437  11.206  17.568  0.00  0.00    +0.000 A 
ATOM     33  C   UNL     1      -4.051  11.069  17.562  0.00  0.00    +0.000 A 
ATOM     34  C   UNL     1      -3.285  11.681  18.555  0.00  0.00    +0.000 A 
ENDBRANCH  28  29
ENDBRANCH  27  28
ENDBRANCH  26  27
ENDBRANCH  11  26
TORSDOF 7
ENDMDL
MODEL 5
REMARK VINA RESULT:      -8.5      1.849      8.899
REMARK  Name = 
REMARK  10 active torsions:
REMARK  status: ('A' for Active; 'I' for Inactive)
REMARK    1  A    between atoms: C_1  and  O_2
REMARK    2  A    between atoms: O_2  and  C_3
REMARK    3  A    between atoms: C_6  and  N_7
REMARK    4  A    between atoms: N_17  and  C_18
REMARK    5  A    between atoms: C_18  and  C_19
REMARK    6  A    between atoms: C_19  and  C_20
REMARK    7  A    between atoms: C_20  and  C_21
REMARK    8  A    between atoms: N_29  and  C_30
REMARK    9  A    between atoms: C_31  and  O_32
REMARK   10  A    between atoms: O_32  and  C_33
REMARK                            x       y       z     vdW  Elec       q    Type
REMARK                         _______ _______ _______ _____ _____    ______ ____
ROOT
ATOM      1  N   UNL     1       2.476   7.149  18.952  0.00  0.00    +0.000 N 
ATOM      2  C   UNL     1       2.382   7.691  17.575  0.00  0.00    +0.000 C 
ATOM      3  C   UNL     1       2.041   9.173  17.743  0.00  0.00    +0.000 C 
ATOM      4  N   UNL     1       1.621   9.186  19.119  0.00  0.00    +0.000 N 
ATOM      5  C   UNL     1       1.890   8.033  19.801  0.00  0.00    +0.000 A 
ATOM      6  N   UNL     1       1.426   8.126  21.032  0.00  0.00    +0.000 NA
ATOM      7  C   UNL     1       0.855   9.390  21.085  0.00  0.00    +0.000 A 
ATOM      8  C   UNL     1       0.993  10.063  19.912  0.00  0.00    +0.000 A 
ATOM      9  C   UNL     1       0.525  11.373  19.664  0.00  0.00    +0.000 A 
ATOM     10  O   UNL     1       0.676  11.928  18.578  0.00  0.00    +0.000 OA
ATOM     11  N   UNL     1      -0.121  11.935  20.765  0.00  0.00    +0.000 N 
ATOM     12  C   UNL     1      -0.375  11.257  21.980  0.00  0.00    +0.000 A 
ATOM     13  O   UNL     1      -1.063  11.778  22.862  0.00  0.00    +0.000 OA
ATOM     14  N   UNL     1       0.176   9.973  22.136  0.00  0.00    +0.000 N 
ATOM     15  C   UNL     1      -0.032   9.242  23.373  0.00  0.00    +0.000 C 
ENDROOT
BRANCH   1  19
ATOM     16  C   UNL     1       4.350   3.364  19.563  0.00  0.00    +0.000 A 
ATOM     17  C   UNL     1       3.098   3.649  20.086  0.00  0.00    +0.000 A 
ATOM     18  C   UNL     1       2.524   4.906  19.890  0.00  0.00    +0.000 A 
ATOM     19  C   UNL     1       3.161   5.935  19.155  0.00  0.00    +0.000 A 
ATOM     20  C   UNL     1       4.436   5.628  18.625  0.00  0.00    +0.000 A 
ATOM     21  C   UNL     1       5.015   4.354  18.841  0.00  0.00    +0.000 A 
BRANCH  16  23
ATOM     22  C   UNL     1       4.692   1.617  21.143  0.00  0.00    +0.000 C 
ATOM     23  O   UNL     1       4.796   2.096  19.809  0.00  0.00    +0.000 OA
ENDBRANCH  16  23
BRANCH  20  24
ATOM     24  O   UNL     1       5.029   6.577  17.827  0.00  0.00    +0.000 OA
ATOM     25  C   UNL     1       5.564   6.155  16.579  0.00  0.00    +0.000 C 
ENDBRANCH  20  24
ENDBRANCH   1  19
BRANCH  11  26
ATOM     26  C   UNL     1      -0.660  13.290  20.603  0.00  0.00    +0.000 C 
BRANCH  26  27
ATOM     27  C   UNL     1      -1.904  13.329  19.708  0.00  0.00    +0.000 C 
BRANCH  27  28
ATOM     28  C   UNL     1      -2.840  12.137  19.947  0.00  0.00    +0.000 C 
BRANCH  28  29
ATOM     29  C   UNL     1      -3.138  11.457  18.632  0.00  0.00    +0.000 A 
ATOM     30  C   UNL     1      -2.249  10.514  18.101  0.00  0.00    +0.000 A 
ATOM     31  C   UNL     1      -2.447  10.002  16.817  0.00  0.00    +0.000 A 
ATOM     32  C   UNL     1      -3.537  10.423  16.057  0.00  0.00    +0.000 A 
ATOM     33  C   UNL     1      -4.444  11.336  16.589  0.00  0.00    +0.000 A 
ATOM     34  C   UNL     1      -4.248  11.849  17.871  0.00  0.00    +0.000 A 
ENDBRANCH  28  29
ENDBRANCH  27  28
ENDBRANCH  26  27
ENDBRANCH  11  26
TORSDOF 7
ENDMDL
MODEL 6
REMARK VINA RESULT:      -8.5      2.968      8.644
REMARK  Name = 
REMARK  10 active torsions:
REMARK  status: ('A' for Active; 'I' for Inactive)
REMARK    1  A    between atoms: C_1  and  O_2
REMARK    2  A    between atoms: O_2  and  C_3
REMARK    3  A    between atoms: C_6  and  N_7
REMARK    4  A    between atoms: N_17  and  C_18
REMARK    5  A    between atoms: C_18  and  C_19
REMARK    6  A    between atoms: C_19  and  C_20
REMARK    7  A    between atoms: C_20  and  C_21
REMARK    8  A    between atoms: N_29  and  C_30
REMARK    9  A    between atoms: C_31  and  O_32
REMARK   10  A    between atoms: O_32  and  C_33
REMARK                            x       y       z     vdW  Elec       q    Type
REMARK                         _______ _______ _______ _____ _____    ______ ____
ROOT
ATOM      1  N   UNL     1       2.119   7.560  19.001  0.00  0.00    +0.000 N 
ATOM      2  C   UNL     1       2.113   8.188  17.657  0.00  0.00    +0.000 C 
ATOM      3  C   UNL     1       1.912   9.683  17.908  0.00  0.00    +0.000 C 
ATOM      4  N   UNL     1       1.460   9.657  19.273  0.00  0.00    +0.000 N 
ATOM      5  C   UNL     1       1.599   8.446  19.890  0.00  0.00    +0.000 A 
ATOM      6  N   UNL     1       1.116   8.512  21.115  0.00  0.00    +0.000 NA
ATOM      7  C   UNL     1       0.668   9.821  21.232  0.00  0.00    +0.000 A 
ATOM      8  C   UNL     1       0.899  10.544  20.105  0.00  0.00    +0.000 A 
ATOM      9  C   UNL     1       0.566  11.905  19.927  0.00  0.00    +0.000 A 
ATOM     10  O   UNL     1       0.797  12.505  18.880  0.00  0.00    +0.000 OA
ATOM     11  N   UNL     1      -0.051  12.463  21.047  0.00  0.00    +0.000 N 
ATOM     12  C   UNL     1      -0.400  11.743  22.214  0.00  0.00    +0.000 A 
ATOM     13  O   UNL     1      -1.057  12.277  23.112  0.00  0.00    +0.000 OA
ATOM     14  N   UNL     1       0.021  10.406  22.303  0.00  0.00    +0.000 N 
ATOM     15  C   UNL     1      -0.288   9.627  23.490  0.00  0.00    +0.000 C 
ENDROOT
BRANCH   1  19
ATOM     16  C   UNL     1       3.603   3.584  19.448  0.00  0.00    +0.000 A 
ATOM     17  C   UNL     1       2.439   3.999  20.073  0.00  0.00    +0.000 A 
ATOM     18  C   UNL     1       1.994   5.315  19.927  0.00  0.00    +0.000 A 
ATOM     19  C   UNL     1       2.680   6.275  19.144  0.00  0.00    +0.000 A 
ATOM     20  C   UNL     1       3.865   5.835  18.510  0.00  0.00    +0.000 A 
ATOM     21  C   UNL     1       4.314   4.502  18.675  0.00  0.00    +0.000 A 
BRANCH  16  23
ATOM     22  C   UNL     1       3.742   1.379  18.562  0.00  0.00    +0.000 C 
ATOM     23  O   UNL     1       3.924   2.271  19.653  0.00  0.00    +0.000 OA
ENDBRANCH  16  23
BRANCH  20  24
ATOM     24  O   UNL     1       4.492   6.721  17.667  0.00  0.00    +0.000 OA
ATOM     25  C   UNL     1       5.192   6.191  16.549  0.00  0.00    +0.000 C 
ENDBRANCH  20  24
ENDBRANCH   1  19
BRANCH  11  26
ATOM     26  C   UNL     1      -0.453  13.871  20.956  0.00  0.00    +0.000 C 
BRANCH  26  27
ATOM     27  C   UNL     1       0.646  14.832  21.425  0.00  0.00    +0.000 C 
BRANCH  27  28
ATOM     28  C   UNL     1       0.828  16.026  20.480  0.00  0.00    +0.000 C 
BRANCH  28  29
ATOM     29  C   UNL     1       1.987  15.761  19.547  0.00  0.00    +0.000 A 
ATOM     30  C   UNL     1       3.047  14.938  19.946  0.00  0.00    +0.000 A 
ATOM     31  C   UNL     1       4.187  14.819  19.148  0.00  0.00    +0.000 A 
ATOM     32  C   UNL     1       4.271  15.515  17.943  0.00  0.00    +0.000 A 
ATOM     33  C   UNL     1       3.208  16.310  17.522  0.00  0.00    +0.000 A 
ATOM     34  C   UNL     1       2.069  16.431  18.319  0.00  0.00    +0.000 A 
ENDBRANCH  28  29
ENDBRANCH  27  28
ENDBRANCH  26  27
ENDBRANCH  11  26
TORSDOF 7
ENDMDL
MODEL 7
REMARK VINA RESULT:      -8.5      1.993      9.861
REMARK  Name = 
REMARK  10 active torsions:
REMARK  status: ('A' for Active; 'I' for Inactive)
REMARK    1  A    between atoms: C_1  and  O_2
REMARK    2  A    between atoms: O_2  and  C_3
REMARK    3  A    between atoms: C_6  and  N_7
REMARK    4  A    between atoms: N_17  and  C_18
REMARK    5  A    between atoms: C_18  and  C_19
REMARK    6  A    between atoms: C_19  and  C_20
REMARK    7  A    between atoms: C_20  and  C_21
REMARK    8  A    between atoms: N_29  and  C_30
REMARK    9  A    between atoms: C_31  and  O_32
REMARK   10  A    between atoms: O_32  and  C_33
REMARK                            x       y       z     vdW  Elec       q    Type
REMARK                         _______ _______ _______ _____ _____    ______ ____
ROOT
ATOM      1  N   UNL     1       2.208   7.417  18.927  0.00  0.00    +0.000 N 
ATOM      2  C   UNL     1       2.151   8.057  17.589  0.00  0.00    +0.000 C 
ATOM      3  C   UNL     1       1.852   9.533  17.857  0.00  0.00    +0.000 C 
ATOM      4  N   UNL     1       1.412   9.463  19.224  0.00  0.00    +0.000 N 
ATOM      5  C   UNL     1       1.636   8.258  19.828  0.00  0.00    +0.000 A 
ATOM      6  N   UNL     1       1.157   8.279  21.056  0.00  0.00    +0.000 NA
ATOM      7  C   UNL     1       0.623   9.553  21.190  0.00  0.00    +0.000 A 
ATOM      8  C   UNL     1       0.799  10.302  20.069  0.00  0.00    +0.000 A 
ATOM      9  C   UNL     1       0.374  11.640  19.908  0.00  0.00    +0.000 A 
ATOM     10  O   UNL     1       0.558  12.264  18.865  0.00  0.00    +0.000 OA
ATOM     11  N   UNL     1      -0.271  12.143  21.037  0.00  0.00    +0.000 N 
ATOM     12  C   UNL     1      -0.564  11.390  22.198  0.00  0.00    +0.000 A 
ATOM     13  O   UNL     1      -1.250  11.870  23.106  0.00  0.00    +0.000 OA
ATOM     14  N   UNL     1      -0.054  10.083  22.271  0.00  0.00    +0.000 N 
ATOM     15  C   UNL     1      -0.303   9.274  23.451  0.00  0.00    +0.000 C 
ENDROOT
BRANCH   1  19
ATOM     16  C   UNL     1       3.957   3.544  19.310  0.00  0.00    +0.000 A 
ATOM     17  C   UNL     1       2.742   3.855  19.899  0.00  0.00    +0.000 A 
ATOM     18  C   UNL     1       2.209   5.140  19.776  0.00  0.00    +0.000 A 
ATOM     19  C   UNL     1       2.854   6.171  19.053  0.00  0.00    +0.000 A 
ATOM     20  C   UNL     1       4.091   5.838  18.454  0.00  0.00    +0.000 A 
ATOM     21  C   UNL     1       4.629   4.536  18.596  0.00  0.00    +0.000 A 
BRANCH  16  23
ATOM     22  C   UNL     1       3.866   1.282  18.576  0.00  0.00    +0.000 C 
ATOM     23  O   UNL     1       4.364   2.251  19.488  0.00  0.00    +0.000 OA
ENDBRANCH  16  23
BRANCH  20  24
ATOM     24  O   UNL     1       4.685   6.795  17.666  0.00  0.00    +0.000 OA
ATOM     25  C   UNL     1       5.239   6.381  16.424  0.00  0.00    +0.000 C 
ENDBRANCH  20  24
ENDBRANCH   1  19
BRANCH  11  26
ATOM     26  C   UNL     1      -0.767  13.522  20.963  0.00  0.00    +0.000 C 
BRANCH  26  27
ATOM     27  C   UNL     1      -2.177  13.613  20.370  0.00  0.00    +0.000 C 
BRANCH  27  28
ATOM     28  C   UNL     1      -3.214  14.108  21.386  0.00  0.00    +0.000 C 
BRANCH  28  29
ATOM     29  C   UNL     1      -4.474  13.284  21.264  0.00  0.00    +0.000 A 
ATOM     30  C   UNL     1      -4.787  12.634  20.064  0.00  0.00    +0.000 A 
ATOM     31  C   UNL     1      -6.022  12.003  19.903  0.00  0.00    +0.000 A 
ATOM     32  C   UNL     1      -6.951  12.012  20.942  0.00  0.00    +0.000 A 
ATOM     33  C   UNL     1      -6.637  12.627  22.152  0.00  0.00    +0.000 A 
ATOM     34  C   UNL     1      -5.404  13.258  22.314  0.00  0.00    +0.000 A 
ENDBRANCH  28  29
ENDBRANCH  27  28
ENDBRANCH  26  27
ENDBRANCH  11  26
TORSDOF 7
ENDMDL
MODEL 8
REMARK VINA RESULT:      -8.5      2.255      9.693
REMARK  Name = 
REMARK  10 active torsions:
REMARK  status: ('A' for Active; 'I' for Inactive)
REMARK    1  A    between atoms: C_1  and  O_2
REMARK    2  A    between atoms: O_2  and  C_3
REMARK    3  A    between atoms: C_6  and  N_7
REMARK    4  A    between atoms: N_17  and  C_18
REMARK    5  A    between atoms: C_18  and  C_19
REMARK    6  A    between atoms: C_19  and  C_20
REMARK    7  A    between atoms: C_20  and  C_21
REMARK    8  A    between atoms: N_29  and  C_30
REMARK    9  A    between atoms: C_31  and  O_32
REMARK   10  A    between atoms: O_32  and  C_33
REMARK                            x       y       z     vdW  Elec       q    Type
REMARK                         _______ _______ _______ _____ _____    ______ ____
ROOT
ATOM      1  N   UNL     1       2.253   7.461  18.987  0.00  0.00    +0.000 N 
ATOM      2  C   UNL     1       1.957   7.983  17.631  0.00  0.00    +0.000 C 
ATOM      3  C   UNL     1       1.506   9.429  17.841  0.00  0.00    +0.000 C 
ATOM      4  N   UNL     1       1.244   9.415  19.255  0.00  0.00    +0.000 N 
ATOM      5  C   UNL     1       1.689   8.295  19.899  0.00  0.00    +0.000 A 
ATOM      6  N   UNL     1       1.360   8.355  21.174  0.00  0.00    +0.000 NA
ATOM      7  C   UNL     1       0.688   9.564  21.295  0.00  0.00    +0.000 A 
ATOM      8  C   UNL     1       0.633  10.239  20.116  0.00  0.00    +0.000 A 
ATOM      9  C   UNL     1       0.026  11.500  19.927  0.00  0.00    +0.000 A 
ATOM     10  O   UNL     1       0.004  12.058  18.833  0.00  0.00    +0.000 OA
ATOM     11  N   UNL     1      -0.540  12.010  21.095  0.00  0.00    +0.000 N 
ATOM     12  C   UNL     1      -0.594  11.320  22.329  0.00  0.00    +0.000 A 
ATOM     13  O   UNL     1      -1.223  11.784  23.285  0.00  0.00    +0.000 OA
ATOM     14  N   UNL     1       0.082  10.092  22.418  0.00  0.00    +0.000 N 
ATOM     15  C   UNL     1       0.080   9.353  23.669  0.00  0.00    +0.000 C 
ENDROOT
BRANCH   1  19
ATOM     16  C   UNL     1       4.513   3.864  19.386  0.00  0.00    +0.000 A 
ATOM     17  C   UNL     1       3.345   4.071  20.102  0.00  0.00    +0.000 A 
ATOM     18  C   UNL     1       2.642   5.271  19.968  0.00  0.00    +0.000 A 
ATOM     19  C   UNL     1       3.062   6.314  19.108  0.00  0.00    +0.000 A 
ATOM     20  C   UNL     1       4.254   6.085  18.381  0.00  0.00    +0.000 A 
ATOM     21  C   UNL     1       4.965   4.871  18.535  0.00  0.00    +0.000 A 
BRANCH  16  23
ATOM     22  C   UNL     1       4.580   1.843  20.643  0.00  0.00    +0.000 C 
ATOM     23  O   UNL     1       5.099   2.646  19.591  0.00  0.00    +0.000 OA
ENDBRANCH  16  23
BRANCH  20  24
ATOM     24  O   UNL     1       4.625   7.043  17.468  0.00  0.00    +0.000 OA
ATOM     25  C   UNL     1       5.172   6.604  16.231  0.00  0.00    +0.000 C 
ENDBRANCH  20  24
ENDBRANCH   1  19
BRANCH  11  26
ATOM     26  C   UNL     1      -1.212  13.311  20.999  0.00  0.00    +0.000 C 
BRANCH  26  27
ATOM     27  C   UNL     1      -2.739  13.186  20.964  0.00  0.00    +0.000 C 
BRANCH  27  28
ATOM     28  C   UNL     1      -3.264  12.753  19.589  0.00  0.00    +0.000 C 
BRANCH  28  29
ATOM     29  C   UNL     1      -4.709  12.327  19.711  0.00  0.00    +0.000 A 
ATOM     30  C   UNL     1      -5.433  12.590  20.881  0.00  0.00    +0.000 A 
ATOM     31  C   UNL     1      -6.714  12.062  21.053  0.00  0.00    +0.000 A 
ATOM     32  C   UNL     1      -7.283  11.273  20.055  0.00  0.00    +0.000 A 
ATOM     33  C   UNL     1      -6.584  11.032  18.874  0.00  0.00    +0.000 A 
ATOM     34  C   UNL     1      -5.304  11.558  18.701  0.00  0.00    +0.000 A 
ENDBRANCH  28  29
ENDBRANCH  27  28
ENDBRANCH  26  27
ENDBRANCH  11  26
TORSDOF 7
ENDMDL
MODEL 9
REMARK VINA RESULT:      -8.5      3.959      7.099
REMARK  Name = 
REMARK  10 active torsions:
REMARK  status: ('A' for Active; 'I' for Inactive)
REMARK    1  A    between atoms: C_1  and  O_2
REMARK    2  A    between atoms: O_2  and  C_3
REMARK    3  A    between atoms: C_6  and  N_7
REMARK    4  A    between atoms: N_17  and  C_18
REMARK    5  A    between atoms: C_18  and  C_19
REMARK    6  A    between atoms: C_19  and  C_20
REMARK    7  A    between atoms: C_20  and  C_21
REMARK    8  A    between atoms: N_29  and  C_30
REMARK    9  A    between atoms: C_31  and  O_32
REMARK   10  A    between atoms: O_32  and  C_33
REMARK                            x       y       z     vdW  Elec       q    Type
REMARK                         _______ _______ _______ _____ _____    ______ ____
ROOT
ATOM      1  N   UNL     1      -2.860  13.742  22.344  0.00  0.00    +0.000 N 
ATOM      2  C   UNL     1      -1.686  13.645  23.247  0.00  0.00    +0.000 C 
ATOM      3  C   UNL     1      -0.544  13.124  22.375  0.00  0.00    +0.000 C 
ATOM      4  N   UNL     1      -1.284  12.644  21.239  0.00  0.00    +0.000 N 
ATOM      5  C   UNL     1      -2.599  13.018  21.224  0.00  0.00    +0.000 A 
ATOM      6  N   UNL     1      -3.199  12.492  20.175  0.00  0.00    +0.000 NA
ATOM      7  C   UNL     1      -2.198  11.773  19.536  0.00  0.00    +0.000 A 
ATOM      8  C   UNL     1      -1.003  11.882  20.175  0.00  0.00    +0.000 A 
ATOM      9  C   UNL     1       0.202  11.273  19.758  0.00  0.00    +0.000 A 
ATOM     10  O   UNL     1       1.252  11.405  20.382  0.00  0.00    +0.000 OA
ATOM     11  N   UNL     1       0.053  10.516  18.596  0.00  0.00    +0.000 N 
ATOM     12  C   UNL     1      -1.178  10.291  17.936  0.00  0.00    +0.000 A 
ATOM     13  O   UNL     1      -1.250   9.507  16.985  0.00  0.00    +0.000 OA
ATOM     14  N   UNL     1      -2.305  10.983  18.409  0.00  0.00    +0.000 N 
ATOM     15  C   UNL     1      -3.589  10.808  17.753  0.00  0.00    +0.000 C 
ENDROOT
BRANCH   1  19
ATOM     16  C   UNL     1      -6.101  16.339  23.321  0.00  0.00    +0.000 A 
ATOM     17  C   UNL     1      -4.958  16.807  22.694  0.00  0.00    +0.000 A 
ATOM     18  C   UNL     1      -3.904  15.936  22.412  0.00  0.00    +0.000 A 
ATOM     19  C   UNL     1      -3.943  14.557  22.728  0.00  0.00    +0.000 A 
ATOM     20  C   UNL     1      -5.117  14.093  23.365  0.00  0.00    +0.000 A 
ATOM     21  C   UNL     1      -6.175  14.987  23.659  0.00  0.00    +0.000 A 
BRANCH  16  23
ATOM     22  C   UNL     1      -7.739  17.789  22.383  0.00  0.00    +0.000 C 
ATOM     23  O   UNL     1      -7.067  17.284  23.529  0.00  0.00    +0.000 OA
ENDBRANCH  16  23
BRANCH  20  24
ATOM     24  O   UNL     1      -5.216  12.741  23.592  0.00  0.00    +0.000 OA
ATOM     25  C   UNL     1      -4.793  12.248  24.856  0.00  0.00    +0.000 C 
ENDBRANCH  20  24
ENDBRANCH   1  19
BRANCH  11  26
ATOM     26  C   UNL     1       1.246   9.828  18.090  0.00  0.00    +0.000 C 
BRANCH  26  27
ATOM     27  C   UNL     1       1.691   8.673  18.994  0.00  0.00    +0.000 C 
BRANCH  27  28
ATOM     28  C   UNL     1       2.576   7.657  18.262  0.00  0.00    +0.000 C 
BRANCH  28  29
ATOM     29  C   UNL     1       2.268   6.265  18.761  0.00  0.00    +0.000 A 
ATOM     30  C   UNL     1       2.043   5.219  17.857  0.00  0.00    +0.000 A 
ATOM     31  C   UNL     1       1.607   3.973  18.314  0.00  0.00    +0.000 A 
ATOM     32  C   UNL     1       1.400   3.762  19.676  0.00  0.00    +0.000 A 
ATOM     33  C   UNL     1       1.653   4.786  20.585  0.00  0.00    +0.000 A 
ATOM     34  C   UNL     1       2.087   6.032  20.131  0.00  0.00    +0.000 A 
ENDBRANCH  28  29
ENDBRANCH  27  28
ENDBRANCH  26  27
ENDBRANCH  11  26
TORSDOF 7
ENDMDL
