MODEL 1
REMARK VINA RESULT:      -9.5      0.000      0.000
REMARK  Name = 
REMARK  3 active torsions:
REMARK  status: ('A' for Active; 'I' for Inactive)
REMARK    1  A    between atoms: C_1  and  C_2
REMARK    2  A    between atoms: C_2  and  C_3
REMARK    3  A    between atoms: C_3  and  O_4
REMARK                            x       y       z     vdW  Elec       q    Type
REMARK                         _______ _______ _______ _____ _____    ______ ____
ROOT
ATOM      1  C   UNL     1       5.162   5.908  16.728  0.00  0.00    +0.000 C 
ATOM      2  C   UNL     1       6.397   6.343  17.558  0.00  0.00    +0.000 C 
ATOM      3  C   UNL     1       6.709   5.318  18.608  0.00  0.00    +0.000 C 
ATOM      4  O   UNL     1       7.503   4.401  18.448  0.00  0.00    +0.000 OA
ATOM      5  O   UNL     1       5.902   5.419  19.680  0.00  0.00    +0.000 OA
ATOM      6  C   UNL     1       4.667   4.731  19.438  0.00  0.00    +0.000 C 
ATOM      7  C   UNL     1       3.691   5.710  18.822  0.00  0.00    +0.000 A 
ATOM      8  C   UNL     1       3.835   6.416  17.648  0.00  0.00    +0.000 A 
ATOM      9  C   UNL     1       2.898   7.696  17.591  0.00  0.00    +0.000 A 
ATOM     10  C   UNL     1       2.165   8.140  18.692  0.00  0.00    +0.000 A 
ATOM     11  N   UNL     1       2.233   7.306  19.810  0.00  0.00    +0.000 N 
ATOM     12  C   UNL     1       2.668   6.025  19.820  0.00  0.00    +0.000 A 
ATOM     13  O   UNL     1       2.338   5.228  20.710  0.00  0.00    +0.000 OA
ATOM     14  C   UNL     1       1.663   7.816  21.020  0.00  0.00    +0.000 C 
ATOM     15  C   UNL     1       0.994   9.041  20.581  0.00  0.00    +0.000 A 
ATOM     16  C   UNL     1       0.201   9.805  21.434  0.00  0.00    +0.000 A 
ATOM     17  C   UNL     1      -0.506  10.848  20.906  0.00  0.00    +0.000 A 
ATOM     18  C   UNL     1      -1.339  11.586  21.789  0.00  0.00    +0.000 A 
ATOM     19  C   UNL     1      -2.126  12.616  21.326  0.00  0.00    +0.000 A 
ATOM     20  C   UNL     1      -2.084  12.894  19.971  0.00  0.00    +0.000 A 
ATOM     21  C   UNL     1      -1.224  12.147  19.094  0.00  0.00    +0.000 A 
ATOM     22  C   UNL     1      -0.383  11.096  19.511  0.00  0.00    +0.000 A 
ATOM     23  N   UNL     1       0.491  10.317  18.661  0.00  0.00    +0.000 NA
ATOM     24  C   UNL     1       1.184   9.293  19.223  0.00  0.00    +0.000 A 
ENDROOT
BRANCH   1  26
ATOM     25  C   UNL     1       6.252   4.752  14.509  0.00  0.00    +0.000 C 
ATOM     26  C   UNL     1       5.500   5.982  15.155  0.00  0.00    +0.000 C 
ENDBRANCH   1  26
BRANCH   1  27
ATOM     27  O   UNL     1       5.034   4.440  16.783  0.00  0.00    +0.000 OA
ATOM     28  H   UNL     1       5.772   4.018  16.300  0.00  0.00    +0.000 HD
ENDBRANCH   1  27
TORSDOF 2
ENDMDL
MODEL 2
REMARK VINA RESULT:      -8.5      2.401      4.132
REMARK  Name = 
REMARK  3 active torsions:
REMARK  status: ('A' for Active; 'I' for Inactive)
REMARK    1  A    between atoms: C_1  and  C_2
REMARK    2  A    between atoms: C_2  and  C_3
REMARK    3  A    between atoms: C_3  and  O_4
REMARK                            x       y       z     vdW  Elec       q    Type
REMARK                         _______ _______ _______ _____ _____    ______ ____
ROOT
ATOM      1  C   UNL     1       2.171   4.407  20.485  0.00  0.00    +0.000 C 
ATOM      2  C   UNL     1       1.003   3.865  19.622  0.00  0.00    +0.000 C 
ATOM      3  C   UNL     1       1.463   3.610  18.218  0.00  0.00    +0.000 C 
ATOM      4  O   UNL     1       1.873   2.526  17.823  0.00  0.00    +0.000 OA
ATOM      5  O   UNL     1       1.533   4.737  17.488  0.00  0.00    +0.000 OA
ATOM      6  C   UNL     1       2.777   5.408  17.727  0.00  0.00    +0.000 C 
ATOM      7  C   UNL     1       2.585   6.368  18.881  0.00  0.00    +0.000 A 
ATOM      8  C   UNL     1       2.194   6.069  20.168  0.00  0.00    +0.000 A 
ATOM      9  C   UNL     1       1.601   7.330  20.930  0.00  0.00    +0.000 A 
ATOM     10  C   UNL     1       1.339   8.541  20.287  0.00  0.00    +0.000 A 
ATOM     11  N   UNL     1       1.747   8.591  18.952  0.00  0.00    +0.000 N 
ATOM     12  C   UNL     1       2.600   7.731  18.350  0.00  0.00    +0.000 A 
ATOM     13  O   UNL     1       3.226   8.040  17.325  0.00  0.00    +0.000 OA
ATOM     14  C   UNL     1       1.324   9.734  18.200  0.00  0.00    +0.000 C 
ATOM     15  C   UNL     1       0.733  10.601  19.220  0.00  0.00    +0.000 A 
ATOM     16  C   UNL     1       0.291  11.891  18.937  0.00  0.00    +0.000 A 
ATOM     17  C   UNL     1      -0.109  12.684  19.974  0.00  0.00    +0.000 A 
ATOM     18  C   UNL     1      -0.517  14.010  19.664  0.00  0.00    +0.000 A 
ATOM     19  C   UNL     1      -0.880  14.891  20.657  0.00  0.00    +0.000 A 
ATOM     20  C   UNL     1      -0.822  14.441  21.965  0.00  0.00    +0.000 A 
ATOM     21  C   UNL     1      -0.422  13.092  22.259  0.00  0.00    +0.000 A 
ATOM     22  C   UNL     1      -0.057  12.140  21.287  0.00  0.00    +0.000 A 
ATOM     23  N   UNL     1       0.357  10.777  21.543  0.00  0.00    +0.000 NA
ATOM     24  C   UNL     1       0.740  10.016  20.485  0.00  0.00    +0.000 A 
ENDROOT
BRANCH   1  26
ATOM     25  C   UNL     1       1.349   2.299  22.012  0.00  0.00    +0.000 C 
ATOM     26  C   UNL     1       2.304   3.546  21.839  0.00  0.00    +0.000 C 
ENDBRANCH   1  26
BRANCH   1  27
ATOM     27  O   UNL     1       3.451   3.963  19.901  0.00  0.00    +0.000 OA
ATOM     28  H   UNL     1       3.718   4.565  19.178  0.00  0.00    +0.000 HD
ENDBRANCH   1  27
TORSDOF 2
ENDMDL
MODEL 3
REMARK VINA RESULT:      -8.4      2.168      3.881
REMARK  Name = 
REMARK  3 active torsions:
REMARK  status: ('A' for Active; 'I' for Inactive)
REMARK    1  A    between atoms: C_1  and  C_2
REMARK    2  A    between atoms: C_2  and  C_3
REMARK    3  A    between atoms: C_3  and  O_4
REMARK                            x       y       z     vdW  Elec       q    Type
REMARK                         _______ _______ _______ _____ _____    ______ ____
ROOT
ATOM      1  C   UNL     1       2.787   3.513  20.068  0.00  0.00    +0.000 C 
ATOM      2  C   UNL     1       1.756   2.969  19.046  0.00  0.00    +0.000 C 
ATOM      3  C   UNL     1       2.400   2.772  17.706  0.00  0.00    +0.000 C 
ATOM      4  O   UNL     1       2.890   1.712  17.337  0.00  0.00    +0.000 OA
ATOM      5  O   UNL     1       2.528   3.924  17.024  0.00  0.00    +0.000 OA
ATOM      6  C   UNL     1       3.711   4.619  17.442  0.00  0.00    +0.000 C 
ATOM      7  C   UNL     1       3.343   5.536  18.588  0.00  0.00    +0.000 A 
ATOM      8  C   UNL     1       2.799   5.185  19.804  0.00  0.00    +0.000 A 
ATOM      9  C   UNL     1       2.076   6.405  20.519  0.00  0.00    +0.000 A 
ATOM     10  C   UNL     1       1.862   7.629  19.883  0.00  0.00    +0.000 A 
ATOM     11  N   UNL     1       2.436   7.732  18.614  0.00  0.00    +0.000 N 
ATOM     12  C   UNL     1       3.385   6.915  18.102  0.00  0.00    +0.000 A 
ATOM     13  O   UNL     1       4.128   7.273  17.176  0.00  0.00    +0.000 OA
ATOM     14  C   UNL     1       2.079   8.888  17.847  0.00  0.00    +0.000 C 
ATOM     15  C   UNL     1       1.335   9.706  18.805  0.00  0.00    +0.000 A 
ATOM     16  C   UNL     1       0.895  10.992  18.505  0.00  0.00    +0.000 A 
ATOM     17  C   UNL     1       0.341  11.740  19.504  0.00  0.00    +0.000 A 
ATOM     18  C   UNL     1      -0.064  13.064  19.182  0.00  0.00    +0.000 A 
ATOM     19  C   UNL     1      -0.578  13.902  20.144  0.00  0.00    +0.000 A 
ATOM     20  C   UNL     1      -0.674  13.412  21.435  0.00  0.00    +0.000 A 
ATOM     21  C   UNL     1      -0.275  12.065  21.740  0.00  0.00    +0.000 A 
ATOM     22  C   UNL     1       0.241  11.155  20.796  0.00  0.00    +0.000 A 
ATOM     23  N   UNL     1       0.659   9.797  21.064  0.00  0.00    +0.000 NA
ATOM     24  C   UNL     1       1.198   9.080  20.044  0.00  0.00    +0.000 A 
ENDROOT
BRANCH   1  26
ATOM     25  C   UNL     1       1.376   2.359  22.099  0.00  0.00    +0.000 C 
ATOM     26  C   UNL     1       2.771   2.613  21.402  0.00  0.00    +0.000 C 
ENDBRANCH   1  26
BRANCH   1  27
ATOM     27  O   UNL     1       4.143   3.123  19.642  0.00  0.00    +0.000 OA
ATOM     28  H   UNL     1       4.425   3.663  18.877  0.00  0.00    +0.000 HD
ENDBRANCH   1  27
TORSDOF 2
ENDMDL
MODEL 4
REMARK VINA RESULT:      -7.6      3.440      8.369
REMARK  Name = 
REMARK  3 active torsions:
REMARK  status: ('A' for Active; 'I' for Inactive)
REMARK    1  A    between atoms: C_1  and  C_2
REMARK    2  A    between atoms: C_2  and  C_3
REMARK    3  A    between atoms: C_3  and  O_4
REMARK                            x       y       z     vdW  Elec       q    Type
REMARK                         _______ _______ _______ _____ _____    ______ ____
ROOT
ATOM      1  C   UNL     1      -0.308  13.069  19.576  0.00  0.00    +0.000 C 
ATOM      2  C   UNL     1      -1.799  12.647  19.586  0.00  0.00    +0.000 C 
ATOM      3  C   UNL     1      -2.339  12.662  20.985  0.00  0.00    +0.000 C 
ATOM      4  O   UNL     1      -2.910  13.625  21.483  0.00  0.00    +0.000 OA
ATOM      5  O   UNL     1      -1.985  11.570  21.685  0.00  0.00    +0.000 OA
ATOM      6  C   UNL     1      -0.671  11.739  22.236  0.00  0.00    +0.000 C 
ATOM      7  C   UNL     1       0.335  11.218  21.234  0.00  0.00    +0.000 A 
ATOM      8  C   UNL     1       0.535  11.647  19.940  0.00  0.00    +0.000 A 
ATOM      9  C   UNL     1       1.271  10.560  19.048  0.00  0.00    +0.000 A 
ATOM     10  C   UNL     1       1.506   9.257  19.491  0.00  0.00    +0.000 A 
ATOM     11  N   UNL     1       1.146   9.022  20.820  0.00  0.00    +0.000 N 
ATOM     12  C   UNL     1       0.892   9.968  21.753  0.00  0.00    +0.000 A 
ATOM     13  O   UNL     1       0.976   9.730  22.967  0.00  0.00    +0.000 OA
ATOM     14  C   UNL     1       1.184   7.659  21.257  0.00  0.00    +0.000 C 
ATOM     15  C   UNL     1       1.814   6.967  20.133  0.00  0.00    +0.000 A 
ATOM     16  C   UNL     1       2.155   5.618  20.183  0.00  0.00    +0.000 A 
ATOM     17  C   UNL     1       2.873   5.089  19.149  0.00  0.00    +0.000 A 
ATOM     18  C   UNL     1       3.244   3.720  19.243  0.00  0.00    +0.000 A 
ATOM     19  C   UNL     1       4.015   3.126  18.271  0.00  0.00    +0.000 A 
ATOM     20  C   UNL     1       4.425   3.913  17.208  0.00  0.00    +0.000 A 
ATOM     21  C   UNL     1       4.027   5.292  17.121  0.00  0.00    +0.000 A 
ATOM     22  C   UNL     1       3.225   5.950  18.074  0.00  0.00    +0.000 A 
ATOM     23  N   UNL     1       2.810   7.335  18.025  0.00  0.00    +0.000 NA
ATOM     24  C   UNL     1       2.090   7.824  19.068  0.00  0.00    +0.000 A 
ENDROOT
BRANCH   1  26
ATOM     25  C   UNL     1      -0.340  15.726  18.956  0.00  0.00    +0.000 C 
ATOM     26  C   UNL     1      -0.071  14.239  18.496  0.00  0.00    +0.000 C 
ENDBRANCH   1  26
BRANCH   1  27
ATOM     27  O   UNL     1      -0.033  13.903  20.761  0.00  0.00    +0.000 OA
ATOM     28  H   UNL     1       0.283  13.346  21.500  0.00  0.00    +0.000 HD
ENDBRANCH   1  27
TORSDOF 2
ENDMDL
MODEL 5
REMARK VINA RESULT:      -7.5      3.638      8.892
REMARK  Name = 
REMARK  3 active torsions:
REMARK  status: ('A' for Active; 'I' for Inactive)
REMARK    1  A    between atoms: C_1  and  C_2
REMARK    2  A    between atoms: C_2  and  C_3
REMARK    3  A    between atoms: C_3  and  O_4
REMARK                            x       y       z     vdW  Elec       q    Type
REMARK                         _______ _______ _______ _____ _____    ______ ____
ROOT
ATOM      1  C   UNL     1      -1.419  12.089  22.067  0.00  0.00    +0.000 C 
ATOM      2  C   UNL     1      -0.428  13.276  21.962  0.00  0.00    +0.000 C 
ATOM      3  C   UNL     1      -0.802  14.170  20.817  0.00  0.00    +0.000 C 
ATOM      4  O   UNL     1      -1.518  15.157  20.931  0.00  0.00    +0.000 OA
ATOM      5  O   UNL     1      -0.403  13.679  19.630  0.00  0.00    +0.000 OA
ATOM      6  C   UNL     1      -1.358  12.727  19.141  0.00  0.00    +0.000 C 
ATOM      7  C   UNL     1      -0.965  11.357  19.649  0.00  0.00    +0.000 A 
ATOM      8  C   UNL     1      -0.834  10.951  20.959  0.00  0.00    +0.000 A 
ATOM      9  C   UNL     1       0.076   9.658  21.105  0.00  0.00    +0.000 A 
ATOM     10  C   UNL     1       0.803   9.127  20.039  0.00  0.00    +0.000 A 
ATOM     11  N   UNL     1       0.576   9.754  18.811  0.00  0.00    +0.000 N 
ATOM     12  C   UNL     1      -0.455  10.580  18.520  0.00  0.00    +0.000 A 
ATOM     13  O   UNL     1      -0.828  10.775  17.353  0.00  0.00    +0.000 OA
ATOM     14  C   UNL     1       1.441   9.376  17.734  0.00  0.00    +0.000 C 
ATOM     15  C   UNL     1       2.188   8.247  18.290  0.00  0.00    +0.000 A 
ATOM     16  C   UNL     1       3.074   7.490  17.527  0.00  0.00    +0.000 A 
ATOM     17  C   UNL     1       3.615   6.366  18.081  0.00  0.00    +0.000 A 
ATOM     18  C   UNL     1       4.484   5.589  17.268  0.00  0.00    +0.000 A 
ATOM     19  C   UNL     1       5.025   4.412  17.732  0.00  0.00    +0.000 A 
ATOM     20  C   UNL     1       4.683   4.010  19.012  0.00  0.00    +0.000 A 
ATOM     21  C   UNL     1       3.815   4.816  19.826  0.00  0.00    +0.000 A 
ATOM     22  C   UNL     1       3.245   6.037  19.414  0.00  0.00    +0.000 A 
ATOM     23  N   UNL     1       2.363   6.873  20.200  0.00  0.00    +0.000 NA
ATOM     24  C   UNL     1       1.851   7.988  19.617  0.00  0.00    +0.000 A 
ENDROOT
BRANCH   1  26
ATOM     25  C   UNL     1      -3.482  12.377  23.831  0.00  0.00    +0.000 C 
ATOM     26  C   UNL     1      -1.978  11.968  23.573  0.00  0.00    +0.000 C 
ENDBRANCH   1  26
BRANCH   1  27
ATOM     27  O   UNL     1      -2.706  12.478  21.462  0.00  0.00    +0.000 OA
ATOM     28  H   UNL     1      -3.442  12.267  22.071  0.00  0.00    +0.000 HD
ENDBRANCH   1  27
TORSDOF 2
ENDMDL
MODEL 6
REMARK VINA RESULT:      -7.3      1.994      3.629
REMARK  Name = 
REMARK  3 active torsions:
REMARK  status: ('A' for Active; 'I' for Inactive)
REMARK    1  A    between atoms: C_1  and  C_2
REMARK    2  A    between atoms: C_2  and  C_3
REMARK    3  A    between atoms: C_3  and  O_4
REMARK                            x       y       z     vdW  Elec       q    Type
REMARK                         _______ _______ _______ _____ _____    ______ ____
ROOT
ATOM      1  C   UNL     1       3.566   3.133  19.895  0.00  0.00    +0.000 C 
ATOM      2  C   UNL     1       2.535   2.493  18.931  0.00  0.00    +0.000 C 
ATOM      3  C   UNL     1       3.104   2.395  17.546  0.00  0.00    +0.000 C 
ATOM      4  O   UNL     1       3.683   1.404  17.118  0.00  0.00    +0.000 OA
ATOM      5  O   UNL     1       3.056   3.565  16.886  0.00  0.00    +0.000 OA
ATOM      6  C   UNL     1       4.180   4.382  17.243  0.00  0.00    +0.000 C 
ATOM      7  C   UNL     1       3.791   5.231  18.434  0.00  0.00    +0.000 A 
ATOM      8  C   UNL     1       3.374   4.800  19.674  0.00  0.00    +0.000 A 
ATOM      9  C   UNL     1       2.570   5.917  20.465  0.00  0.00    +0.000 A 
ATOM     10  C   UNL     1       2.178   7.120  19.876  0.00  0.00    +0.000 A 
ATOM     11  N   UNL     1       2.648   7.310  18.575  0.00  0.00    +0.000 N 
ATOM     12  C   UNL     1       3.645   6.615  17.981  0.00  0.00    +0.000 A 
ATOM     13  O   UNL     1       4.278   7.071  17.018  0.00  0.00    +0.000 OA
ATOM     14  C   UNL     1       2.113   8.431  17.863  0.00  0.00    +0.000 C 
ATOM     15  C   UNL     1       1.350   9.143  18.889  0.00  0.00    +0.000 A 
ATOM     16  C   UNL     1       0.749  10.376  18.651  0.00  0.00    +0.000 A 
ATOM     17  C   UNL     1       0.185  11.039  19.703  0.00  0.00    +0.000 A 
ATOM     18  C   UNL     1      -0.386  12.314  19.442  0.00  0.00    +0.000 A 
ATOM     19  C   UNL     1      -0.923  13.072  20.457  0.00  0.00    +0.000 A 
ATOM     20  C   UNL     1      -0.876  12.551  21.739  0.00  0.00    +0.000 A 
ATOM     21  C   UNL     1      -0.309  11.253  21.983  0.00  0.00    +0.000 A 
ATOM     22  C   UNL     1       0.240  10.424  20.984  0.00  0.00    +0.000 A 
ATOM     23  N   UNL     1       0.824   9.116  21.189  0.00  0.00    +0.000 NA
ATOM     24  C   UNL     1       1.368   8.484  20.117  0.00  0.00    +0.000 A 
ENDROOT
BRANCH   1  26
ATOM     25  C   UNL     1       5.014   1.278  21.278  0.00  0.00    +0.000 C 
ATOM     26  C   UNL     1       3.742   2.212  21.205  0.00  0.00    +0.000 C 
ENDBRANCH   1  26
BRANCH   1  27
ATOM     27  O   UNL     1       4.926   2.906  19.371  0.00  0.00    +0.000 OA
ATOM     28  H   UNL     1       4.937   2.115  18.795  0.00  0.00    +0.000 HD
ENDBRANCH   1  27
TORSDOF 2
ENDMDL
MODEL 7
REMARK VINA RESULT:      -7.1      3.120      8.135
REMARK  Name = 
REMARK  3 active torsions:
REMARK  status: ('A' for Active; 'I' for Inactive)
REMARK    1  A    between atoms: C_1  and  C_2
REMARK    2  A    between atoms: C_2  and  C_3
REMARK    3  A    between atoms: C_3  and  O_4
REMARK                            x       y       z     vdW  Elec       q    Type
REMARK                         _______ _______ _______ _____ _____    ______ ____
ROOT
ATOM      1  C   UNL     1       0.499  12.425  18.932  0.00  0.00    +0.000 C 
ATOM      2  C   UNL     1      -0.907  12.031  18.414  0.00  0.00    +0.000 C 
ATOM      3  C   UNL     1      -1.790  11.618  19.554  0.00  0.00    +0.000 C 
ATOM      4  O   UNL     1      -2.542  12.385  20.143  0.00  0.00    +0.000 OA
ATOM      5  O   UNL     1      -1.545  10.362  19.965  0.00  0.00    +0.000 OA
ATOM      6  C   UNL     1      -0.436  10.344  20.874  0.00  0.00    +0.000 C 
ATOM      7  C   UNL     1       0.832  10.149  20.072  0.00  0.00    +0.000 A 
ATOM      8  C   UNL     1       1.326  10.954  19.069  0.00  0.00    +0.000 A 
ATOM      9  C   UNL     1       2.349  10.189  18.126  0.00  0.00    +0.000 A 
ATOM     10  C   UNL     1       2.560   8.812  18.207  0.00  0.00    +0.000 A 
ATOM     11  N   UNL     1       1.888   8.182  19.257  0.00  0.00    +0.000 N 
ATOM     12  C   UNL     1       1.330   8.796  20.325  0.00  0.00    +0.000 A 
ATOM     13  O   UNL     1       1.116   8.195  21.388  0.00  0.00    +0.000 OA
ATOM     14  C   UNL     1       1.916   6.750  19.261  0.00  0.00    +0.000 C 
ATOM     15  C   UNL     1       2.866   6.433  18.195  0.00  0.00    +0.000 A 
ATOM     16  C   UNL     1       3.285   5.132  17.931  0.00  0.00    +0.000 A 
ATOM     17  C   UNL     1       4.284   4.942  17.020  0.00  0.00    +0.000 A 
ATOM     18  C   UNL     1       4.722   3.608  16.798  0.00  0.00    +0.000 A 
ATOM     19  C   UNL     1       5.761   3.336  15.938  0.00  0.00    +0.000 A 
ATOM     20  C   UNL     1       6.370   4.409  15.310  0.00  0.00    +0.000 A 
ATOM     21  C   UNL     1       5.904   5.751  15.534  0.00  0.00    +0.000 A 
ATOM     22  C   UNL     1       4.835   6.090  16.387  0.00  0.00    +0.000 A 
ATOM     23  N   UNL     1       4.341   7.425  16.643  0.00  0.00    +0.000 NA
ATOM     24  C   UNL     1       3.341   7.575  17.550  0.00  0.00    +0.000 A 
ENDROOT
BRANCH   1  26
ATOM     25  C   UNL     1       2.457  14.173  18.186  0.00  0.00    +0.000 C 
ATOM     26  C   UNL     1       0.916  13.869  18.355  0.00  0.00    +0.000 C 
ENDBRANCH   1  26
BRANCH   1  27
ATOM     27  O   UNL     1       0.394  12.852  20.340  0.00  0.00    +0.000 OA
ATOM     28  H   UNL     1       1.209  12.615  20.826  0.00  0.00    +0.000 HD
ENDBRANCH   1  27
TORSDOF 2
ENDMDL
MODEL 8
REMARK VINA RESULT:      -7.0      3.467      8.574
REMARK  Name = 
REMARK  3 active torsions:
REMARK  status: ('A' for Active; 'I' for Inactive)
REMARK    1  A    between atoms: C_1  and  C_2
REMARK    2  A    between atoms: C_2  and  C_3
REMARK    3  A    between atoms: C_3  and  O_4
REMARK                            x       y       z     vdW  Elec       q    Type
REMARK                         _______ _______ _______ _____ _____    ______ ____
ROOT
ATOM      1  C   UNL     1      -1.020  11.820  21.689  0.00  0.00    +0.000 C 
ATOM      2  C   UNL     1       0.217  12.724  21.928  0.00  0.00    +0.000 C 
ATOM      3  C   UNL     1       0.465  13.598  20.735  0.00  0.00    +0.000 C 
ATOM      4  O   UNL     1       0.021  14.733  20.620  0.00  0.00    +0.000 OA
ATOM      5  O   UNL     1       1.087  12.943  19.738  0.00  0.00    +0.000 OA
ATOM      6  C   UNL     1       0.133  12.216  18.952  0.00  0.00    +0.000 C 
ATOM      7  C   UNL     1      -0.014  10.831  19.544  0.00  0.00    +0.000 A 
ATOM      8  C   UNL     1      -0.415  10.499  20.819  0.00  0.00    +0.000 A 
ATOM      9  C   UNL     1       0.046   9.039  21.240  0.00  0.00    +0.000 A 
ATOM     10  C   UNL     1       0.919   8.275  20.464  0.00  0.00    +0.000 A 
ATOM     11  N   UNL     1       1.262   8.849  19.238  0.00  0.00    +0.000 N 
ATOM     12  C   UNL     1       0.620   9.876  18.635  0.00  0.00    +0.000 A 
ATOM     13  O   UNL     1       0.701  10.072  17.413  0.00  0.00    +0.000 OA
ATOM     14  C   UNL     1       2.302   8.199  18.500  0.00  0.00    +0.000 C 
ATOM     15  C   UNL     1       2.525   6.966  19.256  0.00  0.00    +0.000 A 
ATOM     16  C   UNL     1       3.389   5.967  18.816  0.00  0.00    +0.000 A 
ATOM     17  C   UNL     1       3.424   4.788  19.504  0.00  0.00    +0.000 A 
ATOM     18  C   UNL     1       4.285   3.769  19.011  0.00  0.00    +0.000 A 
ATOM     19  C   UNL     1       4.337   2.533  19.613  0.00  0.00    +0.000 A 
ATOM     20  C   UNL     1       3.513   2.316  20.704  0.00  0.00    +0.000 A 
ATOM     21  C   UNL     1       2.661   3.363  21.199  0.00  0.00    +0.000 A 
ATOM     22  C   UNL     1       2.577   4.653  20.638  0.00  0.00    +0.000 A 
ATOM     23  N   UNL     1       1.729   5.729  21.101  0.00  0.00    +0.000 NA
ATOM     24  C   UNL     1       1.726   6.890  20.396  0.00  0.00    +0.000 A 
ENDROOT
BRANCH   1  26
ATOM     25  C   UNL     1      -3.458  12.586  22.645  0.00  0.00    +0.000 C 
ATOM     26  C   UNL     1      -2.043  11.944  22.926  0.00  0.00    +0.000 C 
ENDBRANCH   1  26
BRANCH   1  27
ATOM     27  O   UNL     1      -1.905  12.462  20.700  0.00  0.00    +0.000 OA
ATOM     28  H   UNL     1      -2.620  12.951  21.154  0.00  0.00    +0.000 HD
ENDBRANCH   1  27
TORSDOF 2
ENDMDL
MODEL 9
REMARK VINA RESULT:      -6.9      4.352      9.248
REMARK  Name = 
REMARK  3 active torsions:
REMARK  status: ('A' for Active; 'I' for Inactive)
REMARK    1  A    between atoms: C_1  and  C_2
REMARK    2  A    between atoms: C_2  and  C_3
REMARK    3  A    between atoms: C_3  and  O_4
REMARK                            x       y       z     vdW  Elec       q    Type
REMARK                         _______ _______ _______ _____ _____    ______ ____
ROOT
ATOM      1  C   UNL     1      -0.966  14.074  22.507  0.00  0.00    +0.000 C 
ATOM      2  C   UNL     1       0.301  14.953  22.350  0.00  0.00    +0.000 C 
ATOM      3  C   UNL     1       0.167  15.859  21.163  0.00  0.00    +0.000 C 
ATOM      4  O   UNL     1      -0.264  17.003  21.226  0.00  0.00    +0.000 OA
ATOM      5  O   UNL     1       0.413  15.225  20.003  0.00  0.00    +0.000 OA
ATOM      6  C   UNL     1      -0.761  14.535  19.554  0.00  0.00    +0.000 C 
ATOM      7  C   UNL     1      -0.738  13.135  20.129  0.00  0.00    +0.000 A 
ATOM      8  C   UNL     1      -0.709  12.771  21.458  0.00  0.00    +0.000 A 
ATOM      9  C   UNL     1      -0.169  11.293  21.670  0.00  0.00    +0.000 A 
ATOM     10  C   UNL     1       0.385  10.540  20.634  0.00  0.00    +0.000 A 
ATOM     11  N   UNL     1       0.322  11.145  19.377  0.00  0.00    +0.000 N 
ATOM     12  C   UNL     1      -0.458  12.198  19.041  0.00  0.00    +0.000 A 
ATOM     13  O   UNL     1      -0.776  12.429  17.865  0.00  0.00    +0.000 OA
ATOM     14  C   UNL     1       1.049  10.503  18.324  0.00  0.00    +0.000 C 
ATOM     15  C   UNL     1       1.478   9.245  18.936  0.00  0.00    +0.000 A 
ATOM     16  C   UNL     1       2.128   8.247  18.215  0.00  0.00    +0.000 A 
ATOM     17  C   UNL     1       2.359   7.048  18.826  0.00  0.00    +0.000 A 
ATOM     18  C   UNL     1       2.988   6.032  18.055  0.00  0.00    +0.000 A 
ATOM     19  C   UNL     1       3.205   4.778  18.578  0.00  0.00    +0.000 A 
ATOM     20  C   UNL     1       2.778   4.541  19.873  0.00  0.00    +0.000 A 
ATOM     21  C   UNL     1       2.158   5.584  20.644  0.00  0.00    +0.000 A 
ATOM     22  C   UNL     1       1.925   6.891  20.171  0.00  0.00    +0.000 A 
ATOM     23  N   UNL     1       1.300   7.965  20.911  0.00  0.00    +0.000 NA
ATOM     24  C   UNL     1       1.094   9.147  20.273  0.00  0.00    +0.000 A 
ENDROOT
BRANCH   1  26
ATOM     25  C   UNL     1      -3.093  14.196  24.213  0.00  0.00    +0.000 C 
ATOM     26  C   UNL     1      -1.526  14.176  24.014  0.00  0.00    +0.000 C 
ENDBRANCH   1  26
BRANCH   1  27
ATOM     27  O   UNL     1      -2.110  14.758  21.877  0.00  0.00    +0.000 OA
ATOM     28  H   UNL     1      -2.738  14.101  21.515  0.00  0.00    +0.000 HD
ENDBRANCH   1  27
TORSDOF 2
ENDMDL
