MODEL 1
REMARK VINA RESULT:      -8.9      0.000      0.000
REMARK  Name = 
REMARK  5 active torsions:
REMARK  status: ('A' for Active; 'I' for Inactive)
REMARK    1  A    between atoms: C_1  and  C_2
REMARK    2  A    between atoms: C_6  and  C_7
REMARK    3  A    between atoms: C_7  and  O_9
REMARK    4  A    between atoms: C_16  and  N_17
REMARK    5  A    between atoms: C_20  and  N_21
REMARK                            x       y       z     vdW  Elec       q    Type
REMARK                         _______ _______ _______ _____ _____    ______ ____
ROOT
ATOM      1  C   UNL     1       1.655   2.912  21.197  0.00  0.00    +0.000 C 
ATOM      2  C   UNL     1       1.943   3.891  20.002  0.00  0.00    +0.000 C 
ATOM      3  C   UNL     1       2.594   2.889  19.004  0.00  0.00    +0.000 C 
ATOM      4  S   UNL     1       4.320   2.815  19.674  0.00  0.00    +0.000 S 
ATOM      5  C   UNL     1       4.242   4.584  19.520  0.00  0.00    +0.000 A 
ATOM      6  C   UNL     1       4.903   5.037  18.451  0.00  0.00    +0.000 A 
ATOM      7  C   UNL     1       4.231   6.106  17.689  0.00  0.00    +0.000 A 
ATOM      8  O   UNL     1       4.557   6.357  16.527  0.00  0.00    +0.000 OA
ATOM      9  C   UNL     1       3.147   6.838  18.321  0.00  0.00    +0.000 A 
ATOM     10  C   UNL     1       2.823   8.031  17.672  0.00  0.00    +0.000 A 
ATOM     11  C   UNL     1       2.019   8.939  18.308  0.00  0.00    +0.000 A 
ATOM     12  F   UNL     1       1.764  10.079  17.627  0.00  0.00    +0.000 F 
ATOM     13  C   UNL     1       1.532   8.725  19.603  0.00  0.00    +0.000 A 
ATOM     14  C   UNL     1       1.741   7.387  20.165  0.00  0.00    +0.000 A 
ATOM     15  C   UNL     1       2.565   6.395  19.523  0.00  0.00    +0.000 A 
ATOM     16  N   UNL     1       2.978   5.102  20.068  0.00  0.00    +0.000 N 
ENDROOT
BRANCH  13  17
ATOM     17  N   UNL     1       0.905   9.799  20.229  0.00  0.00    +0.000 N 
ATOM     18  C   UNL     1       0.935  11.194  19.844  0.00  0.00    +0.000 C 
ATOM     19  C   UNL     1       0.407  11.903  21.103  0.00  0.00    +0.000 C 
ATOM     20  C   UNL     1      -0.632  10.951  21.708  0.00  0.00    +0.000 C 
ATOM     21  C   UNL     1      -0.321   9.583  21.049  0.00  0.00    +0.000 C 
BRANCH  20  22
ATOM     22  N   UNL     1      -0.561  10.964  23.179  0.00  0.00    +0.000 NA
ATOM     23  H   UNL     1       0.290  11.452  23.466  0.00  0.00    +0.000 HD
ATOM     24  H   UNL     1      -0.449  10.012  23.531  0.00  0.00    +0.000 HD
ENDBRANCH  20  22
ENDBRANCH  13  17
BRANCH   6  25
ATOM     25  C   UNL     1       6.092   4.370  17.801  0.00  0.00    +0.000 C 
ATOM     26  O   UNL     1       7.234   4.398  18.259  0.00  0.00    +0.000 OA
BRANCH  25  27
ATOM     27  O   UNL     1       5.828   3.702  16.650  0.00  0.00    +0.000 OA
ATOM     28  H   UNL     1       5.236   2.916  16.760  0.00  0.00    +0.000 HD
ENDBRANCH  25  27
ENDBRANCH   6  25
TORSDOF 4
ENDMDL
MODEL 2
REMARK VINA RESULT:      -8.5      2.560      3.637
REMARK  Name = 
REMARK  5 active torsions:
REMARK  status: ('A' for Active; 'I' for Inactive)
REMARK    1  A    between atoms: C_1  and  C_2
REMARK    2  A    between atoms: C_6  and  C_7
REMARK    3  A    between atoms: C_7  and  O_9
REMARK    4  A    between atoms: C_16  and  N_17
REMARK    5  A    between atoms: C_20  and  N_21
REMARK                            x       y       z     vdW  Elec       q    Type
REMARK                         _______ _______ _______ _____ _____    ______ ____
ROOT
ATOM      1  C   UNL     1       5.376   6.381  15.945  0.00  0.00    +0.000 C 
ATOM      2  C   UNL     1       4.719   6.446  17.371  0.00  0.00    +0.000 C 
ATOM      3  C   UNL     1       5.359   5.175  18.004  0.00  0.00    +0.000 C 
ATOM      4  S   UNL     1       4.266   3.857  17.297  0.00  0.00    +0.000 S 
ATOM      5  C   UNL     1       2.960   4.853  17.977  0.00  0.00    +0.000 A 
ATOM      6  C   UNL     1       2.470   4.352  19.115  0.00  0.00    +0.000 A 
ATOM      7  C   UNL     1       2.197   5.335  20.181  0.00  0.00    +0.000 A 
ATOM      8  O   UNL     1       2.081   4.979  21.355  0.00  0.00    +0.000 OA
ATOM      9  C   UNL     1       2.103   6.740  19.826  0.00  0.00    +0.000 A 
ATOM     10  C   UNL     1       1.506   7.528  20.813  0.00  0.00    +0.000 A 
ATOM     11  C   UNL     1       1.112   8.802  20.501  0.00  0.00    +0.000 A 
ATOM     12  F   UNL     1       0.523   9.498  21.499  0.00  0.00    +0.000 F 
ATOM     13  C   UNL     1       1.262   9.334  19.215  0.00  0.00    +0.000 A 
ATOM     14  C   UNL     1       2.060   8.545  18.272  0.00  0.00    +0.000 A 
ATOM     15  C   UNL     1       2.509   7.208  18.563  0.00  0.00    +0.000 A 
ATOM     16  N   UNL     1       3.158   6.273  17.644  0.00  0.00    +0.000 N 
ENDROOT
BRANCH  13  17
ATOM     17  N   UNL     1       0.638  10.552  18.958  0.00  0.00    +0.000 N 
ATOM     18  C   UNL     1       1.257  11.849  18.784  0.00  0.00    +0.000 C 
ATOM     19  C   UNL     1       0.066  12.813  18.924  0.00  0.00    +0.000 C 
ATOM     20  C   UNL     1      -1.134  12.077  18.316  0.00  0.00    +0.000 C 
ATOM     21  C   UNL     1      -0.691  10.592  18.283  0.00  0.00    +0.000 C 
BRANCH  20  22
ATOM     22  N   UNL     1      -2.359  12.344  19.089  0.00  0.00    +0.000 NA
ATOM     23  H   UNL     1      -3.164  12.302  18.460  0.00  0.00    +0.000 HD
ATOM     24  H   UNL     1      -2.349  13.303  19.438  0.00  0.00    +0.000 HD
ENDBRANCH  20  22
ENDBRANCH  13  17
BRANCH   6  25
ATOM     25  C   UNL     1       2.457   2.893  19.502  0.00  0.00    +0.000 C 
ATOM     26  O   UNL     1       1.697   2.057  19.013  0.00  0.00    +0.000 OA
BRANCH  25  27
ATOM     27  O   UNL     1       3.366   2.532  20.443  0.00  0.00    +0.000 OA
ATOM     28  H   UNL     1       4.239   2.244  20.078  0.00  0.00    +0.000 HD
ENDBRANCH  25  27
ENDBRANCH   6  25
TORSDOF 4
ENDMDL
MODEL 3
REMARK VINA RESULT:      -8.4      0.750      1.126
REMARK  Name = 
REMARK  5 active torsions:
REMARK  status: ('A' for Active; 'I' for Inactive)
REMARK    1  A    between atoms: C_1  and  C_2
REMARK    2  A    between atoms: C_6  and  C_7
REMARK    3  A    between atoms: C_7  and  O_9
REMARK    4  A    between atoms: C_16  and  N_17
REMARK    5  A    between atoms: C_20  and  N_21
REMARK                            x       y       z     vdW  Elec       q    Type
REMARK                         _______ _______ _______ _____ _____    ______ ____
ROOT
ATOM      1  C   UNL     1       1.493   2.880  21.293  0.00  0.00    +0.000 C 
ATOM      2  C   UNL     1       1.784   3.872  20.108  0.00  0.00    +0.000 C 
ATOM      3  C   UNL     1       2.441   2.881  19.103  0.00  0.00    +0.000 C 
ATOM      4  S   UNL     1       4.164   2.804  19.780  0.00  0.00    +0.000 S 
ATOM      5  C   UNL     1       4.084   4.574  19.644  0.00  0.00    +0.000 A 
ATOM      6  C   UNL     1       4.748   5.039  18.582  0.00  0.00    +0.000 A 
ATOM      7  C   UNL     1       4.077   6.114  17.827  0.00  0.00    +0.000 A 
ATOM      8  O   UNL     1       4.407   6.377  16.670  0.00  0.00    +0.000 OA
ATOM      9  C   UNL     1       2.989   6.838  18.463  0.00  0.00    +0.000 A 
ATOM     10  C   UNL     1       2.664   8.036  17.824  0.00  0.00    +0.000 A 
ATOM     11  C   UNL     1       1.856   8.936  18.465  0.00  0.00    +0.000 A 
ATOM     12  F   UNL     1       1.601  10.083  17.795  0.00  0.00    +0.000 F 
ATOM     13  C   UNL     1       1.364   8.708  19.756  0.00  0.00    +0.000 A 
ATOM     14  C   UNL     1       1.573   7.365  20.305  0.00  0.00    +0.000 A 
ATOM     15  C   UNL     1       2.402   6.382  19.657  0.00  0.00    +0.000 A 
ATOM     16  N   UNL     1       2.816   5.084  20.191  0.00  0.00    +0.000 N 
ENDROOT
BRANCH  13  17
ATOM     17  N   UNL     1       0.732   9.774  20.389  0.00  0.00    +0.000 N 
ATOM     18  C   UNL     1      -0.118   9.736  21.561  0.00  0.00    +0.000 C 
ATOM     19  C   UNL     1      -0.802  11.114  21.528  0.00  0.00    +0.000 C 
ATOM     20  C   UNL     1       0.246  12.080  20.960  0.00  0.00    +0.000 C 
ATOM     21  C   UNL     1       1.285  11.154  20.279  0.00  0.00    +0.000 C 
BRANCH  20  22
ATOM     22  N   UNL     1      -0.383  13.071  20.070  0.00  0.00    +0.000 NA
ATOM     23  H   UNL     1      -0.235  12.787  19.100  0.00  0.00    +0.000 HD
ATOM     24  H   UNL     1       0.094  13.970  20.156  0.00  0.00    +0.000 HD
ENDBRANCH  20  22
ENDBRANCH  13  17
BRANCH   6  25
ATOM     25  C   UNL     1       5.941   4.381  17.931  0.00  0.00    +0.000 C 
ATOM     26  O   UNL     1       7.081   4.407  18.394  0.00  0.00    +0.000 OA
BRANCH  25  27
ATOM     27  O   UNL     1       5.683   3.725  16.771  0.00  0.00    +0.000 OA
ATOM     28  H   UNL     1       5.072   4.206  16.158  0.00  0.00    +0.000 HD
ENDBRANCH  25  27
ENDBRANCH   6  25
TORSDOF 4
ENDMDL
MODEL 4
REMARK VINA RESULT:      -8.2      2.513      3.693
REMARK  Name = 
REMARK  5 active torsions:
REMARK  status: ('A' for Active; 'I' for Inactive)
REMARK    1  A    between atoms: C_1  and  C_2
REMARK    2  A    between atoms: C_6  and  C_7
REMARK    3  A    between atoms: C_7  and  O_9
REMARK    4  A    between atoms: C_16  and  N_17
REMARK    5  A    between atoms: C_20  and  N_21
REMARK                            x       y       z     vdW  Elec       q    Type
REMARK                         _______ _______ _______ _____ _____    ______ ____
ROOT
ATOM      1  C   UNL     1       5.283   6.557  15.879  0.00  0.00    +0.000 C 
ATOM      2  C   UNL     1       4.685   6.519  17.332  0.00  0.00    +0.000 C 
ATOM      3  C   UNL     1       5.387   5.233  17.861  0.00  0.00    +0.000 C 
ATOM      4  S   UNL     1       4.303   3.926  17.122  0.00  0.00    +0.000 S 
ATOM      5  C   UNL     1       3.000   4.839  17.912  0.00  0.00    +0.000 A 
ATOM      6  C   UNL     1       2.573   4.258  19.037  0.00  0.00    +0.000 A 
ATOM      7  C   UNL     1       2.317   5.167  20.170  0.00  0.00    +0.000 A 
ATOM      8  O   UNL     1       2.260   4.740  21.325  0.00  0.00    +0.000 OA
ATOM      9  C   UNL     1       2.168   6.588  19.904  0.00  0.00    +0.000 A 
ATOM     10  C   UNL     1       1.591   7.298  20.959  0.00  0.00    +0.000 A 
ATOM     11  C   UNL     1       1.148   8.574  20.740  0.00  0.00    +0.000 A 
ATOM     12  F   UNL     1       0.582   9.193  21.802  0.00  0.00    +0.000 F 
ATOM     13  C   UNL     1       1.228   9.185  19.483  0.00  0.00    +0.000 A 
ATOM     14  C   UNL     1       2.008   8.478  18.463  0.00  0.00    +0.000 A 
ATOM     15  C   UNL     1       2.506   7.141  18.656  0.00  0.00    +0.000 A 
ATOM     16  N   UNL     1       3.143   6.282  17.657  0.00  0.00    +0.000 N 
ENDROOT
BRANCH  13  17
ATOM     17  N   UNL     1       0.560  10.397  19.325  0.00  0.00    +0.000 N 
ATOM     18  C   UNL     1      -0.861  10.612  19.144  0.00  0.00    +0.000 C 
ATOM     19  C   UNL     1      -0.920  12.067  18.646  0.00  0.00    +0.000 C 
ATOM     20  C   UNL     1       0.220  12.797  19.366  0.00  0.00    +0.000 C 
ATOM     21  C   UNL     1       1.142  11.657  19.869  0.00  0.00    +0.000 C 
BRANCH  20  22
ATOM     22  N   UNL     1       0.866  13.771  18.471  0.00  0.00    +0.000 NA
ATOM     23  H   UNL     1       1.397  13.266  17.758  0.00  0.00    +0.000 HD
ATOM     24  H   UNL     1       1.565  14.309  18.987  0.00  0.00    +0.000 HD
ENDBRANCH  20  22
ENDBRANCH  13  17
BRANCH   6  25
ATOM     25  C   UNL     1       2.617   2.778  19.337  0.00  0.00    +0.000 C 
ATOM     26  O   UNL     1       1.856   1.951  18.837  0.00  0.00    +0.000 OA
BRANCH  25  27
ATOM     27  O   UNL     1       3.581   2.390  20.209  0.00  0.00    +0.000 OA
ATOM     28  H   UNL     1       3.760   1.416  20.212  0.00  0.00    +0.000 HD
ENDBRANCH  25  27
ENDBRANCH   6  25
TORSDOF 4
ENDMDL
MODEL 5
REMARK VINA RESULT:      -7.6      1.210      1.536
REMARK  Name = 
REMARK  5 active torsions:
REMARK  status: ('A' for Active; 'I' for Inactive)
REMARK    1  A    between atoms: C_1  and  C_2
REMARK    2  A    between atoms: C_6  and  C_7
REMARK    3  A    between atoms: C_7  and  O_9
REMARK    4  A    between atoms: C_16  and  N_17
REMARK    5  A    between atoms: C_20  and  N_21
REMARK                            x       y       z     vdW  Elec       q    Type
REMARK                         _______ _______ _______ _____ _____    ______ ____
ROOT
ATOM      1  C   UNL     1       2.467   2.947  20.832  0.00  0.00    +0.000 C 
ATOM      2  C   UNL     1       2.322   4.141  19.819  0.00  0.00    +0.000 C 
ATOM      3  C   UNL     1       2.908   3.465  18.545  0.00  0.00    +0.000 C 
ATOM      4  S   UNL     1       4.723   3.645  18.869  0.00  0.00    +0.000 S 
ATOM      5  C   UNL     1       4.313   5.362  19.081  0.00  0.00    +0.000 A 
ATOM      6  C   UNL     1       4.644   6.105  18.021  0.00  0.00    +0.000 A 
ATOM      7  C   UNL     1       3.652   7.118  17.615  0.00  0.00    +0.000 A 
ATOM      8  O   UNL     1       3.676   7.610  16.486  0.00  0.00    +0.000 OA
ATOM      9  C   UNL     1       2.618   7.500  18.561  0.00  0.00    +0.000 A 
ATOM     10  C   UNL     1       1.963   8.688  18.226  0.00  0.00    +0.000 A 
ATOM     11  C   UNL     1       1.169   9.297  19.160  0.00  0.00    +0.000 A 
ATOM     12  F   UNL     1       0.584  10.453  18.773  0.00  0.00    +0.000 F 
ATOM     13  C   UNL     1       1.013   8.786  20.454  0.00  0.00    +0.000 A 
ATOM     14  C   UNL     1       1.562   7.449  20.697  0.00  0.00    +0.000 A 
ATOM     15  C   UNL     1       2.390   6.763  19.737  0.00  0.00    +0.000 A 
ATOM     16  N   UNL     1       3.124   5.513  19.936  0.00  0.00    +0.000 N 
ENDROOT
BRANCH  13  17
ATOM     17  N   UNL     1       0.359   9.594  21.379  0.00  0.00    +0.000 N 
ATOM     18  C   UNL     1       0.002   9.274  22.746  0.00  0.00    +0.000 C 
ATOM     19  C   UNL     1      -1.012  10.376  23.097  0.00  0.00    +0.000 C 
ATOM     20  C   UNL     1      -0.537  11.628  22.349  0.00  0.00    +0.000 C 
ATOM     21  C   UNL     1       0.428  11.079  21.267  0.00  0.00    +0.000 C 
BRANCH  20  22
ATOM     22  N   UNL     1      -1.682  12.395  21.831  0.00  0.00    +0.000 NA
ATOM     23  H   UNL     1      -2.522  12.128  22.350  0.00  0.00    +0.000 HD
ATOM     24  H   UNL     1      -1.874  12.125  20.865  0.00  0.00    +0.000 HD
ENDBRANCH  20  22
ENDBRANCH  13  17
BRANCH   6  25
ATOM     25  C   UNL     1       5.764   5.809  17.052  0.00  0.00    +0.000 C 
ATOM     26  O   UNL     1       6.957   5.964  17.310  0.00  0.00    +0.000 OA
BRANCH  25  27
ATOM     27  O   UNL     1       5.376   5.335  15.841  0.00  0.00    +0.000 OA
ATOM     28  H   UNL     1       5.382   6.011  15.118  0.00  0.00    +0.000 HD
ENDBRANCH  25  27
ENDBRANCH   6  25
TORSDOF 4
ENDMDL
MODEL 6
REMARK VINA RESULT:      -7.6      3.579      7.156
REMARK  Name = 
REMARK  5 active torsions:
REMARK  status: ('A' for Active; 'I' for Inactive)
REMARK    1  A    between atoms: C_1  and  C_2
REMARK    2  A    between atoms: C_6  and  C_7
REMARK    3  A    between atoms: C_7  and  O_9
REMARK    4  A    between atoms: C_16  and  N_17
REMARK    5  A    between atoms: C_20  and  N_21
REMARK                            x       y       z     vdW  Elec       q    Type
REMARK                         _______ _______ _______ _____ _____    ______ ____
ROOT
ATOM      1  C   UNL     1       0.005   9.511  23.440  0.00  0.00    +0.000 C 
ATOM      2  C   UNL     1       0.837   9.584  22.109  0.00  0.00    +0.000 C 
ATOM      3  C   UNL     1       0.750  11.115  21.838  0.00  0.00    +0.000 C 
ATOM      4  S   UNL     1      -0.934  11.230  21.075  0.00  0.00    +0.000 S 
ATOM      5  C   UNL     1      -0.305   9.981  19.978  0.00  0.00    +0.000 A 
ATOM      6  C   UNL     1       0.038  10.471  18.783  0.00  0.00    +0.000 A 
ATOM      7  C   UNL     1       1.298   9.954  18.217  0.00  0.00    +0.000 A 
ATOM      8  O   UNL     1       1.885  10.560  17.320  0.00  0.00    +0.000 OA
ATOM      9  C   UNL     1       1.858   8.730  18.764  0.00  0.00    +0.000 A 
ATOM     10  C   UNL     1       2.830   8.145  17.949  0.00  0.00    +0.000 A 
ATOM     11  C   UNL     1       3.235   6.864  18.209  0.00  0.00    +0.000 A 
ATOM     12  F   UNL     1       4.164   6.356  17.367  0.00  0.00    +0.000 F 
ATOM     13  C   UNL     1       2.686   6.105  19.250  0.00  0.00    +0.000 A 
ATOM     14  C   UNL     1       1.815   6.819  20.187  0.00  0.00    +0.000 A 
ATOM     15  C   UNL     1       1.376   8.173  19.963  0.00  0.00    +0.000 A 
ATOM     16  N   UNL     1       0.381   8.920  20.733  0.00  0.00    +0.000 N 
ENDROOT
BRANCH  13  17
ATOM     17  N   UNL     1       3.016   4.753  19.290  0.00  0.00    +0.000 N 
ATOM     18  C   UNL     1       4.314   4.161  19.543  0.00  0.00    +0.000 C 
ATOM     19  C   UNL     1       4.119   2.709  19.075  0.00  0.00    +0.000 C 
ATOM     20  C   UNL     1       2.665   2.358  19.413  0.00  0.00    +0.000 C 
ATOM     21  C   UNL     1       1.982   3.733  19.624  0.00  0.00    +0.000 C 
BRANCH  20  22
ATOM     22  N   UNL     1       2.069   1.522  18.357  0.00  0.00    +0.000 NA
ATOM     23  H   UNL     1       2.554   1.704  17.476  0.00  0.00    +0.000 HD
ATOM     24  H   UNL     1       1.103   1.808  18.190  0.00  0.00    +0.000 HD
ENDBRANCH  20  22
ENDBRANCH  13  17
BRANCH   6  25
ATOM     25  C   UNL     1      -0.568  11.686  18.122  0.00  0.00    +0.000 C 
ATOM     26  O   UNL     1      -1.714  11.727  17.674  0.00  0.00    +0.000 OA
BRANCH  25  27
ATOM     27  O   UNL     1       0.239  12.774  18.052  0.00  0.00    +0.000 OA
ATOM     28  H   UNL     1       1.159  12.581  17.741  0.00  0.00    +0.000 HD
ENDBRANCH  25  27
ENDBRANCH   6  25
TORSDOF 4
ENDMDL
MODEL 7
REMARK VINA RESULT:      -7.5      3.524      7.125
REMARK  Name = 
REMARK  5 active torsions:
REMARK  status: ('A' for Active; 'I' for Inactive)
REMARK    1  A    between atoms: C_1  and  C_2
REMARK    2  A    between atoms: C_6  and  C_7
REMARK    3  A    between atoms: C_7  and  O_9
REMARK    4  A    between atoms: C_16  and  N_17
REMARK    5  A    between atoms: C_20  and  N_21
REMARK                            x       y       z     vdW  Elec       q    Type
REMARK                         _______ _______ _______ _____ _____    ______ ____
ROOT
ATOM      1  C   UNL     1       0.234   9.281  23.462  0.00  0.00    +0.000 C 
ATOM      2  C   UNL     1       1.034   9.361  22.112  0.00  0.00    +0.000 C 
ATOM      3  C   UNL     1       0.953  10.896  21.860  0.00  0.00    +0.000 C 
ATOM      4  S   UNL     1      -0.748  11.033  21.139  0.00  0.00    +0.000 S 
ATOM      5  C   UNL     1      -0.156   9.790  20.014  0.00  0.00    +0.000 A 
ATOM      6  C   UNL     1       0.162  10.290  18.816  0.00  0.00    +0.000 A 
ATOM      7  C   UNL     1       1.404   9.769  18.215  0.00  0.00    +0.000 A 
ATOM      8  O   UNL     1       1.974  10.381  17.310  0.00  0.00    +0.000 OA
ATOM      9  C   UNL     1       1.966   8.535  18.735  0.00  0.00    +0.000 A 
ATOM     10  C   UNL     1       2.914   7.951  17.891  0.00  0.00    +0.000 A 
ATOM     11  C   UNL     1       3.315   6.664  18.127  0.00  0.00    +0.000 A 
ATOM     12  F   UNL     1       4.219   6.158  17.258  0.00  0.00    +0.000 F 
ATOM     13  C   UNL     1       2.784   5.899  19.173  0.00  0.00    +0.000 A 
ATOM     14  C   UNL     1       1.942   6.610  20.139  0.00  0.00    +0.000 A 
ATOM     15  C   UNL     1       1.509   7.969  19.939  0.00  0.00    +0.000 A 
ATOM     16  N   UNL     1       0.539   8.716  20.741  0.00  0.00    +0.000 N 
ENDROOT
BRANCH  13  17
ATOM     17  N   UNL     1       3.104   4.544  19.191  0.00  0.00    +0.000 N 
ATOM     18  C   UNL     1       2.430   3.461  18.506  0.00  0.00    +0.000 C 
ATOM     19  C   UNL     1       2.987   2.214  19.214  0.00  0.00    +0.000 C 
ATOM     20  C   UNL     1       4.440   2.556  19.569  0.00  0.00    +0.000 C 
ATOM     21  C   UNL     1       4.500   4.102  19.470  0.00  0.00    +0.000 C 
BRANCH  20  22
ATOM     22  N   UNL     1       4.802   2.002  20.885  0.00  0.00    +0.000 NA
ATOM     23  H   UNL     1       3.951   1.876  21.438  0.00  0.00    +0.000 HD
ATOM     24  H   UNL     1       5.357   2.680  21.408  0.00  0.00    +0.000 HD
ENDBRANCH  20  22
ENDBRANCH  13  17
BRANCH   6  25
ATOM     25  C   UNL     1      -0.449  11.517  18.183  0.00  0.00    +0.000 C 
ATOM     26  O   UNL     1      -1.605  11.572  17.762  0.00  0.00    +0.000 OA
BRANCH  25  27
ATOM     27  O   UNL     1       0.365  12.600  18.106  0.00  0.00    +0.000 OA
ATOM     28  H   UNL     1       0.649  12.959  18.982  0.00  0.00    +0.000 HD
ENDBRANCH  25  27
ENDBRANCH   6  25
TORSDOF 4
ENDMDL
MODEL 8
REMARK VINA RESULT:      -7.3      0.913      1.051
REMARK  Name = 
REMARK  5 active torsions:
REMARK  status: ('A' for Active; 'I' for Inactive)
REMARK    1  A    between atoms: C_1  and  C_2
REMARK    2  A    between atoms: C_6  and  C_7
REMARK    3  A    between atoms: C_7  and  O_9
REMARK    4  A    between atoms: C_16  and  N_17
REMARK    5  A    between atoms: C_20  and  N_21
REMARK                            x       y       z     vdW  Elec       q    Type
REMARK                         _______ _______ _______ _____ _____    ______ ____
ROOT
ATOM      1  C   UNL     1       2.850   2.995  20.731  0.00  0.00    +0.000 C 
ATOM      2  C   UNL     1       2.819   4.057  19.572  0.00  0.00    +0.000 C 
ATOM      3  C   UNL     1       3.498   3.223  18.446  0.00  0.00    +0.000 C 
ATOM      4  S   UNL     1       5.282   3.420  18.904  0.00  0.00    +0.000 S 
ATOM      5  C   UNL     1       4.894   5.154  18.870  0.00  0.00    +0.000 A 
ATOM      6  C   UNL     1       5.331   5.758  17.761  0.00  0.00    +0.000 A 
ATOM      7  C   UNL     1       4.401   6.725  17.149  0.00  0.00    +0.000 A 
ATOM      8  O   UNL     1       4.533   7.075  15.975  0.00  0.00    +0.000 OA
ATOM      9  C   UNL     1       3.299   7.233  17.948  0.00  0.00    +0.000 A 
ATOM     10  C   UNL     1       2.702   8.378  17.415  0.00  0.00    +0.000 A 
ATOM     11  C   UNL     1       1.845   9.107  18.194  0.00  0.00    +0.000 A 
ATOM     12  F   UNL     1       1.321  10.214  17.620  0.00  0.00    +0.000 F 
ATOM     13  C   UNL     1       1.567   8.760  19.521  0.00  0.00    +0.000 A 
ATOM     14  C   UNL     1       2.062   7.457  19.972  0.00  0.00    +0.000 A 
ATOM     15  C   UNL     1       2.953   6.648  19.179  0.00  0.00    +0.000 A 
ATOM     16  N   UNL     1       3.640   5.424  19.592  0.00  0.00    +0.000 N 
ENDROOT
BRANCH  13  17
ATOM     17  N   UNL     1       0.853   9.684  20.281  0.00  0.00    +0.000 N 
ATOM     18  C   UNL     1       0.595  11.076  19.977  0.00  0.00    +0.000 C 
ATOM     19  C   UNL     1       0.124  11.635  21.331  0.00  0.00    +0.000 C 
ATOM     20  C   UNL     1      -0.651  10.494  22.002  0.00  0.00    +0.000 C 
ATOM     21  C   UNL     1      -0.200   9.226  21.231  0.00  0.00    +0.000 C 
BRANCH  20  22
ATOM     22  N   UNL     1      -0.392  10.466  23.451  0.00  0.00    +0.000 NA
ATOM     23  H   UNL     1      -0.674  11.361  23.856  0.00  0.00    +0.000 HD
ATOM     24  H   UNL     1       0.612  10.404  23.625  0.00  0.00    +0.000 HD
ENDBRANCH  20  22
ENDBRANCH  13  17
BRANCH   6  25
ATOM     25  C   UNL     1       6.524   5.332  16.938  0.00  0.00    +0.000 C 
ATOM     26  O   UNL     1       6.678   4.198  16.484  0.00  0.00    +0.000 OA
BRANCH  25  27
ATOM     27  O   UNL     1       7.446   6.299  16.704  0.00  0.00    +0.000 OA
ATOM     28  H   UNL     1       8.380   6.023  16.878  0.00  0.00    +0.000 HD
ENDBRANCH  25  27
ENDBRANCH   6  25
TORSDOF 4
ENDMDL
MODEL 9
REMARK VINA RESULT:      -7.2      2.352      3.425
REMARK  Name = 
REMARK  5 active torsions:
REMARK  status: ('A' for Active; 'I' for Inactive)
REMARK    1  A    between atoms: C_1  and  C_2
REMARK    2  A    between atoms: C_6  and  C_7
REMARK    3  A    between atoms: C_7  and  O_9
REMARK    4  A    between atoms: C_16  and  N_17
REMARK    5  A    between atoms: C_20  and  N_21
REMARK                            x       y       z     vdW  Elec       q    Type
REMARK                         _______ _______ _______ _____ _____    ______ ____
ROOT
ATOM      1  C   UNL     1       5.931   6.290  16.292  0.00  0.00    +0.000 C 
ATOM      2  C   UNL     1       5.099   6.019  17.597  0.00  0.00    +0.000 C 
ATOM      3  C   UNL     1       5.586   4.575  17.915  0.00  0.00    +0.000 C 
ATOM      4  S   UNL     1       4.531   3.595  16.750  0.00  0.00    +0.000 S 
ATOM      5  C   UNL     1       3.199   4.474  17.532  0.00  0.00    +0.000 A 
ATOM      6  C   UNL     1       2.541   3.725  18.422  0.00  0.00    +0.000 A 
ATOM      7  C   UNL     1       2.180   4.400  19.684  0.00  0.00    +0.000 A 
ATOM      8  O   UNL     1       1.895   3.749  20.690  0.00  0.00    +0.000 OA
ATOM      9  C   UNL     1       2.203   5.851  19.730  0.00  0.00    +0.000 A 
ATOM     10  C   UNL     1       1.522   6.388  20.825  0.00  0.00    +0.000 A 
ATOM     11  C   UNL     1       1.236   7.727  20.841  0.00  0.00    +0.000 A 
ATOM     12  F   UNL     1       0.557   8.172  21.923  0.00  0.00    +0.000 F 
ATOM     13  C   UNL     1       1.578   8.575  19.781  0.00  0.00    +0.000 A 
ATOM     14  C   UNL     1       2.452   8.009  18.749  0.00  0.00    +0.000 A 
ATOM     15  C   UNL     1       2.792   6.610  18.702  0.00  0.00    +0.000 A 
ATOM     16  N   UNL     1       3.509   5.909  17.636  0.00  0.00    +0.000 N 
ENDROOT
BRANCH  13  17
ATOM     17  N   UNL     1       1.055   9.865  19.808  0.00  0.00    +0.000 N 
ATOM     18  C   UNL     1       1.117  10.872  18.770  0.00  0.00    +0.000 C 
ATOM     19  C   UNL     1       0.729  12.157  19.523  0.00  0.00    +0.000 C 
ATOM     20  C   UNL     1      -0.300  11.724  20.575  0.00  0.00    +0.000 C 
ATOM     21  C   UNL     1      -0.108  10.189  20.683  0.00  0.00    +0.000 C 
BRANCH  20  22
ATOM     22  N   UNL     1      -0.107  12.465  21.832  0.00  0.00    +0.000 NA
ATOM     23  H   UNL     1       0.859  12.796  21.878  0.00  0.00    +0.000 HD
ATOM     24  H   UNL     1      -0.207  11.834  22.629  0.00  0.00    +0.000 HD
ENDBRANCH  20  22
ENDBRANCH  13  17
BRANCH   6  25
ATOM     25  C   UNL     1       2.405   2.222  18.380  0.00  0.00    +0.000 C 
ATOM     26  O   UNL     1       3.352   1.442  18.473  0.00  0.00    +0.000 OA
BRANCH  25  27
ATOM     27  O   UNL     1       1.138   1.755  18.241  0.00  0.00    +0.000 OA
ATOM     28  H   UNL     1       0.442   2.458  18.246  0.00  0.00    +0.000 HD
ENDBRANCH  25  27
ENDBRANCH   6  25
TORSDOF 4
ENDMDL
