MODEL 1
REMARK VINA RESULT:      -8.2      0.000      0.000
REMARK  Name = 
REMARK  6 active torsions:
REMARK  status: ('A' for Active; 'I' for Inactive)
REMARK    1  A    between atoms: C_1  and  N_2
REMARK    2  A    between atoms: N_2  and  C_3
REMARK    3  A    between atoms: N_2  and  C_19
REMARK    4  A    between atoms: C_3  and  C_4
REMARK    5  A    between atoms: C_13  and  C_14
REMARK    6  A    between atoms: C_14  and  N_15
REMARK                            x       y       z     vdW  Elec       q    Type
REMARK                         _______ _______ _______ _____ _____    ______ ____
ROOT
ATOM      1  C   UNL     1       4.428   5.418  18.597  0.00  0.00    +0.000 A 
ATOM      2  N   UNL     1       5.662   5.964  18.778  0.00  0.00    +0.000 NA
ATOM      3  C   UNL     1       6.559   5.883  17.779  0.00  0.00    +0.000 A 
ATOM      4  C   UNL     1       6.309   5.301  16.546  0.00  0.00    +0.000 A 
ATOM      5  C   UNL     1       7.327   5.223  15.579  0.00  0.00    +0.000 A 
ATOM      6  C   UNL     1       7.086   4.634  14.344  0.00  0.00    +0.000 A 
ATOM      7  C   UNL     1       5.820   4.142  14.059  0.00  0.00    +0.000 A 
ATOM      8  C   UNL     1       4.807   4.199  15.029  0.00  0.00    +0.000 A 
ATOM      9  C   UNL     1       5.027   4.754  16.317  0.00  0.00    +0.000 A 
ATOM     10  C   UNL     1       4.079   4.752  17.395  0.00  0.00    +0.000 A 
ENDROOT
BRANCH   1  11
ATOM     11  C   UNL     1       3.504   5.476  19.829  0.00  0.00    +0.000 C 
BRANCH  11  13
ATOM     12  C   UNL     1       1.171   5.682  20.495  0.00  0.00    +0.000 C 
ATOM     13  N   UNL     1       2.223   6.216  19.647  0.00  0.00    +0.000 NA
BRANCH  13  14
ATOM     14  C   UNL     1       2.386   7.698  19.630  0.00  0.00    +0.000 C 
ATOM     15  C   UNL     1       2.589   8.297  18.213  0.00  0.00    +0.000 C 
ATOM     16  C   UNL     1       1.282   8.712  17.537  0.00  0.00    +0.000 C 
ATOM     17  C   UNL     1       0.577   9.786  18.350  0.00  0.00    +0.000 C 
ATOM     18  C   UNL     1       0.583   9.520  19.830  0.00  0.00    +0.000 A 
ATOM     19  C   UNL     1      -0.172  10.368  20.654  0.00  0.00    +0.000 A 
ATOM     20  C   UNL     1      -0.098  10.244  22.033  0.00  0.00    +0.000 A 
ATOM     21  C   UNL     1       0.720   9.261  22.550  0.00  0.00    +0.000 A 
ATOM     22  N   UNL     1       1.455   8.419  21.793  0.00  0.00    +0.000 NA
ATOM     23  C   UNL     1       1.393   8.549  20.437  0.00  0.00    +0.000 A 
ENDBRANCH  13  14
ENDBRANCH  11  13
ENDBRANCH   1  11
BRANCH  10  24
ATOM     24  C   UNL     1       2.856   3.854  17.329  0.00  0.00    +0.000 C 
BRANCH  24  25
ATOM     25  N   UNL     1       3.112   2.420  17.391  0.00  0.00    +0.000 N 
ATOM     26  C   UNL     1       3.313   1.823  18.593  0.00  0.00    +0.000 C 
ATOM     27  N   UNL     1       2.941   2.216  19.757  0.00  0.00    +0.000 NA
ATOM     28  N   UNL     1       4.018   0.678  18.519  0.00  0.00    +0.000 N 
ATOM     29  H   UNL     1       3.775   2.104  16.694  0.00  0.00    +0.000 HD
ATOM     30  H   UNL     1       2.402   3.075  19.683  0.00  0.00    +0.000 HD
ATOM     31  H   UNL     1       3.593   0.006  17.884  0.00  0.00    +0.000 HD
ATOM     32  H   UNL     1       4.059   0.253  19.445  0.00  0.00    +0.000 HD
ENDBRANCH  24  25
ENDBRANCH  10  24
TORSDOF 5
ENDMDL
MODEL 2
REMARK VINA RESULT:      -8.2      1.806      6.230
REMARK  Name = 
REMARK  6 active torsions:
REMARK  status: ('A' for Active; 'I' for Inactive)
REMARK    1  A    between atoms: C_1  and  N_2
REMARK    2  A    between atoms: N_2  and  C_3
REMARK    3  A    between atoms: N_2  and  C_19
REMARK    4  A    between atoms: C_3  and  C_4
REMARK    5  A    between atoms: C_13  and  C_14
REMARK    6  A    between atoms: C_14  and  N_15
REMARK                            x       y       z     vdW  Elec       q    Type
REMARK                         _______ _______ _______ _____ _____    ______ ____
ROOT
ATOM      1  C   UNL     1       2.752   5.915  18.710  0.00  0.00    +0.000 A 
ATOM      2  N   UNL     1       2.876   6.780  17.666  0.00  0.00    +0.000 NA
ATOM      3  C   UNL     1       2.444   8.045  17.818  0.00  0.00    +0.000 A 
ATOM      4  C   UNL     1       1.901   8.553  18.988  0.00  0.00    +0.000 A 
ATOM      5  C   UNL     1       1.435   9.878  19.036  0.00  0.00    +0.000 A 
ATOM      6  C   UNL     1       0.881  10.393  20.202  0.00  0.00    +0.000 A 
ATOM      7  C   UNL     1       0.813   9.592  21.334  0.00  0.00    +0.000 A 
ATOM      8  C   UNL     1       1.257   8.261  21.283  0.00  0.00    +0.000 A 
ATOM      9  C   UNL     1       1.789   7.688  20.099  0.00  0.00    +0.000 A 
ATOM     10  C   UNL     1       2.163   6.311  19.937  0.00  0.00    +0.000 A 
ENDROOT
BRANCH   1  11
ATOM     11  C   UNL     1       3.184   4.467  18.409  0.00  0.00    +0.000 C 
BRANCH  11  13
ATOM     12  C   UNL     1       4.371   2.771  19.693  0.00  0.00    +0.000 C 
ATOM     13  N   UNL     1       4.487   4.042  18.997  0.00  0.00    +0.000 NA
BRANCH  13  14
ATOM     14  C   UNL     1       5.642   4.197  18.067  0.00  0.00    +0.000 C 
ATOM     15  C   UNL     1       5.307   3.888  16.584  0.00  0.00    +0.000 C 
ATOM     16  C   UNL     1       4.863   5.119  15.794  0.00  0.00    +0.000 C 
ATOM     17  C   UNL     1       5.967   6.163  15.766  0.00  0.00    +0.000 C 
ATOM     18  C   UNL     1       6.649   6.353  17.093  0.00  0.00    +0.000 A 
ATOM     19  C   UNL     1       7.575   7.398  17.214  0.00  0.00    +0.000 A 
ATOM     20  C   UNL     1       8.322   7.535  18.374  0.00  0.00    +0.000 A 
ATOM     21  C   UNL     1       8.108   6.627  19.391  0.00  0.00    +0.000 A 
ATOM     22  N   UNL     1       7.221   5.612  19.318  0.00  0.00    +0.000 NA
ATOM     23  C   UNL     1       6.496   5.470  18.173  0.00  0.00    +0.000 A 
ENDBRANCH  13  14
ENDBRANCH  11  13
ENDBRANCH   1  11
BRANCH  10  24
ATOM     24  C   UNL     1       1.710   5.277  20.954  0.00  0.00    +0.000 C 
BRANCH  24  25
ATOM     25  N   UNL     1       0.812   4.243  20.456  0.00  0.00    +0.000 N 
ATOM     26  C   UNL     1       1.000   2.951  20.828  0.00  0.00    +0.000 C 
ATOM     27  N   UNL     1       1.606   2.494  21.863  0.00  0.00    +0.000 NA
ATOM     28  N   UNL     1       0.486   2.057  19.962  0.00  0.00    +0.000 N 
ATOM     29  H   UNL     1       0.616   4.329  19.466  0.00  0.00    +0.000 HD
ATOM     30  H   UNL     1       1.930   3.260  22.449  0.00  0.00    +0.000 HD
ATOM     31  H   UNL     1      -0.506   2.211  19.794  0.00  0.00    +0.000 HD
ATOM     32  H   UNL     1       0.598   1.120  20.348  0.00  0.00    +0.000 HD
ENDBRANCH  24  25
ENDBRANCH  10  24
TORSDOF 5
ENDMDL
MODEL 3
REMARK VINA RESULT:      -7.8      2.458      4.635
REMARK  Name = 
REMARK  6 active torsions:
REMARK  status: ('A' for Active; 'I' for Inactive)
REMARK    1  A    between atoms: C_1  and  N_2
REMARK    2  A    between atoms: N_2  and  C_3
REMARK    3  A    between atoms: N_2  and  C_19
REMARK    4  A    between atoms: C_3  and  C_4
REMARK    5  A    between atoms: C_13  and  C_14
REMARK    6  A    between atoms: C_14  and  N_15
REMARK                            x       y       z     vdW  Elec       q    Type
REMARK                         _______ _______ _______ _____ _____    ______ ____
ROOT
ATOM      1  C   UNL     1       2.181   6.919  19.726  0.00  0.00    +0.000 A 
ATOM      2  N   UNL     1       1.421   6.278  20.656  0.00  0.00    +0.000 NA
ATOM      3  C   UNL     1       1.337   4.937  20.612  0.00  0.00    +0.000 A 
ATOM      4  C   UNL     1       2.001   4.140  19.693  0.00  0.00    +0.000 A 
ATOM      5  C   UNL     1       1.814   2.746  19.697  0.00  0.00    +0.000 A 
ATOM      6  C   UNL     1       2.469   1.940  18.774  0.00  0.00    +0.000 A 
ATOM      7  C   UNL     1       3.335   2.521  17.857  0.00  0.00    +0.000 A 
ATOM      8  C   UNL     1       3.508   3.914  17.836  0.00  0.00    +0.000 A 
ATOM      9  C   UNL     1       2.823   4.773  18.735  0.00  0.00    +0.000 A 
ATOM     10  C   UNL     1       2.863   6.208  18.706  0.00  0.00    +0.000 A 
ENDROOT
BRANCH   1  11
ATOM     11  C   UNL     1       2.139   8.458  19.799  0.00  0.00    +0.000 C 
BRANCH  11  13
ATOM     12  C   UNL     1       0.390   9.586  21.064  0.00  0.00    +0.000 C 
ATOM     13  N   UNL     1       0.782   9.073  19.762  0.00  0.00    +0.000 NA
BRANCH  13  14
ATOM     14  C   UNL     1       0.565   9.972  18.592  0.00  0.00    +0.000 C 
ATOM     15  C   UNL     1      -0.679   9.611  17.737  0.00  0.00    +0.000 C 
ATOM     16  C   UNL     1      -1.949  10.339  18.178  0.00  0.00    +0.000 C 
ATOM     17  C   UNL     1      -1.775  11.843  18.051  0.00  0.00    +0.000 C 
ATOM     18  C   UNL     1      -0.442  12.337  18.541  0.00  0.00    +0.000 A 
ATOM     19  C   UNL     1      -0.239  13.723  18.611  0.00  0.00    +0.000 A 
ATOM     20  C   UNL     1       1.012  14.227  18.934  0.00  0.00    +0.000 A 
ATOM     21  C   UNL     1       2.024  13.326  19.194  0.00  0.00    +0.000 A 
ATOM     22  N   UNL     1       1.869  11.987  19.146  0.00  0.00    +0.000 NA
ATOM     23  C   UNL     1       0.642  11.490  18.816  0.00  0.00    +0.000 A 
ENDBRANCH  13  14
ENDBRANCH  11  13
ENDBRANCH   1  11
BRANCH  10  24
ATOM     24  C   UNL     1       3.408   6.928  17.486  0.00  0.00    +0.000 C 
BRANCH  24  25
ATOM     25  N   UNL     1       4.840   7.201  17.492  0.00  0.00    +0.000 N 
ATOM     26  C   UNL     1       5.622   6.720  16.491  0.00  0.00    +0.000 C 
ATOM     27  N   UNL     1       5.282   6.377  15.302  0.00  0.00    +0.000 NA
ATOM     28  N   UNL     1       6.916   6.580  16.834  0.00  0.00    +0.000 N 
ATOM     29  H   UNL     1       5.266   7.073  18.402  0.00  0.00    +0.000 HD
ATOM     30  H   UNL     1       4.290   6.547  15.155  0.00  0.00    +0.000 HD
ATOM     31  H   UNL     1       7.319   7.448  17.178  0.00  0.00    +0.000 HD
ATOM     32  H   UNL     1       7.447   6.291  16.013  0.00  0.00    +0.000 HD
ENDBRANCH  24  25
ENDBRANCH  10  24
TORSDOF 5
ENDMDL
MODEL 4
REMARK VINA RESULT:      -7.8      2.630      3.792
REMARK  Name = 
REMARK  6 active torsions:
REMARK  status: ('A' for Active; 'I' for Inactive)
REMARK    1  A    between atoms: C_1  and  N_2
REMARK    2  A    between atoms: N_2  and  C_3
REMARK    3  A    between atoms: N_2  and  C_19
REMARK    4  A    between atoms: C_3  and  C_4
REMARK    5  A    between atoms: C_13  and  C_14
REMARK    6  A    between atoms: C_14  and  N_15
REMARK                            x       y       z     vdW  Elec       q    Type
REMARK                         _______ _______ _______ _____ _____    ______ ____
ROOT
ATOM      1  C   UNL     1       6.153   5.628  16.313  0.00  0.00    +0.000 A 
ATOM      2  N   UNL     1       7.347   6.035  15.801  0.00  0.00    +0.000 NA
ATOM      3  C   UNL     1       7.722   5.581  14.592  0.00  0.00    +0.000 A 
ATOM      4  C   UNL     1       6.959   4.737  13.801  0.00  0.00    +0.000 A 
ATOM      5  C   UNL     1       7.457   4.278  12.569  0.00  0.00    +0.000 A 
ATOM      6  C   UNL     1       6.702   3.426  11.772  0.00  0.00    +0.000 A 
ATOM      7  C   UNL     1       5.434   3.047  12.192  0.00  0.00    +0.000 A 
ATOM      8  C   UNL     1       4.942   3.486  13.431  0.00  0.00    +0.000 A 
ATOM      9  C   UNL     1       5.701   4.323  14.291  0.00  0.00    +0.000 A 
ATOM     10  C   UNL     1       5.314   4.725  15.614  0.00  0.00    +0.000 A 
ENDROOT
BRANCH   1  11
ATOM     11  C   UNL     1       5.855   6.125  17.742  0.00  0.00    +0.000 C 
BRANCH  11  13
ATOM     12  C   UNL     1       6.471   4.443  19.392  0.00  0.00    +0.000 C 
ATOM     13  N   UNL     1       5.370   5.092  18.701  0.00  0.00    +0.000 NA
BRANCH  13  14
ATOM     14  C   UNL     1       4.224   5.546  19.540  0.00  0.00    +0.000 C 
ATOM     15  C   UNL     1       3.536   6.840  19.026  0.00  0.00    +0.000 C 
ATOM     16  C   UNL     1       2.371   6.569  18.074  0.00  0.00    +0.000 C 
ATOM     17  C   UNL     1       1.287   5.766  18.772  0.00  0.00    +0.000 C 
ATOM     18  C   UNL     1       1.819   4.639  19.613  0.00  0.00    +0.000 A 
ATOM     19  C   UNL     1       0.898   3.743  20.174  0.00  0.00    +0.000 A 
ATOM     20  C   UNL     1       1.328   2.766  21.059  0.00  0.00    +0.000 A 
ATOM     21  C   UNL     1       2.676   2.703  21.346  0.00  0.00    +0.000 A 
ATOM     22  N   UNL     1       3.597   3.539  20.820  0.00  0.00    +0.000 NA
ATOM     23  C   UNL     1       3.172   4.508  19.961  0.00  0.00    +0.000 A 
ENDBRANCH  13  14
ENDBRANCH  11  13
ENDBRANCH   1  11
BRANCH  10  24
ATOM     24  C   UNL     1       4.178   4.009  16.323  0.00  0.00    +0.000 C 
BRANCH  24  25
ATOM     25  N   UNL     1       4.525   2.756  16.982  0.00  0.00    +0.000 N 
ATOM     26  C   UNL     1       3.557   2.022  17.588  0.00  0.00    +0.000 C 
ATOM     27  N   UNL     1       2.293   2.024  17.367  0.00  0.00    +0.000 NA
ATOM     28  N   UNL     1       4.019   1.209  18.556  0.00  0.00    +0.000 N 
ATOM     29  H   UNL     1       5.362   2.823  17.549  0.00  0.00    +0.000 HD
ATOM     30  H   UNL     1       2.069   2.657  16.603  0.00  0.00    +0.000 HD
ATOM     31  H   UNL     1       4.745   0.581  18.218  0.00  0.00    +0.000 HD
ATOM     32  H   UNL     1       3.249   0.639  18.906  0.00  0.00    +0.000 HD
ENDBRANCH  24  25
ENDBRANCH  10  24
TORSDOF 5
ENDMDL
MODEL 5
REMARK VINA RESULT:      -7.7      1.673      6.975
REMARK  Name = 
REMARK  6 active torsions:
REMARK  status: ('A' for Active; 'I' for Inactive)
REMARK    1  A    between atoms: C_1  and  N_2
REMARK    2  A    between atoms: N_2  and  C_3
REMARK    3  A    between atoms: N_2  and  C_19
REMARK    4  A    between atoms: C_3  and  C_4
REMARK    5  A    between atoms: C_13  and  C_14
REMARK    6  A    between atoms: C_14  and  N_15
REMARK                            x       y       z     vdW  Elec       q    Type
REMARK                         _______ _______ _______ _____ _____    ______ ____
ROOT
ATOM      1  C   UNL     1       2.134   6.611  18.635  0.00  0.00    +0.000 A 
ATOM      2  N   UNL     1       2.219   7.547  17.651  0.00  0.00    +0.000 NA
ATOM      3  C   UNL     1       1.911   8.823  17.942  0.00  0.00    +0.000 A 
ATOM      4  C   UNL     1       1.535   9.272  19.198  0.00  0.00    +0.000 A 
ATOM      5  C   UNL     1       1.187  10.619  19.395  0.00  0.00    +0.000 A 
ATOM      6  C   UNL     1       0.801  11.076  20.650  0.00  0.00    +0.000 A 
ATOM      7  C   UNL     1       0.785  10.192  21.720  0.00  0.00    +0.000 A 
ATOM      8  C   UNL     1       1.112   8.841  21.523  0.00  0.00    +0.000 A 
ATOM      9  C   UNL     1       1.469   8.329  20.248  0.00  0.00    +0.000 A 
ATOM     10  C   UNL     1       1.710   6.947  19.946  0.00  0.00    +0.000 A 
ENDROOT
BRANCH   1  11
ATOM     11  C   UNL     1       2.414   5.164  18.183  0.00  0.00    +0.000 C 
BRANCH  11  13
ATOM     12  C   UNL     1       3.856   3.203  18.238  0.00  0.00    +0.000 C 
ATOM     13  N   UNL     1       3.759   4.623  18.528  0.00  0.00    +0.000 NA
BRANCH  13  14
ATOM     14  C   UNL     1       4.886   5.483  18.065  0.00  0.00    +0.000 C 
ATOM     15  C   UNL     1       5.915   5.831  19.173  0.00  0.00    +0.000 C 
ATOM     16  C   UNL     1       7.074   4.838  19.257  0.00  0.00    +0.000 C 
ATOM     17  C   UNL     1       7.854   4.815  17.953  0.00  0.00    +0.000 C 
ATOM     18  C   UNL     1       6.980   4.816  16.729  0.00  0.00    +0.000 A 
ATOM     19  C   UNL     1       7.593   4.640  15.480  0.00  0.00    +0.000 A 
ATOM     20  C   UNL     1       6.850   4.761  14.317  0.00  0.00    +0.000 A 
ATOM     21  C   UNL     1       5.503   5.038  14.436  0.00  0.00    +0.000 A 
ATOM     22  N   UNL     1       4.872   5.205  15.618  0.00  0.00    +0.000 NA
ATOM     23  C   UNL     1       5.606   5.100  16.762  0.00  0.00    +0.000 A 
ENDBRANCH  13  14
ENDBRANCH  11  13
ENDBRANCH   1  11
BRANCH  10  24
ATOM     24  C   UNL     1       1.283   5.869  20.927  0.00  0.00    +0.000 C 
BRANCH  24  25
ATOM     25  N   UNL     1       2.246   4.800  21.159  0.00  0.00    +0.000 N 
ATOM     26  C   UNL     1       1.819   3.514  21.238  0.00  0.00    +0.000 C 
ATOM     27  N   UNL     1       0.746   2.993  20.763  0.00  0.00    +0.000 NA
ATOM     28  N   UNL     1       2.646   2.709  21.932  0.00  0.00    +0.000 N 
ATOM     29  H   UNL     1       2.921   5.022  21.880  0.00  0.00    +0.000 HD
ATOM     30  H   UNL     1       0.217   3.690  20.243  0.00  0.00    +0.000 HD
ATOM     31  H   UNL     1       3.593   2.719  21.562  0.00  0.00    +0.000 HD
ATOM     32  H   UNL     1       2.298   1.752  21.881  0.00  0.00    +0.000 HD
ENDBRANCH  24  25
ENDBRANCH  10  24
TORSDOF 5
ENDMDL
MODEL 6
REMARK VINA RESULT:      -7.6      2.161      3.628
REMARK  Name = 
REMARK  6 active torsions:
REMARK  status: ('A' for Active; 'I' for Inactive)
REMARK    1  A    between atoms: C_1  and  N_2
REMARK    2  A    between atoms: N_2  and  C_3
REMARK    3  A    between atoms: N_2  and  C_19
REMARK    4  A    between atoms: C_3  and  C_4
REMARK    5  A    between atoms: C_13  and  C_14
REMARK    6  A    between atoms: C_14  and  N_15
REMARK                            x       y       z     vdW  Elec       q    Type
REMARK                         _______ _______ _______ _____ _____    ______ ____
ROOT
ATOM      1  C   UNL     1       2.253   7.826  18.941  0.00  0.00    +0.000 A 
ATOM      2  N   UNL     1       2.865   8.466  17.908  0.00  0.00    +0.000 NA
ATOM      3  C   UNL     1       3.721   7.776  17.133  0.00  0.00    +0.000 A 
ATOM      4  C   UNL     1       4.010   6.430  17.291  0.00  0.00    +0.000 A 
ATOM      5  C   UNL     1       4.955   5.805  16.459  0.00  0.00    +0.000 A 
ATOM      6  C   UNL     1       5.256   4.458  16.615  0.00  0.00    +0.000 A 
ATOM      7  C   UNL     1       4.596   3.721  17.590  0.00  0.00    +0.000 A 
ATOM      8  C   UNL     1       3.668   4.346  18.436  0.00  0.00    +0.000 A 
ATOM      9  C   UNL     1       3.366   5.730  18.335  0.00  0.00    +0.000 A 
ATOM     10  C   UNL     1       2.513   6.462  19.228  0.00  0.00    +0.000 A 
ENDROOT
BRANCH   1  11
ATOM     11  C   UNL     1       1.366   8.722  19.828  0.00  0.00    +0.000 C 
BRANCH  11  13
ATOM     12  C   UNL     1      -0.327   9.874  18.511  0.00  0.00    +0.000 C 
ATOM     13  N   UNL     1       0.932  10.012  19.221  0.00  0.00    +0.000 NA
BRANCH  13  14
ATOM     14  C   UNL     1       1.060  11.178  20.141  0.00  0.00    +0.000 C 
ATOM     15  C   UNL     1       1.528  12.485  19.447  0.00  0.00    +0.000 C 
ATOM     16  C   UNL     1       0.373  13.357  18.954  0.00  0.00    +0.000 C 
ATOM     17  C   UNL     1      -0.504  13.790  20.116  0.00  0.00    +0.000 C 
ATOM     18  C   UNL     1      -0.788  12.688  21.099  0.00  0.00    +0.000 A 
ATOM     19  C   UNL     1      -1.711  12.940  22.124  0.00  0.00    +0.000 A 
ATOM     20  C   UNL     1      -1.911  12.004  23.126  0.00  0.00    +0.000 A 
ATOM     21  C   UNL     1      -1.191  10.829  23.066  0.00  0.00    +0.000 A 
ATOM     22  N   UNL     1      -0.300  10.542  22.093  0.00  0.00    +0.000 NA
ATOM     23  C   UNL     1      -0.093  11.469  21.114  0.00  0.00    +0.000 A 
ENDBRANCH  13  14
ENDBRANCH  11  13
ENDBRANCH   1  11
BRANCH  10  24
ATOM     24  C   UNL     1       2.113   5.857  20.563  0.00  0.00    +0.000 C 
BRANCH  24  25
ATOM     25  N   UNL     1       1.097   4.813  20.511  0.00  0.00    +0.000 N 
ATOM     26  C   UNL     1       1.354   3.595  21.053  0.00  0.00    +0.000 C 
ATOM     27  N   UNL     1       2.205   3.285  21.963  0.00  0.00    +0.000 NA
ATOM     28  N   UNL     1       0.614   2.601  20.528  0.00  0.00    +0.000 N 
ATOM     29  H   UNL     1       0.647   4.740  19.607  0.00  0.00    +0.000 HD
ATOM     30  H   UNL     1       2.685   4.117  22.295  0.00  0.00    +0.000 HD
ATOM     31  H   UNL     1      -0.384   2.787  20.596  0.00  0.00    +0.000 HD
ATOM     32  H   UNL     1       0.808   1.739  21.037  0.00  0.00    +0.000 HD
ENDBRANCH  24  25
ENDBRANCH  10  24
TORSDOF 5
ENDMDL
MODEL 7
REMARK VINA RESULT:      -7.6      1.769      6.164
REMARK  Name = 
REMARK  6 active torsions:
REMARK  status: ('A' for Active; 'I' for Inactive)
REMARK    1  A    between atoms: C_1  and  N_2
REMARK    2  A    between atoms: N_2  and  C_3
REMARK    3  A    between atoms: N_2  and  C_19
REMARK    4  A    between atoms: C_3  and  C_4
REMARK    5  A    between atoms: C_13  and  C_14
REMARK    6  A    between atoms: C_14  and  N_15
REMARK                            x       y       z     vdW  Elec       q    Type
REMARK                         _______ _______ _______ _____ _____    ______ ____
ROOT
ATOM      1  C   UNL     1       2.853   5.352  17.932  0.00  0.00    +0.000 A 
ATOM      2  N   UNL     1       3.253   6.524  17.367  0.00  0.00    +0.000 NA
ATOM      3  C   UNL     1       2.910   7.680  17.962  0.00  0.00    +0.000 A 
ATOM      4  C   UNL     1       2.193   7.771  19.145  0.00  0.00    +0.000 A 
ATOM      5  C   UNL     1       1.842   9.028  19.667  0.00  0.00    +0.000 A 
ATOM      6  C   UNL     1       1.116   9.128  20.848  0.00  0.00    +0.000 A 
ATOM      7  C   UNL     1       0.758   7.971  21.526  0.00  0.00    +0.000 A 
ATOM      8  C   UNL     1       1.088   6.713  20.997  0.00  0.00    +0.000 A 
ATOM      9  C   UNL     1       1.791   6.571  19.772  0.00  0.00    +0.000 A 
ATOM     10  C   UNL     1       2.071   5.326  19.114  0.00  0.00    +0.000 A 
ENDROOT
BRANCH   1  11
ATOM     11  C   UNL     1       3.211   4.087  17.128  0.00  0.00    +0.000 C 
BRANCH  11  13
ATOM     12  C   UNL     1       3.978   1.853  17.724  0.00  0.00    +0.000 C 
ATOM     13  N   UNL     1       4.327   3.263  17.674  0.00  0.00    +0.000 NA
BRANCH  13  14
ATOM     14  C   UNL     1       5.659   3.606  17.100  0.00  0.00    +0.000 C 
ATOM     15  C   UNL     1       5.705   3.588  15.549  0.00  0.00    +0.000 C 
ATOM     16  C   UNL     1       5.394   4.946  14.918  0.00  0.00    +0.000 C 
ATOM     17  C   UNL     1       6.413   5.984  15.355  0.00  0.00    +0.000 C 
ATOM     18  C   UNL     1       6.747   5.919  16.820  0.00  0.00    +0.000 A 
ATOM     19  C   UNL     1       7.559   6.929  17.357  0.00  0.00    +0.000 A 
ATOM     20  C   UNL     1       7.999   6.845  18.668  0.00  0.00    +0.000 A 
ATOM     21  C   UNL     1       7.601   5.754  19.415  0.00  0.00    +0.000 A 
ATOM     22  N   UNL     1       6.814   4.765  18.940  0.00  0.00    +0.000 NA
ATOM     23  C   UNL     1       6.392   4.842  17.646  0.00  0.00    +0.000 A 
ENDBRANCH  13  14
ENDBRANCH  11  13
ENDBRANCH   1  11
BRANCH  10  24
ATOM     24  C   UNL     1       1.341   4.063  19.538  0.00  0.00    +0.000 C 
BRANCH  24  25
ATOM     25  N   UNL     1       2.184   2.928  19.894  0.00  0.00    +0.000 N 
ATOM     26  C   UNL     1       2.627   2.791  21.169  0.00  0.00    +0.000 C 
ATOM     27  N   UNL     1       2.130   3.278  22.248  0.00  0.00    +0.000 NA
ATOM     28  N   UNL     1       3.751   2.059  21.278  0.00  0.00    +0.000 N 
ATOM     29  H   UNL     1       2.913   2.746  19.216  0.00  0.00    +0.000 HD
ATOM     30  H   UNL     1       1.276   3.791  22.043  0.00  0.00    +0.000 HD
ATOM     31  H   UNL     1       3.649   1.135  20.864  0.00  0.00    +0.000 HD
ATOM     32  H   UNL     1       3.975   1.938  22.265  0.00  0.00    +0.000 HD
ENDBRANCH  24  25
ENDBRANCH  10  24
TORSDOF 5
ENDMDL
MODEL 8
REMARK VINA RESULT:      -7.5      2.381      4.359
REMARK  Name = 
REMARK  6 active torsions:
REMARK  status: ('A' for Active; 'I' for Inactive)
REMARK    1  A    between atoms: C_1  and  N_2
REMARK    2  A    between atoms: N_2  and  C_3
REMARK    3  A    between atoms: N_2  and  C_19
REMARK    4  A    between atoms: C_3  and  C_4
REMARK    5  A    between atoms: C_13  and  C_14
REMARK    6  A    between atoms: C_14  and  N_15
REMARK                            x       y       z     vdW  Elec       q    Type
REMARK                         _______ _______ _______ _____ _____    ______ ____
ROOT
ATOM      1  C   UNL     1       2.176   6.665  19.833  0.00  0.00    +0.000 A 
ATOM      2  N   UNL     1       1.371   5.993  20.700  0.00  0.00    +0.000 NA
ATOM      3  C   UNL     1       1.188   4.672  20.524  0.00  0.00    +0.000 A 
ATOM      4  C   UNL     1       1.793   3.923  19.527  0.00  0.00    +0.000 A 
ATOM      5  C   UNL     1       1.504   2.553  19.395  0.00  0.00    +0.000 A 
ATOM      6  C   UNL     1       2.099   1.797  18.393  0.00  0.00    +0.000 A 
ATOM      7  C   UNL     1       3.006   2.401  17.532  0.00  0.00    +0.000 A 
ATOM      8  C   UNL     1       3.281   3.772  17.648  0.00  0.00    +0.000 A 
ATOM      9  C   UNL     1       2.660   4.586  18.631  0.00  0.00    +0.000 A 
ATOM     10  C   UNL     1       2.806   6.010  18.744  0.00  0.00    +0.000 A 
ENDROOT
BRANCH   1  11
ATOM     11  C   UNL     1       2.247   8.188  20.057  0.00  0.00    +0.000 C 
BRANCH  11  13
ATOM     12  C   UNL     1       0.814   8.809  21.926  0.00  0.00    +0.000 C 
ATOM     13  N   UNL     1       0.977   8.842  20.483  0.00  0.00    +0.000 NA
BRANCH  13  14
ATOM     14  C   UNL     1       0.721  10.146  19.807  0.00  0.00    +0.000 C 
ATOM     15  C   UNL     1       0.411  10.025  18.291  0.00  0.00    +0.000 C 
ATOM     16  C   UNL     1      -1.081   9.891  17.987  0.00  0.00    +0.000 C 
ATOM     17  C   UNL     1      -1.837  11.116  18.472  0.00  0.00    +0.000 C 
ATOM     18  C   UNL     1      -1.409  11.586  19.835  0.00  0.00    +0.000 A 
ATOM     19  C   UNL     1      -2.148  12.613  20.440  0.00  0.00    +0.000 A 
ATOM     20  C   UNL     1      -1.718  13.168  21.636  0.00  0.00    +0.000 A 
ATOM     21  C   UNL     1      -0.564  12.666  22.204  0.00  0.00    +0.000 A 
ATOM     22  N   UNL     1       0.170  11.673  21.659  0.00  0.00    +0.000 NA
ATOM     23  C   UNL     1      -0.245  11.136  20.476  0.00  0.00    +0.000 A 
ENDBRANCH  13  14
ENDBRANCH  11  13
ENDBRANCH   1  11
BRANCH  10  24
ATOM     24  C   UNL     1       3.403   6.805  17.596  0.00  0.00    +0.000 C 
BRANCH  24  25
ATOM     25  N   UNL     1       4.852   6.970  17.621  0.00  0.00    +0.000 N 
ATOM     26  C   UNL     1       5.581   6.684  16.513  0.00  0.00    +0.000 C 
ATOM     27  N   UNL     1       5.200   6.651  15.287  0.00  0.00    +0.000 NA
ATOM     28  N   UNL     1       6.866   6.380  16.773  0.00  0.00    +0.000 N 
ATOM     29  H   UNL     1       5.280   6.605  18.463  0.00  0.00    +0.000 HD
ATOM     30  H   UNL     1       4.221   6.918  15.215  0.00  0.00    +0.000 HD
ATOM     31  H   UNL     1       7.337   7.114  17.296  0.00  0.00    +0.000 HD
ATOM     32  H   UNL     1       7.363   6.254  15.891  0.00  0.00    +0.000 HD
ENDBRANCH  24  25
ENDBRANCH  10  24
TORSDOF 5
ENDMDL
MODEL 9
REMARK VINA RESULT:      -7.5      2.354      5.015
REMARK  Name = 
REMARK  6 active torsions:
REMARK  status: ('A' for Active; 'I' for Inactive)
REMARK    1  A    between atoms: C_1  and  N_2
REMARK    2  A    between atoms: N_2  and  C_3
REMARK    3  A    between atoms: N_2  and  C_19
REMARK    4  A    between atoms: C_3  and  C_4
REMARK    5  A    between atoms: C_13  and  C_14
REMARK    6  A    between atoms: C_14  and  N_15
REMARK                            x       y       z     vdW  Elec       q    Type
REMARK                         _______ _______ _______ _____ _____    ______ ____
ROOT
ATOM      1  C   UNL     1       2.344   7.229  19.035  0.00  0.00    +0.000 A 
ATOM      2  N   UNL     1       1.499   7.140  20.098  0.00  0.00    +0.000 NA
ATOM      3  C   UNL     1       1.493   6.011  20.829  0.00  0.00    +0.000 A 
ATOM      4  C   UNL     1       2.319   4.923  20.596  0.00  0.00    +0.000 A 
ATOM      5  C   UNL     1       2.207   3.766  21.387  0.00  0.00    +0.000 A 
ATOM      6  C   UNL     1       3.025   2.667  21.155  0.00  0.00    +0.000 A 
ATOM      7  C   UNL     1       3.976   2.728  20.145  0.00  0.00    +0.000 A 
ATOM      8  C   UNL     1       4.076   3.872  19.339  0.00  0.00    +0.000 A 
ATOM      9  C   UNL     1       3.229   4.997  19.519  0.00  0.00    +0.000 A 
ATOM     10  C   UNL     1       3.196   6.156  18.672  0.00  0.00    +0.000 A 
ENDROOT
BRANCH   1  11
ATOM     11  C   UNL     1       2.210   8.520  18.203  0.00  0.00    +0.000 C 
BRANCH  11  13
ATOM     12  C   UNL     1       2.189  10.955  18.248  0.00  0.00    +0.000 C 
ATOM     13  N   UNL     1       1.819   9.744  18.960  0.00  0.00    +0.000 NA
BRANCH  13  14
ATOM     14  C   UNL     1       0.438   9.687  19.518  0.00  0.00    +0.000 C 
ATOM     15  C   UNL     1       0.339  10.098  21.011  0.00  0.00    +0.000 C 
ATOM     16  C   UNL     1       0.059  11.588  21.211  0.00  0.00    +0.000 C 
ATOM     17  C   UNL     1      -1.269  11.971  20.582  0.00  0.00    +0.000 C 
ATOM     18  C   UNL     1      -1.490  11.363  19.224  0.00  0.00    +0.000 A 
ATOM     19  C   UNL     1      -2.613  11.775  18.492  0.00  0.00    +0.000 A 
ATOM     20  C   UNL     1      -2.929  11.152  17.294  0.00  0.00    +0.000 A 
ATOM     21  C   UNL     1      -2.100  10.140  16.853  0.00  0.00    +0.000 A 
ATOM     22  N   UNL     1      -1.005   9.720  17.523  0.00  0.00    +0.000 NA
ATOM     23  C   UNL     1      -0.702  10.324  18.707  0.00  0.00    +0.000 A 
ENDBRANCH  13  14
ENDBRANCH  11  13
ENDBRANCH   1  11
BRANCH  10  24
ATOM     24  C   UNL     1       3.864   6.119  17.308  0.00  0.00    +0.000 C 
BRANCH  24  25
ATOM     25  N   UNL     1       5.230   6.625  17.253  0.00  0.00    +0.000 N 
ATOM     26  C   UNL     1       6.060   6.218  16.259  0.00  0.00    +0.000 C 
ATOM     27  N   UNL     1       5.758   5.746  15.104  0.00  0.00    +0.000 NA
ATOM     28  N   UNL     1       7.366   6.317  16.568  0.00  0.00    +0.000 N 
ATOM     29  H   UNL     1       5.690   6.629  18.155  0.00  0.00    +0.000 HD
ATOM     30  H   UNL     1       4.749   5.740  14.978  0.00  0.00    +0.000 HD
ATOM     31  H   UNL     1       7.625   7.261  16.847  0.00  0.00    +0.000 HD
ATOM     32  H   UNL     1       7.921   6.068  15.750  0.00  0.00    +0.000 HD
ENDBRANCH  24  25
ENDBRANCH  10  24
TORSDOF 5
ENDMDL
