MODEL 1
REMARK VINA RESULT:      -7.4      0.000      0.000
REMARK  Name = 
REMARK  7 active torsions:
REMARK  status: ('A' for Active; 'I' for Inactive)
REMARK    1  A    between atoms: C_2  and  C_3
REMARK    2  A    between atoms: C_3  and  C_4
REMARK    3  A    between atoms: C_6  and  C_7
REMARK    4  A    between atoms: C_7  and  C_8
REMARK    5  A    between atoms: C_7  and  C_9
REMARK    6  A    between atoms: C_9  and  C_10
REMARK    7  A    between atoms: C_13  and  O_14
REMARK                            x       y       z     vdW  Elec       q    Type
REMARK                         _______ _______ _______ _____ _____    ______ ____
ROOT
ATOM      1  C   UNL     1       1.089   3.811  20.659  0.00  0.00    +0.000 C 
ATOM      2  C   UNL     1       1.044   2.900  19.372  0.00  0.00    +0.000 C 
ATOM      3  C   UNL     1       2.458   2.783  18.736  0.00  0.00    +0.000 C 
ATOM      4  O   UNL     1       2.868   1.645  17.973  0.00  0.00    +0.000 OA
ATOM      5  C   UNL     1       4.266   1.488  18.263  0.00  0.00    +0.000 C 
ATOM      6  O   UNL     1       4.436   1.605  19.657  0.00  0.00    +0.000 OA
ATOM      7  C   UNL     1       3.297   2.336  19.999  0.00  0.00    +0.000 C 
ATOM      8  C   UNL     1       2.845   2.175  21.266  0.00  0.00    +0.000 C 
ATOM      9  C   UNL     1       1.564   2.810  21.661  0.00  0.00    +0.000 C 
ATOM     10  O   UNL     1       0.990   2.530  22.702  0.00  0.00    +0.000 OA
ENDROOT
BRANCH   3  11
ATOM     11  C   UNL     1       2.319   3.878  17.565  0.00  0.00    +0.000 C 
ATOM     12  C   UNL     1       1.010   4.653  17.345  0.00  0.00    +0.000 C 
BRANCH  11  13
ATOM     13  C   UNL     1       3.533   4.971  17.461  0.00  0.00    +0.000 C 
BRANCH  13  14
ATOM     14  C   UNL     1       4.845   4.888  16.681  0.00  0.00    +0.000 A 
ATOM     15  C   UNL     1       5.002   4.171  15.485  0.00  0.00    +0.000 A 
ATOM     16  C   UNL     1       6.133   4.304  14.667  0.00  0.00    +0.000 A 
ATOM     17  C   UNL     1       7.111   5.220  15.001  0.00  0.00    +0.000 A 
ATOM     18  C   UNL     1       7.003   5.955  16.172  0.00  0.00    +0.000 A 
ATOM     19  C   UNL     1       5.883   5.788  17.003  0.00  0.00    +0.000 A 
BRANCH  17  20
ATOM     20  O   UNL     1       8.164   5.464  14.170  0.00  0.00    +0.000 OA
ATOM     21  H   UNL     1       8.314   6.424  14.143  0.00  0.00    +0.000 HD
ENDBRANCH  17  20
ENDBRANCH  13  14
ENDBRANCH  11  13
ENDBRANCH   3  11
BRANCH   1  22
ATOM     22  C   UNL     1       2.113   5.013  20.733  0.00  0.00    +0.000 C 
BRANCH  22  24
ATOM     23  C   UNL     1       2.212   7.440  19.955  0.00  0.00    +0.000 C 
ATOM     24  C   UNL     1       1.587   6.409  20.542  0.00  0.00    +0.000 C 
ENDBRANCH  22  24
ENDBRANCH   1  22
TORSDOF 6
ENDMDL
MODEL 2
REMARK VINA RESULT:      -7.2      2.414      5.393
REMARK  Name = 
REMARK  7 active torsions:
REMARK  status: ('A' for Active; 'I' for Inactive)
REMARK    1  A    between atoms: C_2  and  C_3
REMARK    2  A    between atoms: C_3  and  C_4
REMARK    3  A    between atoms: C_6  and  C_7
REMARK    4  A    between atoms: C_7  and  C_8
REMARK    5  A    between atoms: C_7  and  C_9
REMARK    6  A    between atoms: C_9  and  C_10
REMARK    7  A    between atoms: C_13  and  O_14
REMARK                            x       y       z     vdW  Elec       q    Type
REMARK                         _______ _______ _______ _____ _____    ______ ____
ROOT
ATOM      1  C   UNL     1       1.439   4.205  18.890  0.00  0.00    +0.000 C 
ATOM      2  C   UNL     1       1.961   4.868  17.557  0.00  0.00    +0.000 C 
ATOM      3  C   UNL     1       3.505   4.730  17.447  0.00  0.00    +0.000 C 
ATOM      4  O   UNL     1       4.187   4.686  16.191  0.00  0.00    +0.000 OA
ATOM      5  C   UNL     1       5.295   3.796  16.401  0.00  0.00    +0.000 C 
ATOM      6  O   UNL     1       4.814   2.657  17.078  0.00  0.00    +0.000 OA
ATOM      7  C   UNL     1       3.665   3.175  17.678  0.00  0.00    +0.000 C 
ATOM      8  C   UNL     1       2.682   2.282  17.947  0.00  0.00    +0.000 C 
ATOM      9  C   UNL     1       1.378   2.777  18.456  0.00  0.00    +0.000 C 
ATOM     10  O   UNL     1       0.387   2.067  18.508  0.00  0.00    +0.000 OA
ENDROOT
BRANCH   3  11
ATOM     11  C   UNL     1       3.944   6.191  17.960  0.00  0.00    +0.000 C 
ATOM     12  C   UNL     1       5.312   6.790  17.594  0.00  0.00    +0.000 C 
BRANCH  11  13
ATOM     13  C   UNL     1       2.842   7.383  17.751  0.00  0.00    +0.000 C 
BRANCH  13  14
ATOM     14  C   UNL     1       2.136   8.241  18.802  0.00  0.00    +0.000 A 
ATOM     15  C   UNL     1       1.397   9.396  18.503  0.00  0.00    +0.000 A 
ATOM     16  C   UNL     1       0.566  10.025  19.441  0.00  0.00    +0.000 A 
ATOM     17  C   UNL     1       0.402   9.461  20.691  0.00  0.00    +0.000 A 
ATOM     18  C   UNL     1       1.107   8.319  21.036  0.00  0.00    +0.000 A 
ATOM     19  C   UNL     1       1.966   7.717  20.101  0.00  0.00    +0.000 A 
BRANCH  17  20
ATOM     20  O   UNL     1      -0.490   9.975  21.586  0.00  0.00    +0.000 OA
ATOM     21  H   UNL     1      -0.044  10.058  22.446  0.00  0.00    +0.000 HD
ENDBRANCH  17  20
ENDBRANCH  13  14
ENDBRANCH  11  13
ENDBRANCH   3  11
BRANCH   1  22
ATOM     22  C   UNL     1       2.348   4.223  20.183  0.00  0.00    +0.000 C 
BRANCH  22  24
ATOM     23  C   UNL     1       1.695   2.413  21.857  0.00  0.00    +0.000 C 
ATOM     24  C   UNL     1       1.772   3.693  21.468  0.00  0.00    +0.000 C 
ENDBRANCH  22  24
ENDBRANCH   1  22
TORSDOF 6
ENDMDL
MODEL 3
REMARK VINA RESULT:      -7.2      2.556      5.329
REMARK  Name = 
REMARK  7 active torsions:
REMARK  status: ('A' for Active; 'I' for Inactive)
REMARK    1  A    between atoms: C_2  and  C_3
REMARK    2  A    between atoms: C_3  and  C_4
REMARK    3  A    between atoms: C_6  and  C_7
REMARK    4  A    between atoms: C_7  and  C_8
REMARK    5  A    between atoms: C_7  and  C_9
REMARK    6  A    between atoms: C_9  and  C_10
REMARK    7  A    between atoms: C_13  and  O_14
REMARK                            x       y       z     vdW  Elec       q    Type
REMARK                         _______ _______ _______ _____ _____    ______ ____
ROOT
ATOM      1  C   UNL     1       1.496   4.261  18.926  0.00  0.00    +0.000 C 
ATOM      2  C   UNL     1       2.036   4.950  17.613  0.00  0.00    +0.000 C 
ATOM      3  C   UNL     1       3.570   4.738  17.476  0.00  0.00    +0.000 C 
ATOM      4  O   UNL     1       4.233   4.710  16.209  0.00  0.00    +0.000 OA
ATOM      5  C   UNL     1       5.296   3.757  16.368  0.00  0.00    +0.000 C 
ATOM      6  O   UNL     1       4.765   2.617  17.006  0.00  0.00    +0.000 OA
ATOM      7  C   UNL     1       3.652   3.168  17.642  0.00  0.00    +0.000 C 
ATOM      8  C   UNL     1       2.627   2.317  17.889  0.00  0.00    +0.000 C 
ATOM      9  C   UNL     1       1.357   2.856  18.435  0.00  0.00    +0.000 C 
ATOM     10  O   UNL     1       0.331   2.197  18.474  0.00  0.00    +0.000 OA
ENDROOT
BRANCH   3  11
ATOM     11  C   UNL     1       4.090   6.152  18.040  0.00  0.00    +0.000 C 
ATOM     12  C   UNL     1       5.546   6.606  17.843  0.00  0.00    +0.000 C 
BRANCH  11  13
ATOM     13  C   UNL     1       3.147   7.447  17.703  0.00  0.00    +0.000 C 
BRANCH  13  14
ATOM     14  C   UNL     1       2.126   8.157  18.592  0.00  0.00    +0.000 A 
ATOM     15  C   UNL     1       1.921   7.854  19.947  0.00  0.00    +0.000 A 
ATOM     16  C   UNL     1       1.160   8.669  20.797  0.00  0.00    +0.000 A 
ATOM     17  C   UNL     1       0.641   9.856  20.317  0.00  0.00    +0.000 A 
ATOM     18  C   UNL     1       0.816  10.203  18.987  0.00  0.00    +0.000 A 
ATOM     19  C   UNL     1       1.549   9.360  18.134  0.00  0.00    +0.000 A 
BRANCH  17  20
ATOM     20  O   UNL     1      -0.000  10.731  21.144  0.00  0.00    +0.000 OA
ATOM     21  H   UNL     1      -0.334  10.235  21.910  0.00  0.00    +0.000 HD
ENDBRANCH  17  20
ENDBRANCH  13  14
ENDBRANCH  11  13
ENDBRANCH   3  11
BRANCH   1  22
ATOM     22  C   UNL     1       2.422   4.179  20.206  0.00  0.00    +0.000 C 
BRANCH  22  24
ATOM     23  C   UNL     1       1.676   2.425  21.900  0.00  0.00    +0.000 C 
ATOM     24  C   UNL     1       1.815   3.695  21.494  0.00  0.00    +0.000 C 
ENDBRANCH  22  24
ENDBRANCH   1  22
TORSDOF 6
ENDMDL
MODEL 4
REMARK VINA RESULT:      -7.2      1.457      1.827
REMARK  Name = 
REMARK  7 active torsions:
REMARK  status: ('A' for Active; 'I' for Inactive)
REMARK    1  A    between atoms: C_2  and  C_3
REMARK    2  A    between atoms: C_3  and  C_4
REMARK    3  A    between atoms: C_6  and  C_7
REMARK    4  A    between atoms: C_7  and  C_8
REMARK    5  A    between atoms: C_7  and  C_9
REMARK    6  A    between atoms: C_9  and  C_10
REMARK    7  A    between atoms: C_13  and  O_14
REMARK                            x       y       z     vdW  Elec       q    Type
REMARK                         _______ _______ _______ _____ _____    ______ ____
ROOT
ATOM      1  C   UNL     1       1.205   3.895  20.522  0.00  0.00    +0.000 C 
ATOM      2  C   UNL     1       1.100   2.904  19.298  0.00  0.00    +0.000 C 
ATOM      3  C   UNL     1       2.498   2.678  18.657  0.00  0.00    +0.000 C 
ATOM      4  O   UNL     1       2.843   1.474  17.965  0.00  0.00    +0.000 OA
ATOM      5  C   UNL     1       4.236   1.270  18.251  0.00  0.00    +0.000 C 
ATOM      6  O   UNL     1       4.430   1.469  19.632  0.00  0.00    +0.000 OA
ATOM      7  C   UNL     1       3.332   2.275  19.937  0.00  0.00    +0.000 C 
ATOM      8  C   UNL     1       2.891   2.219  21.217  0.00  0.00    +0.000 C 
ATOM      9  C   UNL     1       1.646   2.940  21.583  0.00  0.00    +0.000 C 
ATOM     10  O   UNL     1       1.074   2.756  22.645  0.00  0.00    +0.000 OA
ENDROOT
BRANCH   3  11
ATOM     11  C   UNL     1       2.395   3.700  17.417  0.00  0.00    +0.000 C 
ATOM     12  C   UNL     1       1.424   4.891  17.440  0.00  0.00    +0.000 C 
BRANCH  11  13
ATOM     13  C   UNL     1       3.817   4.267  16.838  0.00  0.00    +0.000 C 
BRANCH  13  14
ATOM     14  C   UNL     1       4.877   5.117  17.541  0.00  0.00    +0.000 A 
ATOM     15  C   UNL     1       5.520   4.742  18.730  0.00  0.00    +0.000 A 
ATOM     16  C   UNL     1       6.649   5.413  19.221  0.00  0.00    +0.000 A 
ATOM     17  C   UNL     1       7.204   6.442  18.486  0.00  0.00    +0.000 A 
ATOM     18  C   UNL     1       6.608   6.850  17.303  0.00  0.00    +0.000 A 
ATOM     19  C   UNL     1       5.455   6.195  16.837  0.00  0.00    +0.000 A 
BRANCH  17  20
ATOM     20  O   UNL     1       8.369   7.037  18.871  0.00  0.00    +0.000 OA
ATOM     21  H   UNL     1       8.681   6.596  19.679  0.00  0.00    +0.000 HD
ENDBRANCH  17  20
ENDBRANCH  13  14
ENDBRANCH  11  13
ENDBRANCH   3  11
BRANCH   1  22
ATOM     22  C   UNL     1       2.286   5.048  20.505  0.00  0.00    +0.000 C 
BRANCH  22  24
ATOM     23  C   UNL     1       2.180   7.482  19.751  0.00  0.00    +0.000 C 
ATOM     24  C   UNL     1       1.807   6.473  20.551  0.00  0.00    +0.000 C 
ENDBRANCH  22  24
ENDBRANCH   1  22
TORSDOF 6
ENDMDL
MODEL 5
REMARK VINA RESULT:      -7.1      2.518      5.357
REMARK  Name = 
REMARK  7 active torsions:
REMARK  status: ('A' for Active; 'I' for Inactive)
REMARK    1  A    between atoms: C_2  and  C_3
REMARK    2  A    between atoms: C_3  and  C_4
REMARK    3  A    between atoms: C_6  and  C_7
REMARK    4  A    between atoms: C_7  and  C_8
REMARK    5  A    between atoms: C_7  and  C_9
REMARK    6  A    between atoms: C_9  and  C_10
REMARK    7  A    between atoms: C_13  and  O_14
REMARK                            x       y       z     vdW  Elec       q    Type
REMARK                         _______ _______ _______ _____ _____    ______ ____
ROOT
ATOM      1  C   UNL     1       3.212   3.427  17.347  0.00  0.00    +0.000 C 
ATOM      2  C   UNL     1       4.577   4.008  16.808  0.00  0.00    +0.000 C 
ATOM      3  C   UNL     1       5.158   5.050  17.803  0.00  0.00    +0.000 C 
ATOM      4  O   UNL     1       6.560   5.308  17.917  0.00  0.00    +0.000 OA
ATOM      5  C   UNL     1       6.772   5.598  19.308  0.00  0.00    +0.000 C 
ATOM      6  O   UNL     1       6.085   4.626  20.063  0.00  0.00    +0.000 OA
ATOM      7  C   UNL     1       5.124   4.209  19.141  0.00  0.00    +0.000 C 
ATOM      8  C   UNL     1       4.651   2.949  19.304  0.00  0.00    +0.000 C 
ATOM      9  C   UNL     1       3.733   2.386  18.284  0.00  0.00    +0.000 C 
ATOM     10  O   UNL     1       3.447   1.200  18.247  0.00  0.00    +0.000 OA
ENDROOT
BRANCH   3  11
ATOM     11  C   UNL     1       4.675   6.407  17.087  0.00  0.00    +0.000 C 
ATOM     12  C   UNL     1       4.982   6.684  15.606  0.00  0.00    +0.000 C 
BRANCH  11  13
ATOM     13  C   UNL     1       3.110   6.824  17.324  0.00  0.00    +0.000 C 
BRANCH  13  14
ATOM     14  C   UNL     1       2.518   7.846  18.296  0.00  0.00    +0.000 A 
ATOM     15  C   UNL     1       1.939   9.060  17.899  0.00  0.00    +0.000 A 
ATOM     16  C   UNL     1       1.193   9.863  18.774  0.00  0.00    +0.000 A 
ATOM     17  C   UNL     1       0.952   9.425  20.062  0.00  0.00    +0.000 A 
ATOM     18  C   UNL     1       1.500   8.231  20.503  0.00  0.00    +0.000 A 
ATOM     19  C   UNL     1       2.276   7.451  19.629  0.00  0.00    +0.000 A 
BRANCH  17  20
ATOM     20  O   UNL     1       0.132  10.120  20.902  0.00  0.00    +0.000 OA
ATOM     21  H   UNL     1       0.541  10.131  21.783  0.00  0.00    +0.000 HD
ENDBRANCH  17  20
ENDBRANCH  13  14
ENDBRANCH  11  13
ENDBRANCH   3  11
BRANCH   1  22
ATOM     22  C   UNL     1       2.257   4.344  18.210  0.00  0.00    +0.000 C 
BRANCH  22  24
ATOM     23  C   UNL     1       1.061   3.750  20.384  0.00  0.00    +0.000 C 
ATOM     24  C   UNL     1       1.202   3.680  19.052  0.00  0.00    +0.000 C 
ENDBRANCH  22  24
ENDBRANCH   1  22
TORSDOF 6
ENDMDL
MODEL 6
REMARK VINA RESULT:      -7.1      1.281      1.701
REMARK  Name = 
REMARK  7 active torsions:
REMARK  status: ('A' for Active; 'I' for Inactive)
REMARK    1  A    between atoms: C_2  and  C_3
REMARK    2  A    between atoms: C_3  and  C_4
REMARK    3  A    between atoms: C_6  and  C_7
REMARK    4  A    between atoms: C_7  and  C_8
REMARK    5  A    between atoms: C_7  and  C_9
REMARK    6  A    between atoms: C_9  and  C_10
REMARK    7  A    between atoms: C_13  and  O_14
REMARK                            x       y       z     vdW  Elec       q    Type
REMARK                         _______ _______ _______ _____ _____    ______ ____
ROOT
ATOM      1  C   UNL     1       1.153   4.052  20.641  0.00  0.00    +0.000 C 
ATOM      2  C   UNL     1       0.978   3.212  19.317  0.00  0.00    +0.000 C 
ATOM      3  C   UNL     1       2.340   3.054  18.586  0.00  0.00    +0.000 C 
ATOM      4  O   UNL     1       2.637   1.937  17.743  0.00  0.00    +0.000 OA
ATOM      5  C   UNL     1       4.039   1.691  17.933  0.00  0.00    +0.000 C 
ATOM      6  O   UNL     1       4.301   1.726  19.317  0.00  0.00    +0.000 OA
ATOM      7  C   UNL     1       3.229   2.498  19.768  0.00  0.00    +0.000 C 
ATOM      8  C   UNL     1       2.849   2.295  21.053  0.00  0.00    +0.000 C 
ATOM      9  C   UNL     1       1.633   2.976  21.561  0.00  0.00    +0.000 C 
ATOM     10  O   UNL     1       1.110   2.673  22.621  0.00  0.00    +0.000 OA
ENDROOT
BRANCH   3  11
ATOM     11  C   UNL     1       2.191   4.214  17.481  0.00  0.00    +0.000 C 
ATOM     12  C   UNL     1       0.839   4.898  17.215  0.00  0.00    +0.000 C 
BRANCH  11  13
ATOM     13  C   UNL     1       3.313   5.404  17.537  0.00  0.00    +0.000 C 
BRANCH  13  14
ATOM     14  C   UNL     1       4.835   5.294  17.637  0.00  0.00    +0.000 A 
ATOM     15  C   UNL     1       5.547   5.336  18.846  0.00  0.00    +0.000 A 
ATOM     16  C   UNL     1       6.903   4.994  18.936  0.00  0.00    +0.000 A 
ATOM     17  C   UNL     1       7.565   4.531  17.815  0.00  0.00    +0.000 A 
ATOM     18  C   UNL     1       6.907   4.469  16.597  0.00  0.00    +0.000 A 
ATOM     19  C   UNL     1       5.557   4.849  16.509  0.00  0.00    +0.000 A 
BRANCH  17  20
ATOM     20  O   UNL     1       8.848   4.075  17.891  0.00  0.00    +0.000 OA
ATOM     21  H   UNL     1       8.831   3.183  18.275  0.00  0.00    +0.000 HD
ENDBRANCH  17  20
ENDBRANCH  13  14
ENDBRANCH  11  13
ENDBRANCH   3  11
BRANCH   1  22
ATOM     22  C   UNL     1       2.246   5.192  20.707  0.00  0.00    +0.000 C 
BRANCH  22  24
ATOM     23  C   UNL     1       0.908   7.323  21.121  0.00  0.00    +0.000 C 
ATOM     24  C   UNL     1       1.815   6.608  20.441  0.00  0.00    +0.000 C 
ENDBRANCH  22  24
ENDBRANCH   1  22
TORSDOF 6
ENDMDL
MODEL 7
REMARK VINA RESULT:      -7.1      0.244      1.020
REMARK  Name = 
REMARK  7 active torsions:
REMARK  status: ('A' for Active; 'I' for Inactive)
REMARK    1  A    between atoms: C_2  and  C_3
REMARK    2  A    between atoms: C_3  and  C_4
REMARK    3  A    between atoms: C_6  and  C_7
REMARK    4  A    between atoms: C_7  and  C_8
REMARK    5  A    between atoms: C_7  and  C_9
REMARK    6  A    between atoms: C_9  and  C_10
REMARK    7  A    between atoms: C_13  and  O_14
REMARK                            x       y       z     vdW  Elec       q    Type
REMARK                         _______ _______ _______ _____ _____    ______ ____
ROOT
ATOM      1  C   UNL     1       1.080   3.732  20.694  0.00  0.00    +0.000 C 
ATOM      2  C   UNL     1       1.144   2.801  19.422  0.00  0.00    +0.000 C 
ATOM      3  C   UNL     1       2.600   2.709  18.886  0.00  0.00    +0.000 C 
ATOM      4  O   UNL     1       3.087   1.570  18.171  0.00  0.00    +0.000 OA
ATOM      5  C   UNL     1       4.465   1.450  18.557  0.00  0.00    +0.000 C 
ATOM      6  O   UNL     1       4.537   1.592  19.958  0.00  0.00    +0.000 OA
ATOM      7  C   UNL     1       3.361   2.301  20.210  0.00  0.00    +0.000 C 
ATOM      8  C   UNL     1       2.827   2.148  21.446  0.00  0.00    +0.000 C 
ATOM      9  C   UNL     1       1.508   2.758  21.742  0.00  0.00    +0.000 C 
ATOM     10  O   UNL     1       0.871   2.480  22.746  0.00  0.00    +0.000 OA
ENDROOT
BRANCH   3  11
ATOM     11  C   UNL     1       2.517   3.783  17.690  0.00  0.00    +0.000 C 
ATOM     12  C   UNL     1       1.195   4.483  17.333  0.00  0.00    +0.000 C 
BRANCH  11  13
ATOM     13  C   UNL     1       3.674   4.941  17.687  0.00  0.00    +0.000 C 
BRANCH  13  14
ATOM     14  C   UNL     1       4.753   5.226  16.641  0.00  0.00    +0.000 A 
ATOM     15  C   UNL     1       5.763   6.187  16.799  0.00  0.00    +0.000 A 
ATOM     16  C   UNL     1       6.872   6.265  15.945  0.00  0.00    +0.000 A 
ATOM     17  C   UNL     1       7.028   5.325  14.945  0.00  0.00    +0.000 A 
ATOM     18  C   UNL     1       6.060   4.353  14.748  0.00  0.00    +0.000 A 
ATOM     19  C   UNL     1       4.933   4.306  15.586  0.00  0.00    +0.000 A 
BRANCH  17  20
ATOM     20  O   UNL     1       8.152   5.295  14.173  0.00  0.00    +0.000 OA
ATOM     21  H   UNL     1       8.925   5.305  14.763  0.00  0.00    +0.000 HD
ENDBRANCH  17  20
ENDBRANCH  13  14
ENDBRANCH  11  13
ENDBRANCH   3  11
BRANCH   1  22
ATOM     22  C   UNL     1       2.069   4.960  20.818  0.00  0.00    +0.000 C 
BRANCH  22  24
ATOM     23  C   UNL     1       2.098   7.390  20.046  0.00  0.00    +0.000 C 
ATOM     24  C   UNL     1       1.510   6.345  20.646  0.00  0.00    +0.000 C 
ENDBRANCH  22  24
ENDBRANCH   1  22
TORSDOF 6
ENDMDL
MODEL 8
REMARK VINA RESULT:      -7.0      2.786      6.737
REMARK  Name = 
REMARK  7 active torsions:
REMARK  status: ('A' for Active; 'I' for Inactive)
REMARK    1  A    between atoms: C_2  and  C_3
REMARK    2  A    between atoms: C_3  and  C_4
REMARK    3  A    between atoms: C_6  and  C_7
REMARK    4  A    between atoms: C_7  and  C_8
REMARK    5  A    between atoms: C_7  and  C_9
REMARK    6  A    between atoms: C_9  and  C_10
REMARK    7  A    between atoms: C_13  and  O_14
REMARK                            x       y       z     vdW  Elec       q    Type
REMARK                         _______ _______ _______ _____ _____    ______ ____
ROOT
ATOM      1  C   UNL     1       5.653   5.490  14.868  0.00  0.00    +0.000 C 
ATOM      2  C   UNL     1       5.228   6.291  16.160  0.00  0.00    +0.000 C 
ATOM      3  C   UNL     1       5.059   5.329  17.368  0.00  0.00    +0.000 C 
ATOM      4  O   UNL     1       5.253   5.749  18.722  0.00  0.00    +0.000 OA
ATOM      5  C   UNL     1       5.813   4.607  19.388  0.00  0.00    +0.000 C 
ATOM      6  O   UNL     1       6.835   4.084  18.570  0.00  0.00    +0.000 OA
ATOM      7  C   UNL     1       6.445   4.572  17.321  0.00  0.00    +0.000 C 
ATOM      8  C   UNL     1       7.436   4.736  16.412  0.00  0.00    +0.000 C 
ATOM      9  C   UNL     1       7.123   5.379  15.112  0.00  0.00    +0.000 C 
ATOM     10  O   UNL     1       7.993   5.757  14.344  0.00  0.00    +0.000 OA
ENDROOT
BRANCH   3  11
ATOM     11  C   UNL     1       3.459   5.153  17.351  0.00  0.00    +0.000 C 
ATOM     12  C   UNL     1       2.807   3.772  17.170  0.00  0.00    +0.000 C 
BRANCH  11  13
ATOM     13  C   UNL     1       2.644   5.899  18.559  0.00  0.00    +0.000 C 
BRANCH  13  14
ATOM     14  C   UNL     1       2.332   7.385  18.741  0.00  0.00    +0.000 A 
ATOM     15  C   UNL     1       2.294   8.312  17.689  0.00  0.00    +0.000 A 
ATOM     16  C   UNL     1       1.774   9.606  17.841  0.00  0.00    +0.000 A 
ATOM     17  C   UNL     1       1.213   9.977  19.047  0.00  0.00    +0.000 A 
ATOM     18  C   UNL     1       1.224   9.097  20.118  0.00  0.00    +0.000 A 
ATOM     19  C   UNL     1       1.780   7.815  19.966  0.00  0.00    +0.000 A 
BRANCH  17  20
ATOM     20  O   UNL     1       0.590  11.181  19.195  0.00  0.00    +0.000 OA
ATOM     21  H   UNL     1       1.080  11.696  19.859  0.00  0.00    +0.000 HD
ENDBRANCH  17  20
ENDBRANCH  13  14
ENDBRANCH  11  13
ENDBRANCH   3  11
BRANCH   1  22
ATOM     22  C   UNL     1       5.138   4.010  14.660  0.00  0.00    +0.000 C 
BRANCH  22  24
ATOM     23  C   UNL     1       5.165   3.388  12.187  0.00  0.00    +0.000 C 
ATOM     24  C   UNL     1       5.607   3.257  13.445  0.00  0.00    +0.000 C 
ENDBRANCH  22  24
ENDBRANCH   1  22
TORSDOF 6
ENDMDL
MODEL 9
REMARK VINA RESULT:      -6.9      2.836      6.474
REMARK  Name = 
REMARK  7 active torsions:
REMARK  status: ('A' for Active; 'I' for Inactive)
REMARK    1  A    between atoms: C_2  and  C_3
REMARK    2  A    between atoms: C_3  and  C_4
REMARK    3  A    between atoms: C_6  and  C_7
REMARK    4  A    between atoms: C_7  and  C_8
REMARK    5  A    between atoms: C_7  and  C_9
REMARK    6  A    between atoms: C_9  and  C_10
REMARK    7  A    between atoms: C_13  and  O_14
REMARK                            x       y       z     vdW  Elec       q    Type
REMARK                         _______ _______ _______ _____ _____    ______ ____
ROOT
ATOM      1  C   UNL     1       5.440   6.107  15.925  0.00  0.00    +0.000 C 
ATOM      2  C   UNL     1       4.809   6.609  17.282  0.00  0.00    +0.000 C 
ATOM      3  C   UNL     1       4.360   5.404  18.155  0.00  0.00    +0.000 C 
ATOM      4  O   UNL     1       4.306   5.465  19.583  0.00  0.00    +0.000 OA
ATOM      5  C   UNL     1       4.670   4.147  20.025  0.00  0.00    +0.000 C 
ATOM      6  O   UNL     1       5.806   3.744  19.295  0.00  0.00    +0.000 OA
ATOM      7  C   UNL     1       5.692   4.553  18.164  0.00  0.00    +0.000 C 
ATOM      8  C   UNL     1       6.849   4.836  17.516  0.00  0.00    +0.000 C 
ATOM      9  C   UNL     1       6.826   5.801  16.389  0.00  0.00    +0.000 C 
ATOM     10  O   UNL     1       7.847   6.269  15.910  0.00  0.00    +0.000 OA
ENDROOT
BRANCH   3  11
ATOM     11  C   UNL     1       2.789   5.390  17.809  0.00  0.00    +0.000 C 
ATOM     12  C   UNL     1       2.033   4.072  17.572  0.00  0.00    +0.000 C 
BRANCH  11  13
ATOM     13  C   UNL     1       1.836   6.307  18.774  0.00  0.00    +0.000 C 
BRANCH  13  14
ATOM     14  C   UNL     1       1.799   7.827  18.932  0.00  0.00    +0.000 A 
ATOM     15  C   UNL     1       1.915   8.730  17.864  0.00  0.00    +0.000 A 
ATOM     16  C   UNL     1       1.638  10.098  17.997  0.00  0.00    +0.000 A 
ATOM     17  C   UNL     1       1.168  10.583  19.202  0.00  0.00    +0.000 A 
ATOM     18  C   UNL     1       1.034   9.733  20.288  0.00  0.00    +0.000 A 
ATOM     19  C   UNL     1       1.349   8.370  20.154  0.00  0.00    +0.000 A 
BRANCH  17  20
ATOM     20  O   UNL     1       0.774  11.882  19.334  0.00  0.00    +0.000 OA
ATOM     21  H   UNL     1       0.969  12.344  18.501  0.00  0.00    +0.000 HD
ENDBRANCH  17  20
ENDBRANCH  13  14
ENDBRANCH  11  13
ENDBRANCH   3  11
BRANCH   1  22
ATOM     22  C   UNL     1       4.906   4.776  15.258  0.00  0.00    +0.000 C 
BRANCH  22  24
ATOM     23  C   UNL     1       5.854   3.788  13.107  0.00  0.00    +0.000 C 
ATOM     24  C   UNL     1       5.863   3.958  14.437  0.00  0.00    +0.000 C 
ENDBRANCH  22  24
ENDBRANCH   1  22
TORSDOF 6
ENDMDL
