MODEL 1
REMARK VINA RESULT:      -7.0      0.000      0.000
REMARK  Name = 
REMARK  3 active torsions:
REMARK  status: ('A' for Active; 'I' for Inactive)
REMARK    1  A    between atoms: S_2  and  C_4
REMARK    2  A    between atoms: S_2  and  C_12
REMARK    3  A    between atoms: C_5  and  C_6
REMARK                            x       y       z     vdW  Elec       q    Type
REMARK                         _______ _______ _______ _____ _____    ______ ____
ROOT
ATOM      1  O   UNL     1       6.603   6.554  16.017  0.00  0.00    +0.000 OA
ATOM      2  S   UNL     1       6.742   5.111  16.046  0.00  0.00    +0.000 S 
ATOM      3  O   UNL     1       7.966   4.511  16.548  0.00  0.00    +0.000 OA
ENDROOT
BRANCH   2   4
ATOM      4  C   UNL     1       6.534   4.545  14.387  0.00  0.00    +0.000 A 
ATOM      5  C   UNL     1       5.445   3.733  14.051  0.00  0.00    +0.000 A 
ATOM      6  C   UNL     1       5.301   3.287  12.736  0.00  0.00    +0.000 A 
ATOM      7  C   UNL     1       6.243   3.644  11.769  0.00  0.00    +0.000 A 
ATOM      8  C   UNL     1       7.331   4.449  12.116  0.00  0.00    +0.000 A 
ATOM      9  C   UNL     1       7.471   4.897  13.426  0.00  0.00    +0.000 A 
ATOM     10  F   UNL     1       8.513   5.682  13.729  0.00  0.00    +0.000 F 
ENDBRANCH   2   4
BRANCH   2  11
ATOM     11  C   UNL     1       5.404   4.425  16.911  0.00  0.00    +0.000 C 
ATOM     12  C   UNL     1       4.585   5.210  17.627  0.00  0.00    +0.000 C 
BRANCH  12  13
ATOM     13  C   UNL     1       3.382   4.711  18.311  0.00  0.00    +0.000 A 
ATOM     14  C   UNL     1       2.357   4.022  17.653  0.00  0.00    +0.000 A 
ATOM     15  C   UNL     1       1.230   3.606  18.361  0.00  0.00    +0.000 A 
ATOM     16  C   UNL     1       1.169   3.871  19.718  0.00  0.00    +0.000 A 
ATOM     17  N   UNL     1       2.149   4.499  20.401  0.00  0.00    +0.000 NA
ATOM     18  C   UNL     1       3.227   4.900  19.684  0.00  0.00    +0.000 A 
ENDBRANCH  12  13
ENDBRANCH   2  11
TORSDOF 3
ENDMDL
MODEL 2
REMARK VINA RESULT:      -6.9      3.410      6.685
REMARK  Name = 
REMARK  3 active torsions:
REMARK  status: ('A' for Active; 'I' for Inactive)
REMARK    1  A    between atoms: S_2  and  C_4
REMARK    2  A    between atoms: S_2  and  C_12
REMARK    3  A    between atoms: C_5  and  C_6
REMARK                            x       y       z     vdW  Elec       q    Type
REMARK                         _______ _______ _______ _____ _____    ______ ____
ROOT
ATOM      1  O   UNL     1       5.742   4.538  19.374  0.00  0.00    +0.000 OA
ATOM      2  S   UNL     1       4.781   4.911  18.354  0.00  0.00    +0.000 S 
ATOM      3  O   UNL     1       4.419   6.307  18.176  0.00  0.00    +0.000 OA
ENDROOT
BRANCH   2   4
ATOM      4  C   UNL     1       3.292   4.033  18.708  0.00  0.00    +0.000 A 
ATOM      5  C   UNL     1       2.905   2.950  17.912  0.00  0.00    +0.000 A 
ATOM      6  C   UNL     1       1.719   2.273  18.202  0.00  0.00    +0.000 A 
ATOM      7  C   UNL     1       0.924   2.682  19.275  0.00  0.00    +0.000 A 
ATOM      8  C   UNL     1       1.315   3.769  20.060  0.00  0.00    +0.000 A 
ATOM      9  C   UNL     1       2.500   4.441  19.773  0.00  0.00    +0.000 A 
ATOM     10  F   UNL     1       2.861   5.469  20.552  0.00  0.00    +0.000 F 
ENDBRANCH   2   4
BRANCH   2  11
ATOM     11  C   UNL     1       5.301   4.284  16.822  0.00  0.00    +0.000 C 
ATOM     12  C   UNL     1       5.408   5.095  15.759  0.00  0.00    +0.000 C 
BRANCH  12  13
ATOM     13  C   UNL     1       5.926   4.653  14.455  0.00  0.00    +0.000 A 
ATOM     14  C   UNL     1       5.237   3.770  13.616  0.00  0.00    +0.000 A 
ATOM     15  C   UNL     1       5.806   3.370  12.407  0.00  0.00    +0.000 A 
ATOM     16  C   UNL     1       7.042   3.885  12.058  0.00  0.00    +0.000 A 
ATOM     17  N   UNL     1       7.726   4.765  12.818  0.00  0.00    +0.000 NA
ATOM     18  C   UNL     1       7.153   5.128  13.991  0.00  0.00    +0.000 A 
ENDBRANCH  12  13
ENDBRANCH   2  11
TORSDOF 3
ENDMDL
MODEL 3
REMARK VINA RESULT:      -6.9      1.012      1.255
REMARK  Name = 
REMARK  3 active torsions:
REMARK  status: ('A' for Active; 'I' for Inactive)
REMARK    1  A    between atoms: S_2  and  C_4
REMARK    2  A    between atoms: S_2  and  C_12
REMARK    3  A    between atoms: C_5  and  C_6
REMARK                            x       y       z     vdW  Elec       q    Type
REMARK                         _______ _______ _______ _____ _____    ______ ____
ROOT
ATOM      1  O   UNL     1       6.258   6.380  15.920  0.00  0.00    +0.000 OA
ATOM      2  S   UNL     1       6.609   4.974  15.878  0.00  0.00    +0.000 S 
ATOM      3  O   UNL     1       7.884   4.529  16.414  0.00  0.00    +0.000 OA
ENDROOT
BRANCH   2   4
ATOM      4  C   UNL     1       6.565   4.487  14.182  0.00  0.00    +0.000 A 
ATOM      5  C   UNL     1       5.567   3.621  13.722  0.00  0.00    +0.000 A 
ATOM      6  C   UNL     1       5.553   3.240  12.380  0.00  0.00    +0.000 A 
ATOM      7  C   UNL     1       6.535   3.714  11.507  0.00  0.00    +0.000 A 
ATOM      8  C   UNL     1       7.533   4.572  11.977  0.00  0.00    +0.000 A 
ATOM      9  C   UNL     1       7.543   4.955  13.315  0.00  0.00    +0.000 A 
ATOM     10  F   UNL     1       8.499   5.793  13.737  0.00  0.00    +0.000 F 
ENDBRANCH   2   4
BRANCH   2  11
ATOM     11  C   UNL     1       5.350   4.046  16.629  0.00  0.00    +0.000 C 
ATOM     12  C   UNL     1       4.550   4.608  17.548  0.00  0.00    +0.000 C 
BRANCH  12  13
ATOM     13  C   UNL     1       3.408   3.911  18.159  0.00  0.00    +0.000 A 
ATOM     14  C   UNL     1       3.504   3.180  19.349  0.00  0.00    +0.000 A 
ATOM     15  C   UNL     1       2.385   2.518  19.853  0.00  0.00    +0.000 A 
ATOM     16  C   UNL     1       1.190   2.624  19.164  0.00  0.00    +0.000 A 
ATOM     17  N   UNL     1       1.042   3.346  18.033  0.00  0.00    +0.000 NA
ATOM     18  C   UNL     1       2.149   3.970  17.562  0.00  0.00    +0.000 A 
ENDBRANCH  12  13
ENDBRANCH   2  11
TORSDOF 3
ENDMDL
MODEL 4
REMARK VINA RESULT:      -6.9      3.509      4.308
REMARK  Name = 
REMARK  3 active torsions:
REMARK  status: ('A' for Active; 'I' for Inactive)
REMARK    1  A    between atoms: S_2  and  C_4
REMARK    2  A    between atoms: S_2  and  C_12
REMARK    3  A    between atoms: C_5  and  C_6
REMARK                            x       y       z     vdW  Elec       q    Type
REMARK                         _______ _______ _______ _____ _____    ______ ____
ROOT
ATOM      1  O   UNL     1       4.792   3.085  19.865  0.00  0.00    +0.000 OA
ATOM      2  S   UNL     1       4.043   3.667  18.769  0.00  0.00    +0.000 S 
ATOM      3  O   UNL     1       2.997   2.896  18.118  0.00  0.00    +0.000 OA
ENDROOT
BRANCH   2   4
ATOM      4  C   UNL     1       5.214   4.102  17.523  0.00  0.00    +0.000 A 
ATOM      5  C   UNL     1       4.966   3.788  16.182  0.00  0.00    +0.000 A 
ATOM      6  C   UNL     1       5.907   4.133  15.211  0.00  0.00    +0.000 A 
ATOM      7  C   UNL     1       7.090   4.779  15.580  0.00  0.00    +0.000 A 
ATOM      8  C   UNL     1       7.331   5.082  16.922  0.00  0.00    +0.000 A 
ATOM      9  C   UNL     1       6.390   4.742  17.889  0.00  0.00    +0.000 A 
ATOM     10  F   UNL     1       6.637   5.059  19.167  0.00  0.00    +0.000 F 
ENDBRANCH   2   4
BRANCH   2  11
ATOM     11  C   UNL     1       3.366   5.181  19.279  0.00  0.00    +0.000 C 
ATOM     12  C   UNL     1       3.001   6.099  18.372  0.00  0.00    +0.000 C 
BRANCH  12  13
ATOM     13  C   UNL     1       2.340   7.365  18.726  0.00  0.00    +0.000 A 
ATOM     14  C   UNL     1       2.109   8.393  17.804  0.00  0.00    +0.000 A 
ATOM     15  C   UNL     1       1.505   9.579  18.219  0.00  0.00    +0.000 A 
ATOM     16  C   UNL     1       1.126   9.696  19.545  0.00  0.00    +0.000 A 
ATOM     17  N   UNL     1       1.295   8.719  20.460  0.00  0.00    +0.000 NA
ATOM     18  C   UNL     1       1.893   7.582  20.029  0.00  0.00    +0.000 A 
ENDBRANCH  12  13
ENDBRANCH   2  11
TORSDOF 3
ENDMDL
MODEL 5
REMARK VINA RESULT:      -6.9      3.230      6.669
REMARK  Name = 
REMARK  3 active torsions:
REMARK  status: ('A' for Active; 'I' for Inactive)
REMARK    1  A    between atoms: S_2  and  C_4
REMARK    2  A    between atoms: S_2  and  C_12
REMARK    3  A    between atoms: C_5  and  C_6
REMARK                            x       y       z     vdW  Elec       q    Type
REMARK                         _______ _______ _______ _____ _____    ______ ____
ROOT
ATOM      1  O   UNL     1       5.804   3.868  19.256  0.00  0.00    +0.000 OA
ATOM      2  S   UNL     1       4.818   4.580  18.467  0.00  0.00    +0.000 S 
ATOM      3  O   UNL     1       4.694   6.022  18.593  0.00  0.00    +0.000 OA
ENDROOT
BRANCH   2   4
ATOM      4  C   UNL     1       3.244   3.891  18.872  0.00  0.00    +0.000 A 
ATOM      5  C   UNL     1       2.306   4.646  19.585  0.00  0.00    +0.000 A 
ATOM      6  C   UNL     1       1.070   4.082  19.904  0.00  0.00    +0.000 A 
ATOM      7  C   UNL     1       0.779   2.771  19.520  0.00  0.00    +0.000 A 
ATOM      8  C   UNL     1       1.724   2.022  18.815  0.00  0.00    +0.000 A 
ATOM      9  C   UNL     1       2.955   2.587  18.493  0.00  0.00    +0.000 A 
ATOM     10  F   UNL     1       3.838   1.855  17.801  0.00  0.00    +0.000 F 
ENDBRANCH   2   4
BRANCH   2  11
ATOM     11  C   UNL     1       5.041   4.197  16.790  0.00  0.00    +0.000 C 
ATOM     12  C   UNL     1       5.906   4.899  16.043  0.00  0.00    +0.000 C 
BRANCH  12  13
ATOM     13  C   UNL     1       6.212   4.575  14.642  0.00  0.00    +0.000 A 
ATOM     14  C   UNL     1       5.416   3.732  13.859  0.00  0.00    +0.000 A 
ATOM     15  C   UNL     1       5.786   3.444  12.545  0.00  0.00    +0.000 A 
ATOM     16  C   UNL     1       6.935   4.028  12.041  0.00  0.00    +0.000 A 
ATOM     17  N   UNL     1       7.713   4.875  12.746  0.00  0.00    +0.000 NA
ATOM     18  C   UNL     1       7.333   5.128  14.023  0.00  0.00    +0.000 A 
ENDBRANCH  12  13
ENDBRANCH   2  11
TORSDOF 3
ENDMDL
MODEL 6
REMARK VINA RESULT:      -6.8      2.892      4.099
REMARK  Name = 
REMARK  3 active torsions:
REMARK  status: ('A' for Active; 'I' for Inactive)
REMARK    1  A    between atoms: S_2  and  C_4
REMARK    2  A    between atoms: S_2  and  C_12
REMARK    3  A    between atoms: C_5  and  C_6
REMARK                            x       y       z     vdW  Elec       q    Type
REMARK                         _______ _______ _______ _____ _____    ______ ____
ROOT
ATOM      1  O   UNL     1       6.798   4.075  15.283  0.00  0.00    +0.000 OA
ATOM      2  S   UNL     1       5.909   5.076  15.839  0.00  0.00    +0.000 S 
ATOM      3  O   UNL     1       5.264   6.039  14.963  0.00  0.00    +0.000 OA
ENDROOT
BRANCH   2   4
ATOM      4  C   UNL     1       6.849   5.999  17.014  0.00  0.00    +0.000 A 
ATOM      5  C   UNL     1       7.109   7.357  16.799  0.00  0.00    +0.000 A 
ATOM      6  C   UNL     1       7.861   8.069  17.734  0.00  0.00    +0.000 A 
ATOM      7  C   UNL     1       8.356   7.425  18.871  0.00  0.00    +0.000 A 
ATOM      8  C   UNL     1       8.098   6.068  19.073  0.00  0.00    +0.000 A 
ATOM      9  C   UNL     1       7.344   5.359  18.142  0.00  0.00    +0.000 A 
ATOM     10  F   UNL     1       7.095   4.063  18.368  0.00  0.00    +0.000 F 
ENDBRANCH   2   4
BRANCH   2  11
ATOM     11  C   UNL     1       4.683   4.292  16.783  0.00  0.00    +0.000 C 
ATOM     12  C   UNL     1       3.854   5.014  17.552  0.00  0.00    +0.000 C 
BRANCH  12  13
ATOM     13  C   UNL     1       2.737   4.428  18.307  0.00  0.00    +0.000 A 
ATOM     14  C   UNL     1       2.294   4.932  19.535  0.00  0.00    +0.000 A 
ATOM     15  C   UNL     1       1.248   4.303  20.211  0.00  0.00    +0.000 A 
ATOM     16  C   UNL     1       0.656   3.198  19.626  0.00  0.00    +0.000 A 
ATOM     17  N   UNL     1       1.025   2.699  18.428  0.00  0.00    +0.000 NA
ATOM     18  C   UNL     1       2.050   3.325  17.800  0.00  0.00    +0.000 A 
ENDBRANCH  12  13
ENDBRANCH   2  11
TORSDOF 3
ENDMDL
MODEL 7
REMARK VINA RESULT:      -6.7      3.233      6.318
REMARK  Name = 
REMARK  3 active torsions:
REMARK  status: ('A' for Active; 'I' for Inactive)
REMARK    1  A    between atoms: S_2  and  C_4
REMARK    2  A    between atoms: S_2  and  C_12
REMARK    3  A    between atoms: C_5  and  C_6
REMARK                            x       y       z     vdW  Elec       q    Type
REMARK                         _______ _______ _______ _____ _____    ______ ____
ROOT
ATOM      1  O   UNL     1       5.998   4.810  19.446  0.00  0.00    +0.000 OA
ATOM      2  S   UNL     1       5.138   5.165  18.334  0.00  0.00    +0.000 S 
ATOM      3  O   UNL     1       4.612   6.515  18.228  0.00  0.00    +0.000 OA
ENDROOT
BRANCH   2   4
ATOM      4  C   UNL     1       3.752   4.074  18.391  0.00  0.00    +0.000 A 
ATOM      5  C   UNL     1       3.926   2.729  18.734  0.00  0.00    +0.000 A 
ATOM      6  C   UNL     1       2.820   1.879  18.767  0.00  0.00    +0.000 A 
ATOM      7  C   UNL     1       1.551   2.370  18.450  0.00  0.00    +0.000 A 
ATOM      8  C   UNL     1       1.387   3.713  18.101  0.00  0.00    +0.000 A 
ATOM      9  C   UNL     1       2.491   4.561  18.074  0.00  0.00    +0.000 A 
ATOM     10  F   UNL     1       2.305   5.848  17.754  0.00  0.00    +0.000 F 
ENDBRANCH   2   4
BRANCH   2  11
ATOM     11  C   UNL     1       5.938   4.773  16.845  0.00  0.00    +0.000 C 
ATOM     12  C   UNL     1       5.235   4.660  15.707  0.00  0.00    +0.000 C 
BRANCH  12  13
ATOM     13  C   UNL     1       5.856   4.420  14.396  0.00  0.00    +0.000 A 
ATOM     14  C   UNL     1       5.296   3.582  13.425  0.00  0.00    +0.000 A 
ATOM     15  C   UNL     1       5.957   3.376  12.215  0.00  0.00    +0.000 A 
ATOM     16  C   UNL     1       7.154   4.036  11.998  0.00  0.00    +0.000 A 
ATOM     17  N   UNL     1       7.714   4.880  12.889  0.00  0.00    +0.000 NA
ATOM     18  C   UNL     1       7.052   5.053  14.060  0.00  0.00    +0.000 A 
ENDBRANCH  12  13
ENDBRANCH   2  11
TORSDOF 3
ENDMDL
MODEL 8
REMARK VINA RESULT:      -6.7      3.809      6.970
REMARK  Name = 
REMARK  3 active torsions:
REMARK  status: ('A' for Active; 'I' for Inactive)
REMARK    1  A    between atoms: S_2  and  C_4
REMARK    2  A    between atoms: S_2  and  C_12
REMARK    3  A    between atoms: C_5  and  C_6
REMARK                            x       y       z     vdW  Elec       q    Type
REMARK                         _______ _______ _______ _____ _____    ______ ____
ROOT
ATOM      1  O   UNL     1       2.858   2.829  18.004  0.00  0.00    +0.000 OA
ATOM      2  S   UNL     1       3.907   3.811  18.198  0.00  0.00    +0.000 S 
ATOM      3  O   UNL     1       5.032   3.506  19.066  0.00  0.00    +0.000 OA
ENDROOT
BRANCH   2   4
ATOM      4  C   UNL     1       3.137   5.262  18.843  0.00  0.00    +0.000 A 
ATOM      5  C   UNL     1       3.133   6.447  18.099  0.00  0.00    +0.000 A 
ATOM      6  C   UNL     1       2.526   7.588  18.628  0.00  0.00    +0.000 A 
ATOM      7  C   UNL     1       1.937   7.544  19.894  0.00  0.00    +0.000 A 
ATOM      8  C   UNL     1       1.953   6.358  20.632  0.00  0.00    +0.000 A 
ATOM      9  C   UNL     1       2.554   5.220  20.101  0.00  0.00    +0.000 A 
ATOM     10  F   UNL     1       2.540   4.090  20.821  0.00  0.00    +0.000 F 
ENDBRANCH   2   4
BRANCH   2  11
ATOM     11  C   UNL     1       4.529   4.298  16.653  0.00  0.00    +0.000 C 
ATOM     12  C   UNL     1       5.741   3.888  16.250  0.00  0.00    +0.000 C 
BRANCH  12  13
ATOM     13  C   UNL     1       6.293   4.186  14.920  0.00  0.00    +0.000 A 
ATOM     14  C   UNL     1       5.853   3.560  13.749  0.00  0.00    +0.000 A 
ATOM     15  C   UNL     1       6.446   3.871  12.526  0.00  0.00    +0.000 A 
ATOM     16  C   UNL     1       7.451   4.822  12.504  0.00  0.00    +0.000 A 
ATOM     17  N   UNL     1       7.883   5.478  13.601  0.00  0.00    +0.000 NA
ATOM     18  C   UNL     1       7.294   5.147  14.777  0.00  0.00    +0.000 A 
ENDBRANCH  12  13
ENDBRANCH   2  11
TORSDOF 3
ENDMDL
MODEL 9
REMARK VINA RESULT:      -6.6      3.938      5.128
REMARK  Name = 
REMARK  3 active torsions:
REMARK  status: ('A' for Active; 'I' for Inactive)
REMARK    1  A    between atoms: S_2  and  C_4
REMARK    2  A    between atoms: S_2  and  C_12
REMARK    3  A    between atoms: C_5  and  C_6
REMARK                            x       y       z     vdW  Elec       q    Type
REMARK                         _______ _______ _______ _____ _____    ______ ____
ROOT
ATOM      1  O   UNL     1       3.811   3.943  19.290  0.00  0.00    +0.000 OA
ATOM      2  S   UNL     1       3.944   4.747  18.091  0.00  0.00    +0.000 S 
ATOM      3  O   UNL     1       3.873   4.117  16.784  0.00  0.00    +0.000 OA
ENDROOT
BRANCH   2   4
ATOM      4  C   UNL     1       5.510   5.555  18.189  0.00  0.00    +0.000 A 
ATOM      5  C   UNL     1       6.415   5.219  19.201  0.00  0.00    +0.000 A 
ATOM      6  C   UNL     1       7.646   5.874  19.268  0.00  0.00    +0.000 A 
ATOM      7  C   UNL     1       7.963   6.863  18.334  0.00  0.00    +0.000 A 
ATOM      8  C   UNL     1       7.050   7.197  17.331  0.00  0.00    +0.000 A 
ATOM      9  C   UNL     1       5.825   6.540  17.262  0.00  0.00    +0.000 A 
ATOM     10  F   UNL     1       4.974   6.865  16.280  0.00  0.00    +0.000 F 
ENDBRANCH   2   4
BRANCH   2  11
ATOM     11  C   UNL     1       2.785   6.038  18.137  0.00  0.00    +0.000 C 
ATOM     12  C   UNL     1       2.801   6.929  19.140  0.00  0.00    +0.000 C 
BRANCH  12  13
ATOM     13  C   UNL     1       1.910   8.097  19.196  0.00  0.00    +0.000 A 
ATOM     14  C   UNL     1       1.577   8.862  18.073  0.00  0.00    +0.000 A 
ATOM     15  C   UNL     1       0.749   9.977  18.208  0.00  0.00    +0.000 A 
ATOM     16  C   UNL     1       0.257  10.283  19.464  0.00  0.00    +0.000 A 
ATOM     17  N   UNL     1       0.522   9.554  20.569  0.00  0.00    +0.000 NA
ATOM     18  C   UNL     1       1.336   8.483  20.408  0.00  0.00    +0.000 A 
ENDBRANCH  12  13
ENDBRANCH   2  11
TORSDOF 3
ENDMDL
