MODEL 1
REMARK VINA RESULT:      -6.4      0.000      0.000
REMARK  Name = 
REMARK  11 active torsions:
REMARK  status: ('A' for Active; 'I' for Inactive)
REMARK    1  A    between atoms: C_1  and  C_2
REMARK    2  A    between atoms: C_2  and  N_3
REMARK    3  A    between atoms: N_3  and  C_4
REMARK    4  A    between atoms: N_3  and  C_6
REMARK    5  A    between atoms: C_4  and  C_5
REMARK    6  A    between atoms: C_6  and  C_7
REMARK    7  A    between atoms: C_7  and  N_8
REMARK    8  A    between atoms: C_11  and  N_12
REMARK    9  A    between atoms: C_18  and  N_19
REMARK   10  A    between atoms: C_25  and  O_26
REMARK   11  A    between atoms: C_28  and  O_29
REMARK                            x       y       z     vdW  Elec       q    Type
REMARK                         _______ _______ _______ _____ _____    ______ ____
ROOT
ATOM      1  N   UNL     1      -1.589  11.513  19.853  0.00  0.00    +0.000 N 
ATOM      2  C   UNL     1      -2.209  11.971  21.048  0.00  0.00    +0.000 A 
ATOM      3  C   UNL     1      -3.334  12.824  21.078  0.00  0.00    +0.000 A 
ATOM      4  C   UNL     1      -3.903  13.374  22.253  0.00  0.00    +0.000 A 
ATOM      5  C   UNL     1      -3.360  12.922  23.480  0.00  0.00    +0.000 A 
ATOM      6  C   UNL     1      -2.229  12.094  23.483  0.00  0.00    +0.000 A 
ATOM      7  C   UNL     1      -1.685  11.610  22.288  0.00  0.00    +0.000 A 
ATOM      8  C   UNL     1      -0.535  10.693  22.350  0.00  0.00    +0.000 A 
ATOM      9  O   UNL     1      -0.070  10.336  23.432  0.00  0.00    +0.000 OA
ATOM     10  C   UNL     1       0.056  10.189  21.095  0.00  0.00    +0.000 A 
ATOM     11  C   UNL     1       1.136   9.284  21.157  0.00  0.00    +0.000 A 
ATOM     12  C   UNL     1       1.721   8.794  20.000  0.00  0.00    +0.000 A 
ATOM     13  C   UNL     1       1.222   9.223  18.783  0.00  0.00    +0.000 A 
ATOM     14  C   UNL     1       0.151  10.122  18.707  0.00  0.00    +0.000 A 
ATOM     15  C   UNL     1      -0.475  10.630  19.862  0.00  0.00    +0.000 A 
ENDROOT
BRANCH   4  16
ATOM     16  N   UNL     1      -4.928  14.315  22.142  0.00  0.00    +0.000 N 
ATOM     17  C   UNL     1      -4.673  15.762  22.008  0.00  0.00    +0.000 C 
ATOM     18  C   UNL     1      -5.326  16.377  20.762  0.00  0.00    +0.000 C 
ATOM     19  S   UNL     1      -7.124  16.106  20.665  0.00  0.00    +0.000 S 
ATOM     20  C   UNL     1      -7.090  14.299  20.896  0.00  0.00    +0.000 C 
ATOM     21  C   UNL     1      -6.349  13.915  22.182  0.00  0.00    +0.000 C 
ENDBRANCH   4  16
BRANCH   5  22
ATOM     22  N   UNL     1      -3.830  13.377  24.732  0.00  0.00    +0.000 N 
ATOM     23  H   UNL     1      -3.132  13.969  25.174  0.00  0.00    +0.000 HD
ATOM     24  H   UNL     1      -4.735  13.833  24.685  0.00  0.00    +0.000 HD
ENDBRANCH   5  22
BRANCH  11  25
ATOM     25  O   UNL     1       1.671   8.828  22.334  0.00  0.00    +0.000 OA
ATOM     26  H   UNL     1       2.488   9.352  22.512  0.00  0.00    +0.000 HD
ENDBRANCH  11  25
BRANCH  13  27
ATOM     27  O   UNL     1       1.757   8.774  17.607  0.00  0.00    +0.000 OA
ATOM     28  H   UNL     1       2.048   9.541  17.085  0.00  0.00    +0.000 HD
ENDBRANCH  13  27
BRANCH   1  29
ATOM     29  C   UNL     1      -2.102  12.055  18.565  0.00  0.00    +0.000 C 
BRANCH  29  30
ATOM     30  C   UNL     1      -3.085  11.077  17.867  0.00  0.00    +0.000 C 
BRANCH  30  31
ATOM     31  N   UNL     1      -3.877  11.674  16.762  0.00  0.00    +0.000 NA
BRANCH  31  33
ATOM     32  C   UNL     1      -2.503   9.918  15.553  0.00  0.00    +0.000 C 
ATOM     33  C   UNL     1      -3.712  10.848  15.548  0.00  0.00    +0.000 C 
ENDBRANCH  31  33
BRANCH  31  34
ATOM     34  C   UNL     1      -5.282  11.912  17.132  0.00  0.00    +0.000 C 
ATOM     35  C   UNL     1      -5.782  11.160  18.363  0.00  0.00    +0.000 C 
ENDBRANCH  31  34
ENDBRANCH  30  31
ENDBRANCH  29  30
ENDBRANCH   1  29
TORSDOF 9
ENDMDL
MODEL 2
REMARK VINA RESULT:      -6.4      0.787      1.299
REMARK  Name = 
REMARK  11 active torsions:
REMARK  status: ('A' for Active; 'I' for Inactive)
REMARK    1  A    between atoms: C_1  and  C_2
REMARK    2  A    between atoms: C_2  and  N_3
REMARK    3  A    between atoms: N_3  and  C_4
REMARK    4  A    between atoms: N_3  and  C_6
REMARK    5  A    between atoms: C_4  and  C_5
REMARK    6  A    between atoms: C_6  and  C_7
REMARK    7  A    between atoms: C_7  and  N_8
REMARK    8  A    between atoms: C_11  and  N_12
REMARK    9  A    between atoms: C_18  and  N_19
REMARK   10  A    between atoms: C_25  and  O_26
REMARK   11  A    between atoms: C_28  and  O_29
REMARK                            x       y       z     vdW  Elec       q    Type
REMARK                         _______ _______ _______ _____ _____    ______ ____
ROOT
ATOM      1  N   UNL     1      -1.307  11.576  19.824  0.00  0.00    +0.000 N 
ATOM      2  C   UNL     1      -1.974  11.967  21.019  0.00  0.00    +0.000 A 
ATOM      3  C   UNL     1      -3.051  12.879  21.061  0.00  0.00    +0.000 A 
ATOM      4  C   UNL     1      -3.660  13.360  22.246  0.00  0.00    +0.000 A 
ATOM      5  C   UNL     1      -3.219  12.773  23.457  0.00  0.00    +0.000 A 
ATOM      6  C   UNL     1      -2.137  11.882  23.450  0.00  0.00    +0.000 A 
ATOM      7  C   UNL     1      -1.548  11.470  22.249  0.00  0.00    +0.000 A 
ATOM      8  C   UNL     1      -0.455  10.485  22.294  0.00  0.00    +0.000 A 
ATOM      9  O   UNL     1      -0.078  10.009  23.364  0.00  0.00    +0.000 OA
ATOM     10  C   UNL     1       0.184  10.055  21.034  0.00  0.00    +0.000 A 
ATOM     11  C   UNL     1       1.207   9.085  21.076  0.00  0.00    +0.000 A 
ATOM     12  C   UNL     1       1.834   8.662  19.915  0.00  0.00    +0.000 A 
ATOM     13  C   UNL     1       1.435   9.223  18.715  0.00  0.00    +0.000 A 
ATOM     14  C   UNL     1       0.421  10.187  18.660  0.00  0.00    +0.000 A 
ATOM     15  C   UNL     1      -0.246  10.631  19.818  0.00  0.00    +0.000 A 
ENDROOT
BRANCH   4  16
ATOM     16  N   UNL     1      -4.623  14.366  22.161  0.00  0.00    +0.000 N 
ATOM     17  C   UNL     1      -6.058  14.084  21.959  0.00  0.00    +0.000 C 
ATOM     18  C   UNL     1      -6.952  14.697  23.045  0.00  0.00    +0.000 C 
ATOM     19  S   UNL     1      -6.749  16.496  23.236  0.00  0.00    +0.000 S 
ATOM     20  C   UNL     1      -4.937  16.498  23.419  0.00  0.00    +0.000 C 
ATOM     21  C   UNL     1      -4.256  15.794  22.240  0.00  0.00    +0.000 C 
ENDBRANCH   4  16
BRANCH   5  22
ATOM     22  N   UNL     1      -3.739  13.146  24.715  0.00  0.00    +0.000 N 
ATOM     23  H   UNL     1      -3.999  14.128  24.710  0.00  0.00    +0.000 HD
ATOM     24  H   UNL     1      -4.502  12.556  25.031  0.00  0.00    +0.000 HD
ENDBRANCH   5  22
BRANCH  11  25
ATOM     25  O   UNL     1       1.643   8.499  22.236  0.00  0.00    +0.000 OA
ATOM     26  H   UNL     1       2.466   8.966  22.514  0.00  0.00    +0.000 HD
ENDBRANCH  11  25
BRANCH  13  27
ATOM     27  O   UNL     1       2.017   8.846  17.536  0.00  0.00    +0.000 OA
ATOM     28  H   UNL     1       2.271   7.910  17.599  0.00  0.00    +0.000 HD
ENDBRANCH  13  27
BRANCH   1  29
ATOM     29  C   UNL     1      -1.710  12.256  18.563  0.00  0.00    +0.000 C 
BRANCH  29  30
ATOM     30  C   UNL     1      -2.394  11.284  17.564  0.00  0.00    +0.000 C 
BRANCH  30  31
ATOM     31  N   UNL     1      -3.825  11.572  17.295  0.00  0.00    +0.000 NA
BRANCH  31  33
ATOM     32  C   UNL     1      -3.039  10.382  15.197  0.00  0.00    +0.000 C 
ATOM     33  C   UNL     1      -4.174  11.069  15.950  0.00  0.00    +0.000 C 
ENDBRANCH  31  33
BRANCH  31  34
ATOM     34  C   UNL     1      -4.714  11.084  18.362  0.00  0.00    +0.000 C 
ATOM     35  C   UNL     1      -6.209  11.131  18.055  0.00  0.00    +0.000 C 
ENDBRANCH  31  34
ENDBRANCH  30  31
ENDBRANCH  29  30
ENDBRANCH   1  29
TORSDOF 9
ENDMDL
MODEL 3
REMARK VINA RESULT:      -6.4      1.100      1.912
REMARK  Name = 
REMARK  11 active torsions:
REMARK  status: ('A' for Active; 'I' for Inactive)
REMARK    1  A    between atoms: C_1  and  C_2
REMARK    2  A    between atoms: C_2  and  N_3
REMARK    3  A    between atoms: N_3  and  C_4
REMARK    4  A    between atoms: N_3  and  C_6
REMARK    5  A    between atoms: C_4  and  C_5
REMARK    6  A    between atoms: C_6  and  C_7
REMARK    7  A    between atoms: C_7  and  N_8
REMARK    8  A    between atoms: C_11  and  N_12
REMARK    9  A    between atoms: C_18  and  N_19
REMARK   10  A    between atoms: C_25  and  O_26
REMARK   11  A    between atoms: C_28  and  O_29
REMARK                            x       y       z     vdW  Elec       q    Type
REMARK                         _______ _______ _______ _____ _____    ______ ____
ROOT
ATOM      1  N   UNL     1      -0.961  11.644  19.707  0.00  0.00    +0.000 N 
ATOM      2  C   UNL     1      -1.659  11.960  20.906  0.00  0.00    +0.000 A 
ATOM      3  C   UNL     1      -2.641  12.969  21.006  0.00  0.00    +0.000 A 
ATOM      4  C   UNL     1      -3.273  13.369  22.209  0.00  0.00    +0.000 A 
ATOM      5  C   UNL     1      -2.968  12.602  23.359  0.00  0.00    +0.000 A 
ATOM      6  C   UNL     1      -1.981  11.609  23.297  0.00  0.00    +0.000 A 
ATOM      7  C   UNL     1      -1.361  11.281  22.086  0.00  0.00    +0.000 A 
ATOM      8  C   UNL     1      -0.376  10.187  22.064  0.00  0.00    +0.000 A 
ATOM      9  O   UNL     1      -0.114   9.553  23.085  0.00  0.00    +0.000 OA
ATOM     10  C   UNL     1       0.295   9.843  20.794  0.00  0.00    +0.000 A 
ATOM     11  C   UNL     1       1.213   8.773  20.768  0.00  0.00    +0.000 A 
ATOM     12  C   UNL     1       1.866   8.425  19.596  0.00  0.00    +0.000 A 
ATOM     13  C   UNL     1       1.600   9.161  18.456  0.00  0.00    +0.000 A 
ATOM     14  C   UNL     1       0.691  10.226  18.469  0.00  0.00    +0.000 A 
ATOM     15  C   UNL     1       0.000  10.599  19.638  0.00  0.00    +0.000 A 
ENDROOT
BRANCH   4  16
ATOM     16  N   UNL     1      -4.126  14.474  22.200  0.00  0.00    +0.000 N 
ATOM     17  C   UNL     1      -5.548  14.383  21.819  0.00  0.00    +0.000 C 
ATOM     18  C   UNL     1      -6.499  14.913  22.902  0.00  0.00    +0.000 C 
ATOM     19  S   UNL     1      -6.155  16.629  23.405  0.00  0.00    +0.000 S 
ATOM     20  C   UNL     1      -4.382  16.407  23.758  0.00  0.00    +0.000 C 
ATOM     21  C   UNL     1      -3.641  15.825  22.548  0.00  0.00    +0.000 C 
ENDBRANCH   4  16
BRANCH   5  22
ATOM     22  N   UNL     1      -3.526  12.878  24.627  0.00  0.00    +0.000 N 
ATOM     23  H   UNL     1      -3.009  12.389  25.351  0.00  0.00    +0.000 HD
ATOM     24  H   UNL     1      -3.608  13.870  24.827  0.00  0.00    +0.000 HD
ENDBRANCH   5  22
BRANCH  11  25
ATOM     25  O   UNL     1       1.517   8.013  21.868  0.00  0.00    +0.000 OA
ATOM     26  H   UNL     1       2.493   7.873  21.872  0.00  0.00    +0.000 HD
ENDBRANCH  11  25
BRANCH  13  27
ATOM     27  O   UNL     1       2.213   8.865  17.270  0.00  0.00    +0.000 OA
ATOM     28  H   UNL     1       3.000   9.428  17.178  0.00  0.00    +0.000 HD
ENDBRANCH  13  27
BRANCH   1  29
ATOM     29  C   UNL     1      -1.216  12.505  18.520  0.00  0.00    +0.000 C 
BRANCH  29  30
ATOM     30  C   UNL     1      -2.128  11.809  17.474  0.00  0.00    +0.000 C 
BRANCH  30  31
ATOM     31  N   UNL     1      -3.118  10.860  18.043  0.00  0.00    +0.000 NA
BRANCH  31  33
ATOM     32  C   UNL     1      -5.177  11.952  17.042  0.00  0.00    +0.000 C 
ATOM     33  C   UNL     1      -4.386  11.576  18.292  0.00  0.00    +0.000 C 
ENDBRANCH  31  33
BRANCH  31  34
ATOM     34  C   UNL     1      -3.272   9.642  17.229  0.00  0.00    +0.000 C 
ATOM     35  C   UNL     1      -2.667   9.697  15.829  0.00  0.00    +0.000 C 
ENDBRANCH  31  34
ENDBRANCH  30  31
ENDBRANCH  29  30
ENDBRANCH   1  29
TORSDOF 9
ENDMDL
MODEL 4
REMARK VINA RESULT:      -6.2      1.209      1.719
REMARK  Name = 
REMARK  11 active torsions:
REMARK  status: ('A' for Active; 'I' for Inactive)
REMARK    1  A    between atoms: C_1  and  C_2
REMARK    2  A    between atoms: C_2  and  N_3
REMARK    3  A    between atoms: N_3  and  C_4
REMARK    4  A    between atoms: N_3  and  C_6
REMARK    5  A    between atoms: C_4  and  C_5
REMARK    6  A    between atoms: C_6  and  C_7
REMARK    7  A    between atoms: C_7  and  N_8
REMARK    8  A    between atoms: C_11  and  N_12
REMARK    9  A    between atoms: C_18  and  N_19
REMARK   10  A    between atoms: C_25  and  O_26
REMARK   11  A    between atoms: C_28  and  O_29
REMARK                            x       y       z     vdW  Elec       q    Type
REMARK                         _______ _______ _______ _____ _____    ______ ____
ROOT
ATOM      1  N   UNL     1      -0.607  11.345  19.456  0.00  0.00    +0.000 N 
ATOM      2  C   UNL     1      -1.314  11.724  20.631  0.00  0.00    +0.000 A 
ATOM      3  C   UNL     1      -2.259  12.773  20.681  0.00  0.00    +0.000 A 
ATOM      4  C   UNL     1      -2.897  13.233  21.859  0.00  0.00    +0.000 A 
ATOM      5  C   UNL     1      -2.643  12.491  23.038  0.00  0.00    +0.000 A 
ATOM      6  C   UNL     1      -1.693  11.460  23.025  0.00  0.00    +0.000 A 
ATOM      7  C   UNL     1      -1.064  11.072  21.837  0.00  0.00    +0.000 A 
ATOM      8  C   UNL     1      -0.122   9.942  21.868  0.00  0.00    +0.000 A 
ATOM      9  O   UNL     1       0.097   9.330  22.913  0.00  0.00    +0.000 OA
ATOM     10  C   UNL     1       0.559   9.533  20.622  0.00  0.00    +0.000 A 
ATOM     11  C   UNL     1       1.436   8.429  20.647  0.00  0.00    +0.000 A 
ATOM     12  C   UNL     1       2.097   8.020  19.500  0.00  0.00    +0.000 A 
ATOM     13  C   UNL     1       1.880   8.729  18.332  0.00  0.00    +0.000 A 
ATOM     14  C   UNL     1       1.013   9.829  18.294  0.00  0.00    +0.000 A 
ATOM     15  C   UNL     1       0.315  10.263  19.438  0.00  0.00    +0.000 A 
ENDROOT
BRANCH   4  16
ATOM     16  N   UNL     1      -3.707  14.369  21.799  0.00  0.00    +0.000 N 
ATOM     17  C   UNL     1      -3.179  15.736  21.972  0.00  0.00    +0.000 C 
ATOM     18  C   UNL     1      -3.506  16.663  20.793  0.00  0.00    +0.000 C 
ATOM     19  S   UNL     1      -5.286  16.783  20.424  0.00  0.00    +0.000 S 
ATOM     20  C   UNL     1      -5.612  14.994  20.314  0.00  0.00    +0.000 C 
ATOM     21  C   UNL     1      -5.164  14.266  21.587  0.00  0.00    +0.000 C 
ENDBRANCH   4  16
BRANCH   5  22
ATOM     22  N   UNL     1      -3.213  12.828  24.285  0.00  0.00    +0.000 N 
ATOM     23  H   UNL     1      -2.775  12.290  25.027  0.00  0.00    +0.000 HD
ATOM     24  H   UNL     1      -3.201  13.823  24.483  0.00  0.00    +0.000 HD
ENDBRANCH   5  22
BRANCH  11  25
ATOM     25  O   UNL     1       1.690   7.692  21.775  0.00  0.00    +0.000 OA
ATOM     26  H   UNL     1       1.181   6.850  21.701  0.00  0.00    +0.000 HD
ENDBRANCH  11  25
BRANCH  13  27
ATOM     27  O   UNL     1       2.504   8.374  17.168  0.00  0.00    +0.000 OA
ATOM     28  H   UNL     1       2.149   8.919  16.446  0.00  0.00    +0.000 HD
ENDBRANCH  13  27
BRANCH   1  29
ATOM     29  C   UNL     1      -0.807  12.177  18.239  0.00  0.00    +0.000 C 
BRANCH  29  30
ATOM     30  C   UNL     1      -2.214  11.977  17.615  0.00  0.00    +0.000 C 
BRANCH  30  31
ATOM     31  N   UNL     1      -2.362  10.751  16.790  0.00  0.00    +0.000 NA
BRANCH  31  33
ATOM     32  C   UNL     1      -4.481  10.194  18.067  0.00  0.00    +0.000 C 
ATOM     33  C   UNL     1      -3.117   9.740  17.559  0.00  0.00    +0.000 C 
ENDBRANCH  31  33
BRANCH  31  34
ATOM     34  C   UNL     1      -2.923  11.026  15.457  0.00  0.00    +0.000 C 
ATOM     35  C   UNL     1      -2.911   9.857  14.476  0.00  0.00    +0.000 C 
ENDBRANCH  31  34
ENDBRANCH  30  31
ENDBRANCH  29  30
ENDBRANCH   1  29
TORSDOF 9
ENDMDL
MODEL 5
REMARK VINA RESULT:      -6.1      0.871      1.878
REMARK  Name = 
REMARK  11 active torsions:
REMARK  status: ('A' for Active; 'I' for Inactive)
REMARK    1  A    between atoms: C_1  and  C_2
REMARK    2  A    between atoms: C_2  and  N_3
REMARK    3  A    between atoms: N_3  and  C_4
REMARK    4  A    between atoms: N_3  and  C_6
REMARK    5  A    between atoms: C_4  and  C_5
REMARK    6  A    between atoms: C_6  and  C_7
REMARK    7  A    between atoms: C_7  and  N_8
REMARK    8  A    between atoms: C_11  and  N_12
REMARK    9  A    between atoms: C_18  and  N_19
REMARK   10  A    between atoms: C_25  and  O_26
REMARK   11  A    between atoms: C_28  and  O_29
REMARK                            x       y       z     vdW  Elec       q    Type
REMARK                         _______ _______ _______ _____ _____    ______ ____
ROOT
ATOM      1  N   UNL     1      -2.078  11.596  19.761  0.00  0.00    +0.000 N 
ATOM      2  C   UNL     1      -2.685  12.170  20.913  0.00  0.00    +0.000 A 
ATOM      3  C   UNL     1      -3.879  12.924  20.884  0.00  0.00    +0.000 A 
ATOM      4  C   UNL     1      -4.443  13.590  21.999  0.00  0.00    +0.000 A 
ATOM      5  C   UNL     1      -3.811  13.366  23.246  0.00  0.00    +0.000 A 
ATOM      6  C   UNL     1      -2.613  12.641  23.303  0.00  0.00    +0.000 A 
ATOM      7  C   UNL     1      -2.079  12.036  22.161  0.00  0.00    +0.000 A 
ATOM      8  C   UNL     1      -0.851  11.234  22.287  0.00  0.00    +0.000 A 
ATOM      9  O   UNL     1      -0.311  11.076  23.382  0.00  0.00    +0.000 OA
ATOM     10  C   UNL     1      -0.271  10.603  21.085  0.00  0.00    +0.000 A 
ATOM     11  C   UNL     1       0.886   9.808  21.214  0.00  0.00    +0.000 A 
ATOM     12  C   UNL     1       1.462   9.205  20.107  0.00  0.00    +0.000 A 
ATOM     13  C   UNL     1       0.876   9.412  18.871  0.00  0.00    +0.000 A 
ATOM     14  C   UNL     1      -0.272  10.201  18.729  0.00  0.00    +0.000 A 
ATOM     15  C   UNL     1      -0.891  10.817  19.834  0.00  0.00    +0.000 A 
ENDROOT
BRANCH   4  16
ATOM     16  N   UNL     1      -5.551  14.419  21.813  0.00  0.00    +0.000 N 
ATOM     17  C   UNL     1      -6.935  13.908  21.787  0.00  0.00    +0.000 C 
ATOM     18  C   UNL     1      -7.850  14.589  22.814  0.00  0.00    +0.000 C 
ATOM     19  S   UNL     1      -7.911  16.402  22.656  0.00  0.00    +0.000 S 
ATOM     20  C   UNL     1      -6.112  16.689  22.684  0.00  0.00    +0.000 C 
ATOM     21  C   UNL     1      -5.400  15.872  21.600  0.00  0.00    +0.000 C 
ENDBRANCH   4  16
BRANCH   5  22
ATOM     22  N   UNL     1      -4.266  13.957  24.446  0.00  0.00    +0.000 N 
ATOM     23  H   UNL     1      -4.159  13.307  25.219  0.00  0.00    +0.000 HD
ATOM     24  H   UNL     1      -3.835  14.854  24.645  0.00  0.00    +0.000 HD
ENDBRANCH   5  22
BRANCH  11  25
ATOM     25  O   UNL     1       1.508   9.571  22.412  0.00  0.00    +0.000 OA
ATOM     26  H   UNL     1       1.072   8.789  22.825  0.00  0.00    +0.000 HD
ENDBRANCH  11  25
BRANCH  13  27
ATOM     27  O   UNL     1       1.399   8.844  17.742  0.00  0.00    +0.000 OA
ATOM     28  H   UNL     1       0.671   8.638  17.132  0.00  0.00    +0.000 HD
ENDBRANCH  13  27
BRANCH   1  29
ATOM     29  C   UNL     1      -2.691  11.903  18.440  0.00  0.00    +0.000 C 
BRANCH  29  30
ATOM     30  C   UNL     1      -3.785  10.875  18.047  0.00  0.00    +0.000 C 
BRANCH  30  31
ATOM     31  N   UNL     1      -4.409  11.105  16.720  0.00  0.00    +0.000 NA
BRANCH  31  33
ATOM     32  C   UNL     1      -6.572  11.887  17.789  0.00  0.00    +0.000 C 
ATOM     33  C   UNL     1      -5.415  12.181  16.840  0.00  0.00    +0.000 C 
ENDBRANCH  31  33
BRANCH  31  34
ATOM     34  C   UNL     1      -3.418  11.334  15.656  0.00  0.00    +0.000 C 
ATOM     35  C   UNL     1      -3.001  10.101  14.859  0.00  0.00    +0.000 C 
ENDBRANCH  31  34
ENDBRANCH  30  31
ENDBRANCH  29  30
ENDBRANCH   1  29
TORSDOF 9
ENDMDL
MODEL 6
REMARK VINA RESULT:      -6.1      1.034      1.778
REMARK  Name = 
REMARK  11 active torsions:
REMARK  status: ('A' for Active; 'I' for Inactive)
REMARK    1  A    between atoms: C_1  and  C_2
REMARK    2  A    between atoms: C_2  and  N_3
REMARK    3  A    between atoms: N_3  and  C_4
REMARK    4  A    between atoms: N_3  and  C_6
REMARK    5  A    between atoms: C_4  and  C_5
REMARK    6  A    between atoms: C_6  and  C_7
REMARK    7  A    between atoms: C_7  and  N_8
REMARK    8  A    between atoms: C_11  and  N_12
REMARK    9  A    between atoms: C_18  and  N_19
REMARK   10  A    between atoms: C_25  and  O_26
REMARK   11  A    between atoms: C_28  and  O_29
REMARK                            x       y       z     vdW  Elec       q    Type
REMARK                         _______ _______ _______ _____ _____    ______ ____
ROOT
ATOM      1  N   UNL     1      -1.884  11.649  19.849  0.00  0.00    +0.000 N 
ATOM      2  C   UNL     1      -2.483  12.067  21.070  0.00  0.00    +0.000 A 
ATOM      3  C   UNL     1      -3.635  12.881  21.147  0.00  0.00    +0.000 A 
ATOM      4  C   UNL     1      -4.186  13.392  22.347  0.00  0.00    +0.000 A 
ATOM      5  C   UNL     1      -3.592  12.941  23.550  0.00  0.00    +0.000 A 
ATOM      6  C   UNL     1      -2.434  12.152  23.505  0.00  0.00    +0.000 A 
ATOM      7  C   UNL     1      -1.910  11.705  22.288  0.00  0.00    +0.000 A 
ATOM      8  C   UNL     1      -0.729  10.828  22.300  0.00  0.00    +0.000 A 
ATOM      9  O   UNL     1      -0.220  10.470  23.362  0.00  0.00    +0.000 OA
ATOM     10  C   UNL     1      -0.159  10.363  21.020  0.00  0.00    +0.000 A 
ATOM     11  C   UNL     1       0.952   9.495  21.035  0.00  0.00    +0.000 A 
ATOM     12  C   UNL     1       1.518   9.043  19.853  0.00  0.00    +0.000 A 
ATOM     13  C   UNL     1       0.969   9.474  18.659  0.00  0.00    +0.000 A 
ATOM     14  C   UNL     1      -0.133  10.337  18.630  0.00  0.00    +0.000 A 
ATOM     15  C   UNL     1      -0.741  10.805  19.811  0.00  0.00    +0.000 A 
ENDROOT
BRANCH   4  16
ATOM     16  N   UNL     1      -5.246  14.299  22.281  0.00  0.00    +0.000 N 
ATOM     17  C   UNL     1      -6.659  13.885  22.376  0.00  0.00    +0.000 C 
ATOM     18  C   UNL     1      -7.424  14.602  23.497  0.00  0.00    +0.000 C 
ATOM     19  S   UNL     1      -7.371  16.418  23.379  0.00  0.00    +0.000 S 
ATOM     20  C   UNL     1      -5.562  16.580  23.242  0.00  0.00    +0.000 C 
ATOM     21  C   UNL     1      -5.013  15.743  22.081  0.00  0.00    +0.000 C 
ENDBRANCH   4  16
BRANCH   5  22
ATOM     22  N   UNL     1      -4.039  13.360  24.822  0.00  0.00    +0.000 N 
ATOM     23  H   UNL     1      -4.991  13.042  24.981  0.00  0.00    +0.000 HD
ATOM     24  H   UNL     1      -3.420  13.089  25.580  0.00  0.00    +0.000 HD
ENDBRANCH   5  22
BRANCH  11  25
ATOM     25  O   UNL     1       1.538   9.039  22.188  0.00  0.00    +0.000 OA
ATOM     26  H   UNL     1       2.280   8.443  21.929  0.00  0.00    +0.000 HD
ENDBRANCH  11  25
BRANCH  13  27
ATOM     27  O   UNL     1       1.484   9.062  17.460  0.00  0.00    +0.000 OA
ATOM     28  H   UNL     1       2.189   9.676  17.197  0.00  0.00    +0.000 HD
ENDBRANCH  13  27
BRANCH   1  29
ATOM     29  C   UNL     1      -2.453  12.193  18.586  0.00  0.00    +0.000 C 
BRANCH  29  30
ATOM     30  C   UNL     1      -3.521  11.250  17.969  0.00  0.00    +0.000 C 
BRANCH  30  31
ATOM     31  N   UNL     1      -4.927  11.679  18.179  0.00  0.00    +0.000 NA
BRANCH  31  33
ATOM     32  C   UNL     1      -6.453  13.379  17.077  0.00  0.00    +0.000 C 
ATOM     33  C   UNL     1      -5.457  12.235  16.917  0.00  0.00    +0.000 C 
ENDBRANCH  31  33
BRANCH  31  34
ATOM     34  C   UNL     1      -5.766  10.616  18.759  0.00  0.00    +0.000 C 
ATOM     35  C   UNL     1      -6.747  11.059  19.841  0.00  0.00    +0.000 C 
ENDBRANCH  31  34
ENDBRANCH  30  31
ENDBRANCH  29  30
ENDBRANCH   1  29
TORSDOF 9
ENDMDL
MODEL 7
REMARK VINA RESULT:      -6.1      1.952      3.140
REMARK  Name = 
REMARK  11 active torsions:
REMARK  status: ('A' for Active; 'I' for Inactive)
REMARK    1  A    between atoms: C_1  and  C_2
REMARK    2  A    between atoms: C_2  and  N_3
REMARK    3  A    between atoms: N_3  and  C_4
REMARK    4  A    between atoms: N_3  and  C_6
REMARK    5  A    between atoms: C_4  and  C_5
REMARK    6  A    between atoms: C_6  and  C_7
REMARK    7  A    between atoms: C_7  and  N_8
REMARK    8  A    between atoms: C_11  and  N_12
REMARK    9  A    between atoms: C_18  and  N_19
REMARK   10  A    between atoms: C_25  and  O_26
REMARK   11  A    between atoms: C_28  and  O_29
REMARK                            x       y       z     vdW  Elec       q    Type
REMARK                         _______ _______ _______ _____ _____    ______ ____
ROOT
ATOM      1  N   UNL     1      -1.039  11.643  19.693  0.00  0.00    +0.000 N 
ATOM      2  C   UNL     1      -1.741  11.970  20.887  0.00  0.00    +0.000 A 
ATOM      3  C   UNL     1      -2.740  12.965  20.969  0.00  0.00    +0.000 A 
ATOM      4  C   UNL     1      -3.377  13.376  22.165  0.00  0.00    +0.000 A 
ATOM      5  C   UNL     1      -3.059  12.635  23.329  0.00  0.00    +0.000 A 
ATOM      6  C   UNL     1      -2.056  11.657  23.284  0.00  0.00    +0.000 A 
ATOM      7  C   UNL     1      -1.432  11.317  22.079  0.00  0.00    +0.000 A 
ATOM      8  C   UNL     1      -0.429  10.239  22.076  0.00  0.00    +0.000 A 
ATOM      9  O   UNL     1      -0.157   9.628  23.108  0.00  0.00    +0.000 OA
ATOM     10  C   UNL     1       0.246   9.883  20.812  0.00  0.00    +0.000 A 
ATOM     11  C   UNL     1       1.182   8.828  20.805  0.00  0.00    +0.000 A 
ATOM     12  C   UNL     1       1.840   8.469  19.639  0.00  0.00    +0.000 A 
ATOM     13  C   UNL     1       1.561   9.180  18.486  0.00  0.00    +0.000 A 
ATOM     14  C   UNL     1       0.636  10.231  18.480  0.00  0.00    +0.000 A 
ATOM     15  C   UNL     1      -0.061  10.613  19.643  0.00  0.00    +0.000 A 
ENDROOT
BRANCH   4  16
ATOM     16  N   UNL     1      -4.247  14.467  22.137  0.00  0.00    +0.000 N 
ATOM     17  C   UNL     1      -5.687  14.333  21.843  0.00  0.00    +0.000 C 
ATOM     18  C   UNL     1      -6.585  14.916  22.943  0.00  0.00    +0.000 C 
ATOM     19  S   UNL     1      -6.243  16.665  23.321  0.00  0.00    +0.000 S 
ATOM     20  C   UNL     1      -4.449  16.489  23.586  0.00  0.00    +0.000 C 
ATOM     21  C   UNL     1      -3.767  15.843  22.374  0.00  0.00    +0.000 C 
ENDBRANCH   4  16
BRANCH   5  22
ATOM     22  N   UNL     1      -3.621  12.925  24.592  0.00  0.00    +0.000 N 
ATOM     23  H   UNL     1      -3.491  13.907  24.816  0.00  0.00    +0.000 HD
ATOM     24  H   UNL     1      -4.593  12.645  24.678  0.00  0.00    +0.000 HD
ENDBRANCH   5  22
BRANCH  11  25
ATOM     25  O   UNL     1       1.498   8.092  21.918  0.00  0.00    +0.000 OA
ATOM     26  H   UNL     1       0.748   7.475  22.089  0.00  0.00    +0.000 HD
ENDBRANCH  11  25
BRANCH  13  27
ATOM     27  O   UNL     1       2.179   8.873  17.305  0.00  0.00    +0.000 OA
ATOM     28  H   UNL     1       1.804   8.044  16.964  0.00  0.00    +0.000 HD
ENDBRANCH  13  27
BRANCH   1  29
ATOM     29  C   UNL     1      -1.308  12.479  18.492  0.00  0.00    +0.000 C 
BRANCH  29  30
ATOM     30  C   UNL     1      -0.222  13.568  18.278  0.00  0.00    +0.000 C 
BRANCH  30  31
ATOM     31  N   UNL     1       0.353  14.129  19.526  0.00  0.00    +0.000 NA
BRANCH  31  33
ATOM     32  C   UNL     1       2.406  13.493  18.178  0.00  0.00    +0.000 C 
ATOM     33  C   UNL     1       1.817  13.926  19.517  0.00  0.00    +0.000 C 
ENDBRANCH  31  33
BRANCH  31  34
ATOM     34  C   UNL     1      -0.052  15.524  19.763  0.00  0.00    +0.000 C 
ATOM     35  C   UNL     1      -0.349  16.351  18.515  0.00  0.00    +0.000 C 
ENDBRANCH  31  34
ENDBRANCH  30  31
ENDBRANCH  29  30
ENDBRANCH   1  29
TORSDOF 9
ENDMDL
MODEL 8
REMARK VINA RESULT:      -6.0      2.401      4.089
REMARK  Name = 
REMARK  11 active torsions:
REMARK  status: ('A' for Active; 'I' for Inactive)
REMARK    1  A    between atoms: C_1  and  C_2
REMARK    2  A    between atoms: C_2  and  N_3
REMARK    3  A    between atoms: N_3  and  C_4
REMARK    4  A    between atoms: N_3  and  C_6
REMARK    5  A    between atoms: C_4  and  C_5
REMARK    6  A    between atoms: C_6  and  C_7
REMARK    7  A    between atoms: C_7  and  N_8
REMARK    8  A    between atoms: C_11  and  N_12
REMARK    9  A    between atoms: C_18  and  N_19
REMARK   10  A    between atoms: C_25  and  O_26
REMARK   11  A    between atoms: C_28  and  O_29
REMARK                            x       y       z     vdW  Elec       q    Type
REMARK                         _______ _______ _______ _____ _____    ______ ____
ROOT
ATOM      1  N   UNL     1      -4.409  12.389  18.794  0.00  0.00    +0.000 N 
ATOM      2  C   UNL     1      -3.761  12.729  20.014  0.00  0.00    +0.000 A 
ATOM      3  C   UNL     1      -4.344  13.527  21.023  0.00  0.00    +0.000 A 
ATOM      4  C   UNL     1      -3.680  13.961  22.197  0.00  0.00    +0.000 A 
ATOM      5  C   UNL     1      -2.379  13.443  22.407  0.00  0.00    +0.000 A 
ATOM      6  C   UNL     1      -1.765  12.667  21.414  0.00  0.00    +0.000 A 
ATOM      7  C   UNL     1      -2.457  12.299  20.254  0.00  0.00    +0.000 A 
ATOM      8  C   UNL     1      -1.787  11.431  19.272  0.00  0.00    +0.000 A 
ATOM      9  O   UNL     1      -0.647  11.015  19.472  0.00  0.00    +0.000 OA
ATOM     10  C   UNL     1      -2.503  11.049  18.038  0.00  0.00    +0.000 A 
ATOM     11  C   UNL     1      -1.873  10.190  17.114  0.00  0.00    +0.000 A 
ATOM     12  C   UNL     1      -2.511   9.814  15.942  0.00  0.00    +0.000 A 
ATOM     13  C   UNL     1      -3.779  10.311  15.701  0.00  0.00    +0.000 A 
ATOM     14  C   UNL     1      -4.415  11.166  16.609  0.00  0.00    +0.000 A 
ATOM     15  C   UNL     1      -3.802  11.557  17.815  0.00  0.00    +0.000 A 
ENDROOT
BRANCH   4  16
ATOM     16  N   UNL     1      -4.318  14.862  23.051  0.00  0.00    +0.000 N 
ATOM     17  C   UNL     1      -3.838  16.241  23.261  0.00  0.00    +0.000 C 
ATOM     18  C   UNL     1      -4.906  17.304  22.966  0.00  0.00    +0.000 C 
ATOM     19  S   UNL     1      -6.442  17.086  23.919  0.00  0.00    +0.000 S 
ATOM     20  C   UNL     1      -6.729  15.341  23.484  0.00  0.00    +0.000 C 
ATOM     21  C   UNL     1      -5.512  14.473  23.828  0.00  0.00    +0.000 C 
ENDBRANCH   4  16
BRANCH   5  22
ATOM     22  N   UNL     1      -1.599  13.782  23.534  0.00  0.00    +0.000 N 
ATOM     23  H   UNL     1      -1.047  12.983  23.831  0.00  0.00    +0.000 HD
ATOM     24  H   UNL     1      -1.025  14.608  23.399  0.00  0.00    +0.000 HD
ENDBRANCH   5  22
BRANCH  11  25
ATOM     25  O   UNL     1      -0.618   9.671  17.302  0.00  0.00    +0.000 OA
ATOM     26  H   UNL     1      -0.509   9.497  18.267  0.00  0.00    +0.000 HD
ENDBRANCH  11  25
BRANCH  13  27
ATOM     27  O   UNL     1      -4.459   9.976  14.562  0.00  0.00    +0.000 OA
ATOM     28  H   UNL     1      -5.310   9.581  14.813  0.00  0.00    +0.000 HD
ENDBRANCH  13  27
BRANCH   1  29
ATOM     29  C   UNL     1      -5.739  13.003  18.533  0.00  0.00    +0.000 C 
BRANCH  29  30
ATOM     30  C   UNL     1      -6.906  12.017  18.809  0.00  0.00    +0.000 C 
BRANCH  30  31
ATOM     31  N   UNL     1      -6.605  10.956  19.803  0.00  0.00    +0.000 NA
BRANCH  31  33
ATOM     32  C   UNL     1      -7.892  12.668  21.161  0.00  0.00    +0.000 C 
ATOM     33  C   UNL     1      -7.310  11.261  21.065  0.00  0.00    +0.000 C 
ENDBRANCH  31  33
BRANCH  31  34
ATOM     34  C   UNL     1      -6.867   9.602  19.288  0.00  0.00    +0.000 C 
ATOM     35  C   UNL     1      -7.470   8.616  20.285  0.00  0.00    +0.000 C 
ENDBRANCH  31  34
ENDBRANCH  30  31
ENDBRANCH  29  30
ENDBRANCH   1  29
TORSDOF 9
ENDMDL
MODEL 9
REMARK VINA RESULT:      -6.0      3.198      5.352
REMARK  Name = 
REMARK  11 active torsions:
REMARK  status: ('A' for Active; 'I' for Inactive)
REMARK    1  A    between atoms: C_1  and  C_2
REMARK    2  A    between atoms: C_2  and  N_3
REMARK    3  A    between atoms: N_3  and  C_4
REMARK    4  A    between atoms: N_3  and  C_6
REMARK    5  A    between atoms: C_4  and  C_5
REMARK    6  A    between atoms: C_6  and  C_7
REMARK    7  A    between atoms: C_7  and  N_8
REMARK    8  A    between atoms: C_11  and  N_12
REMARK    9  A    between atoms: C_18  and  N_19
REMARK   10  A    between atoms: C_25  and  O_26
REMARK   11  A    between atoms: C_28  and  O_29
REMARK                            x       y       z     vdW  Elec       q    Type
REMARK                         _______ _______ _______ _____ _____    ______ ____
ROOT
ATOM      1  N   UNL     1      -2.750  13.125  20.346  0.00  0.00    +0.000 N 
ATOM      2  C   UNL     1      -3.642  13.628  21.334  0.00  0.00    +0.000 A 
ATOM      3  C   UNL     1      -3.247  14.457  22.406  0.00  0.00    +0.000 A 
ATOM      4  C   UNL     1      -4.097  14.883  23.456  0.00  0.00    +0.000 A 
ATOM      5  C   UNL     1      -5.465  14.539  23.331  0.00  0.00    +0.000 A 
ATOM      6  C   UNL     1      -5.883  13.699  22.290  0.00  0.00    +0.000 A 
ATOM      7  C   UNL     1      -4.990  13.276  21.299  0.00  0.00    +0.000 A 
ATOM      8  C   UNL     1      -5.495  12.446  20.194  0.00  0.00    +0.000 A 
ATOM      9  O   UNL     1      -6.686  12.144  20.124  0.00  0.00    +0.000 OA
ATOM     10  C   UNL     1      -4.558  11.982  19.151  0.00  0.00    +0.000 A 
ATOM     11  C   UNL     1      -5.050  11.215  18.075  0.00  0.00    +0.000 A 
ATOM     12  C   UNL     1      -4.199  10.756  17.081  0.00  0.00    +0.000 A 
ATOM     13  C   UNL     1      -2.854  11.065  17.178  0.00  0.00    +0.000 A 
ATOM     14  C   UNL     1      -2.353  11.824  18.242  0.00  0.00    +0.000 A 
ATOM     15  C   UNL     1      -3.190  12.317  19.262  0.00  0.00    +0.000 A 
ENDROOT
BRANCH   4  16
ATOM     16  N   UNL     1      -3.555  15.586  24.534  0.00  0.00    +0.000 N 
ATOM     17  C   UNL     1      -2.765  14.934  25.597  0.00  0.00    +0.000 C 
ATOM     18  C   UNL     1      -1.372  15.552  25.780  0.00  0.00    +0.000 C 
ATOM     19  S   UNL     1      -1.401  17.343  26.110  0.00  0.00    +0.000 S 
ATOM     20  C   UNL     1      -2.444  17.815  24.694  0.00  0.00    +0.000 C 
ATOM     21  C   UNL     1      -3.766  17.038  24.692  0.00  0.00    +0.000 C 
ENDBRANCH   4  16
BRANCH   5  22
ATOM     22  N   UNL     1      -6.430  14.901  24.296  0.00  0.00    +0.000 N 
ATOM     23  H   UNL     1      -7.361  14.663  23.966  0.00  0.00    +0.000 HD
ATOM     24  H   UNL     1      -6.248  14.518  25.218  0.00  0.00    +0.000 HD
ENDBRANCH   5  22
BRANCH  11  25
ATOM     25  O   UNL     1      -6.371  10.878  17.930  0.00  0.00    +0.000 OA
ATOM     26  H   UNL     1      -6.909  11.631  18.272  0.00  0.00    +0.000 HD
ENDBRANCH  11  25
BRANCH  13  27
ATOM     27  O   UNL     1      -1.966  10.640  16.228  0.00  0.00    +0.000 OA
ATOM     28  H   UNL     1      -1.387   9.967  16.622  0.00  0.00    +0.000 HD
ENDBRANCH  13  27
BRANCH   1  29
ATOM     29  C   UNL     1      -1.301  13.411  20.524  0.00  0.00    +0.000 C 
BRANCH  29  30
ATOM     30  C   UNL     1      -0.700  12.666  21.746  0.00  0.00    +0.000 C 
BRANCH  30  31
ATOM     31  N   UNL     1      -0.729  11.185  21.649  0.00  0.00    +0.000 NA
BRANCH  31  33
ATOM     32  C   UNL     1       0.303   9.934  19.699  0.00  0.00    +0.000 C 
ATOM     33  C   UNL     1       0.509  10.719  20.990  0.00  0.00    +0.000 C 
ENDBRANCH  31  33
BRANCH  31  34
ATOM     34  C   UNL     1      -0.994  10.535  22.944  0.00  0.00    +0.000 C 
ATOM     35  C   UNL     1       0.019   9.478  23.377  0.00  0.00    +0.000 C 
ENDBRANCH  31  34
ENDBRANCH  30  31
ENDBRANCH  29  30
ENDBRANCH   1  29
TORSDOF 9
ENDMDL
