MODEL 1
REMARK VINA RESULT:      -7.4      0.000      0.000
REMARK  Name = 
REMARK  5 active torsions:
REMARK  status: ('A' for Active; 'I' for Inactive)
REMARK    1  A    between atoms: C_1  and  O_2
REMARK    2  A    between atoms: O_2  and  C_3
REMARK    3  A    between atoms: C_6  and  C_7
REMARK    4  A    between atoms: C_8  and  C_9
REMARK    5  A    between atoms: C_18  and  N_19
REMARK                            x       y       z     vdW  Elec       q    Type
REMARK                         _______ _______ _______ _____ _____    ______ ____
ROOT
ATOM      1  C   UNL     1       3.336   6.248  18.481  0.00  0.00    +0.000 A 
ATOM      2  C   UNL     1       4.036   6.560  17.312  0.00  0.00    +0.000 A 
ATOM      3  O   UNL     1       3.725   7.837  16.923  0.00  0.00    +0.000 OA
ATOM      4  C   UNL     1       2.794   8.322  17.781  0.00  0.00    +0.000 A 
ATOM      5  C   UNL     1       2.156   9.550  17.677  0.00  0.00    +0.000 A 
ATOM      6  C   UNL     1       1.250   9.871  18.703  0.00  0.00    +0.000 A 
ATOM      7  C   UNL     1       1.014   9.031  19.802  0.00  0.00    +0.000 A 
ATOM      8  C   UNL     1       1.696   7.802  19.841  0.00  0.00    +0.000 A 
ATOM      9  C   UNL     1       2.563   7.413  18.792  0.00  0.00    +0.000 A 
ENDROOT
BRANCH   1  13
ATOM     10  C   UNL     1       3.786   2.782  20.828  0.00  0.00    +0.000 A 
ATOM     11  C   UNL     1       2.594   3.484  20.930  0.00  0.00    +0.000 A 
ATOM     12  C   UNL     1       2.422   4.615  20.129  0.00  0.00    +0.000 A 
ATOM     13  C   UNL     1       3.455   5.035  19.280  0.00  0.00    +0.000 A 
ATOM     14  C   UNL     1       4.617   4.275  19.293  0.00  0.00    +0.000 A 
ATOM     15  N   UNL     1       4.791   3.148  20.012  0.00  0.00    +0.000 NA
BRANCH  10  17
ATOM     16  C   UNL     1       5.204   1.037  21.405  0.00  0.00    +0.000 C 
ATOM     17  O   UNL     1       3.943   1.672  21.626  0.00  0.00    +0.000 OA
ENDBRANCH  10  17
ENDBRANCH   1  13
BRANCH   7  18
ATOM     18  N   UNL     1       0.125   9.357  20.804  0.00  0.00    +0.000 N 
ATOM     19  C   UNL     1      -0.616  10.620  20.836  0.00  0.00    +0.000 C 
ATOM     20  C   UNL     1      -0.259  11.403  22.107  0.00  0.00    +0.000 C 
ATOM     21  O   UNL     1      -0.476  10.612  23.289  0.00  0.00    +0.000 OA
ATOM     22  C   UNL     1       0.331   9.422  23.251  0.00  0.00    +0.000 C 
ATOM     23  C   UNL     1       0.004   8.547  22.029  0.00  0.00    +0.000 C 
ENDBRANCH   7  18
BRANCH   2  24
ATOM     24  C   UNL     1       5.011   5.736  16.523  0.00  0.00    +0.000 A 
ATOM     25  C   UNL     1       6.418   5.984  16.517  0.00  0.00    +0.000 A 
ATOM     26  C   UNL     1       7.108   5.056  15.768  0.00  0.00    +0.000 A 
ATOM     27  S   UNL     1       6.063   3.925  15.026  0.00  0.00    +0.000 S 
ATOM     28  C   UNL     1       4.683   4.669  15.715  0.00  0.00    +0.000 A 
ENDBRANCH   2  24
TORSDOF 4
ENDMDL
MODEL 2
REMARK VINA RESULT:      -7.3      2.698      4.755
REMARK  Name = 
REMARK  5 active torsions:
REMARK  status: ('A' for Active; 'I' for Inactive)
REMARK    1  A    between atoms: C_1  and  O_2
REMARK    2  A    between atoms: O_2  and  C_3
REMARK    3  A    between atoms: C_6  and  C_7
REMARK    4  A    between atoms: C_8  and  C_9
REMARK    5  A    between atoms: C_18  and  N_19
REMARK                            x       y       z     vdW  Elec       q    Type
REMARK                         _______ _______ _______ _____ _____    ______ ____
ROOT
ATOM      1  C   UNL     1       2.969   6.546  19.005  0.00  0.00    +0.000 A 
ATOM      2  C   UNL     1       2.610   5.668  20.033  0.00  0.00    +0.000 A 
ATOM      3  O   UNL     1       1.700   6.281  20.855  0.00  0.00    +0.000 OA
ATOM      4  C   UNL     1       1.520   7.549  20.412  0.00  0.00    +0.000 A 
ATOM      5  C   UNL     1       0.743   8.521  21.025  0.00  0.00    +0.000 A 
ATOM      6  C   UNL     1       0.665   9.763  20.371  0.00  0.00    +0.000 A 
ATOM      7  C   UNL     1       1.297  10.019  19.144  0.00  0.00    +0.000 A 
ATOM      8  C   UNL     1       2.068   8.987  18.582  0.00  0.00    +0.000 A 
ATOM      9  C   UNL     1       2.227   7.747  19.245  0.00  0.00    +0.000 A 
ENDROOT
BRANCH   1  13
ATOM     10  C   UNL     1       5.550   5.739  15.779  0.00  0.00    +0.000 A 
ATOM     11  C   UNL     1       4.596   4.787  16.099  0.00  0.00    +0.000 A 
ATOM     12  C   UNL     1       3.711   5.062  17.144  0.00  0.00    +0.000 A 
ATOM     13  C   UNL     1       3.829   6.258  17.866  0.00  0.00    +0.000 A 
ATOM     14  C   UNL     1       4.850   7.117  17.479  0.00  0.00    +0.000 A 
ATOM     15  N   UNL     1       5.681   6.905  16.439  0.00  0.00    +0.000 NA
BRANCH  10  17
ATOM     16  C   UNL     1       6.285   4.102  14.307  0.00  0.00    +0.000 C 
ATOM     17  O   UNL     1       6.417   5.454  14.749  0.00  0.00    +0.000 OA
ENDBRANCH  10  17
ENDBRANCH   1  13
BRANCH   7  18
ATOM     18  N   UNL     1       1.211  11.240  18.510  0.00  0.00    +0.000 N 
ATOM     19  C   UNL     1       2.369  11.918  17.921  0.00  0.00    +0.000 C 
ATOM     20  C   UNL     1       2.578  13.278  18.602  0.00  0.00    +0.000 C 
ATOM     21  O   UNL     1       1.386  14.082  18.546  0.00  0.00    +0.000 OA
ATOM     22  C   UNL     1       0.298  13.412  19.205  0.00  0.00    +0.000 C 
ATOM     23  C   UNL     1      -0.016  12.054  18.554  0.00  0.00    +0.000 C 
ENDBRANCH   7  18
BRANCH   2  24
ATOM     24  C   UNL     1       3.055   4.260  20.298  0.00  0.00    +0.000 A 
ATOM     25  C   UNL     1       2.321   3.352  21.122  0.00  0.00    +0.000 A 
ATOM     26  C   UNL     1       2.898   2.101  21.162  0.00  0.00    +0.000 A 
ATOM     27  S   UNL     1       4.348   2.035  20.260  0.00  0.00    +0.000 S 
ATOM     28  C   UNL     1       4.202   3.679  19.804  0.00  0.00    +0.000 A 
ENDBRANCH   2  24
TORSDOF 4
ENDMDL
MODEL 3
REMARK VINA RESULT:      -7.2      3.008      5.015
REMARK  Name = 
REMARK  5 active torsions:
REMARK  status: ('A' for Active; 'I' for Inactive)
REMARK    1  A    between atoms: C_1  and  O_2
REMARK    2  A    between atoms: O_2  and  C_3
REMARK    3  A    between atoms: C_6  and  C_7
REMARK    4  A    between atoms: C_8  and  C_9
REMARK    5  A    between atoms: C_18  and  N_19
REMARK                            x       y       z     vdW  Elec       q    Type
REMARK                         _______ _______ _______ _____ _____    ______ ____
ROOT
ATOM      1  C   UNL     1       2.198   7.096  19.310  0.00  0.00    +0.000 A 
ATOM      2  C   UNL     1       1.595   6.341  20.320  0.00  0.00    +0.000 A 
ATOM      3  O   UNL     1       0.751   7.144  21.043  0.00  0.00    +0.000 OA
ATOM      4  C   UNL     1       0.851   8.405  20.557  0.00  0.00    +0.000 A 
ATOM      5  C   UNL     1       0.222   9.528  21.076  0.00  0.00    +0.000 A 
ATOM      6  C   UNL     1       0.435  10.736  20.389  0.00  0.00    +0.000 A 
ATOM      7  C   UNL     1       1.205  10.822  19.219  0.00  0.00    +0.000 A 
ATOM      8  C   UNL     1       1.813   9.644  18.752  0.00  0.00    +0.000 A 
ATOM      9  C   UNL     1       1.679   8.423  19.454  0.00  0.00    +0.000 A 
ENDROOT
BRANCH   1  13
ATOM     10  C   UNL     1       4.845   5.742  16.329  0.00  0.00    +0.000 A 
ATOM     11  C   UNL     1       4.015   4.809  16.932  0.00  0.00    +0.000 A 
ATOM     12  C   UNL     1       3.108   5.255  17.896  0.00  0.00    +0.000 A 
ATOM     13  C   UNL     1       3.082   6.609  18.260  0.00  0.00    +0.000 A 
ATOM     14  C   UNL     1       3.988   7.441  17.616  0.00  0.00    +0.000 A 
ATOM     15  N   UNL     1       4.835   7.051  16.642  0.00  0.00    +0.000 NA
BRANCH  10  17
ATOM     16  C   UNL     1       6.819   4.572  15.979  0.00  0.00    +0.000 C 
ATOM     17  O   UNL     1       5.735   5.288  15.383  0.00  0.00    +0.000 OA
ENDBRANCH  10  17
ENDBRANCH   1  13
BRANCH   7  18
ATOM     18  N   UNL     1       1.406  12.011  18.552  0.00  0.00    +0.000 N 
ATOM     19  C   UNL     1       2.718  12.443  18.063  0.00  0.00    +0.000 C 
ATOM     20  C   UNL     1       3.114  13.768  18.730  0.00  0.00    +0.000 C 
ATOM     21  O   UNL     1       2.102  14.773  18.541  0.00  0.00    +0.000 OA
ATOM     22  C   UNL     1       0.853  14.340  19.107  0.00  0.00    +0.000 C 
ATOM     23  C   UNL     1       0.352  13.037  18.460  0.00  0.00    +0.000 C 
ENDBRANCH   7  18
BRANCH   2  24
ATOM     24  C   UNL     1       1.742   4.886  20.657  0.00  0.00    +0.000 A 
ATOM     25  C   UNL     1       0.840   3.882  20.189  0.00  0.00    +0.000 A 
ATOM     26  C   UNL     1       1.220   2.616  20.579  0.00  0.00    +0.000 A 
ATOM     27  S   UNL     1       2.624   2.640  21.554  0.00  0.00    +0.000 S 
ATOM     28  C   UNL     1       2.732   4.346  21.447  0.00  0.00    +0.000 A 
ENDBRANCH   2  24
TORSDOF 4
ENDMDL
MODEL 4
REMARK VINA RESULT:      -7.0      1.454      1.607
REMARK  Name = 
REMARK  5 active torsions:
REMARK  status: ('A' for Active; 'I' for Inactive)
REMARK    1  A    between atoms: C_1  and  O_2
REMARK    2  A    between atoms: O_2  and  C_3
REMARK    3  A    between atoms: C_6  and  C_7
REMARK    4  A    between atoms: C_8  and  C_9
REMARK    5  A    between atoms: C_18  and  N_19
REMARK                            x       y       z     vdW  Elec       q    Type
REMARK                         _______ _______ _______ _____ _____    ______ ____
ROOT
ATOM      1  C   UNL     1       2.660   6.780  18.404  0.00  0.00    +0.000 A 
ATOM      2  C   UNL     1       3.585   7.060  17.393  0.00  0.00    +0.000 A 
ATOM      3  O   UNL     1       3.585   8.408  17.140  0.00  0.00    +0.000 OA
ATOM      4  C   UNL     1       2.638   8.983  17.920  0.00  0.00    +0.000 A 
ATOM      5  C   UNL     1       2.268  10.319  17.897  0.00  0.00    +0.000 A 
ATOM      6  C   UNL     1       1.286  10.712  18.824  0.00  0.00    +0.000 A 
ATOM      7  C   UNL     1       0.723   9.828  19.757  0.00  0.00    +0.000 A 
ATOM      8  C   UNL     1       1.146   8.488  19.723  0.00  0.00    +0.000 A 
ATOM      9  C   UNL     1       2.081   8.041  18.760  0.00  0.00    +0.000 A 
ENDROOT
BRANCH   1  13
ATOM     10  C   UNL     1       1.931   3.115  20.343  0.00  0.00    +0.000 A 
ATOM     11  C   UNL     1       1.356   3.315  19.097  0.00  0.00    +0.000 A 
ATOM     12  C   UNL     1       1.622   4.513  18.430  0.00  0.00    +0.000 A 
ATOM     13  C   UNL     1       2.419   5.492  19.040  0.00  0.00    +0.000 A 
ATOM     14  C   UNL     1       2.906   5.195  20.306  0.00  0.00    +0.000 A 
ATOM     15  N   UNL     1       2.713   4.026  20.950  0.00  0.00    +0.000 NA
BRANCH  10  17
ATOM     16  C   UNL     1       1.239   2.151  22.338  0.00  0.00    +0.000 C 
ATOM     17  O   UNL     1       1.658   1.932  20.990  0.00  0.00    +0.000 OA
ENDBRANCH  10  17
ENDBRANCH   1  13
BRANCH   7  18
ATOM     18  N   UNL     1      -0.237  10.225  20.663  0.00  0.00    +0.000 N 
ATOM     19  C   UNL     1      -0.771  11.588  20.719  0.00  0.00    +0.000 C 
ATOM     20  C   UNL     1      -0.480  12.207  22.093  0.00  0.00    +0.000 C 
ATOM     21  O   UNL     1      -0.982  11.380  23.158  0.00  0.00    +0.000 OA
ATOM     22  C   UNL     1      -0.371  10.079  23.112  0.00  0.00    +0.000 C 
ATOM     23  C   UNL     1      -0.654   9.360  21.781  0.00  0.00    +0.000 C 
ENDBRANCH   7  18
BRANCH   2  24
ATOM     24  C   UNL     1       4.500   6.140  16.640  0.00  0.00    +0.000 A 
ATOM     25  C   UNL     1       4.751   4.791  17.039  0.00  0.00    +0.000 A 
ATOM     26  C   UNL     1       5.575   4.131  16.154  0.00  0.00    +0.000 A 
ATOM     27  S   UNL     1       6.093   5.145  14.880  0.00  0.00    +0.000 S 
ATOM     28  C   UNL     1       5.206   6.470  15.504  0.00  0.00    +0.000 A 
ENDBRANCH   2  24
TORSDOF 4
ENDMDL
MODEL 5
REMARK VINA RESULT:      -6.9      1.891      2.219
REMARK  Name = 
REMARK  5 active torsions:
REMARK  status: ('A' for Active; 'I' for Inactive)
REMARK    1  A    between atoms: C_1  and  O_2
REMARK    2  A    between atoms: O_2  and  C_3
REMARK    3  A    between atoms: C_6  and  C_7
REMARK    4  A    between atoms: C_8  and  C_9
REMARK    5  A    between atoms: C_18  and  N_19
REMARK                            x       y       z     vdW  Elec       q    Type
REMARK                         _______ _______ _______ _____ _____    ______ ____
ROOT
ATOM      1  C   UNL     1       2.528   7.310  18.434  0.00  0.00    +0.000 A 
ATOM      2  C   UNL     1       3.613   7.581  17.594  0.00  0.00    +0.000 A 
ATOM      3  O   UNL     1       3.673   8.929  17.351  0.00  0.00    +0.000 OA
ATOM      4  C   UNL     1       2.615   9.514  17.965  0.00  0.00    +0.000 A 
ATOM      5  C   UNL     1       2.272  10.856  17.886  0.00  0.00    +0.000 A 
ATOM      6  C   UNL     1       1.154  11.259  18.637  0.00  0.00    +0.000 A 
ATOM      7  C   UNL     1       0.432  10.380  19.460  0.00  0.00    +0.000 A 
ATOM      8  C   UNL     1       0.837   9.035  19.490  0.00  0.00    +0.000 A 
ATOM      9  C   UNL     1       1.915   8.577  18.695  0.00  0.00    +0.000 A 
ENDROOT
BRANCH   1  13
ATOM     10  C   UNL     1       1.410   3.649  20.186  0.00  0.00    +0.000 A 
ATOM     11  C   UNL     1       1.400   3.735  18.803  0.00  0.00    +0.000 A 
ATOM     12  C   UNL     1       1.805   4.935  18.212  0.00  0.00    +0.000 A 
ATOM     13  C   UNL     1       2.168   6.024  19.016  0.00  0.00    +0.000 A 
ATOM     14  C   UNL     1       2.100   5.831  20.389  0.00  0.00    +0.000 A 
ATOM     15  N   UNL     1       1.769   4.669  20.988  0.00  0.00    +0.000 NA
BRANCH  10  17
ATOM     16  C   UNL     1       1.598   2.265  22.040  0.00  0.00    +0.000 C 
ATOM     17  O   UNL     1       1.007   2.463  20.755  0.00  0.00    +0.000 OA
ENDBRANCH  10  17
ENDBRANCH   1  13
BRANCH   7  18
ATOM     18  N   UNL     1      -0.661  10.787  20.195  0.00  0.00    +0.000 N 
ATOM     19  C   UNL     1      -1.762  11.569  19.625  0.00  0.00    +0.000 C 
ATOM     20  C   UNL     1      -1.879  12.914  20.355  0.00  0.00    +0.000 C 
ATOM     21  O   UNL     1      -2.017  12.731  21.775  0.00  0.00    +0.000 OA
ATOM     22  C   UNL     1      -0.877  12.031  22.303  0.00  0.00    +0.000 C 
ATOM     23  C   UNL     1      -0.710  10.642  21.660  0.00  0.00    +0.000 C 
ENDBRANCH   7  18
BRANCH   2  24
ATOM     24  C   UNL     1       4.629   6.650  17.000  0.00  0.00    +0.000 A 
ATOM     25  C   UNL     1       4.855   6.536  15.594  0.00  0.00    +0.000 A 
ATOM     26  C   UNL     1       5.880   5.663  15.300  0.00  0.00    +0.000 A 
ATOM     27  S   UNL     1       6.530   4.940  16.705  0.00  0.00    +0.000 S 
ATOM     28  C   UNL     1       5.447   5.801  17.713  0.00  0.00    +0.000 A 
ENDBRANCH   2  24
TORSDOF 4
ENDMDL
MODEL 6
REMARK VINA RESULT:      -6.9      2.768      4.898
REMARK  Name = 
REMARK  5 active torsions:
REMARK  status: ('A' for Active; 'I' for Inactive)
REMARK    1  A    between atoms: C_1  and  O_2
REMARK    2  A    between atoms: O_2  and  C_3
REMARK    3  A    between atoms: C_6  and  C_7
REMARK    4  A    between atoms: C_8  and  C_9
REMARK    5  A    between atoms: C_18  and  N_19
REMARK                            x       y       z     vdW  Elec       q    Type
REMARK                         _______ _______ _______ _____ _____    ______ ____
ROOT
ATOM      1  C   UNL     1       2.203   7.128  19.769  0.00  0.00    +0.000 A 
ATOM      2  C   UNL     1       1.522   6.173  20.530  0.00  0.00    +0.000 A 
ATOM      3  O   UNL     1       0.543   6.792  21.264  0.00  0.00    +0.000 OA
ATOM      4  C   UNL     1       0.628   8.126  21.037  0.00  0.00    +0.000 A 
ATOM      5  C   UNL     1      -0.131   9.105  21.660  0.00  0.00    +0.000 A 
ATOM      6  C   UNL     1       0.095  10.429  21.244  0.00  0.00    +0.000 A 
ATOM      7  C   UNL     1       1.003  10.764  20.228  0.00  0.00    +0.000 A 
ATOM      8  C   UNL     1       1.737   9.719  19.641  0.00  0.00    +0.000 A 
ATOM      9  C   UNL     1       1.589   8.383  20.081  0.00  0.00    +0.000 A 
ENDROOT
BRANCH   1  13
ATOM     10  C   UNL     1       5.193   6.300  16.922  0.00  0.00    +0.000 A 
ATOM     11  C   UNL     1       4.211   7.218  16.583  0.00  0.00    +0.000 A 
ATOM     12  C   UNL     1       3.236   7.526  17.534  0.00  0.00    +0.000 A 
ATOM     13  C   UNL     1       3.244   6.882  18.780  0.00  0.00    +0.000 A 
ATOM     14  C   UNL     1       4.253   5.952  18.990  0.00  0.00    +0.000 A 
ATOM     15  N   UNL     1       5.241   5.676  18.114  0.00  0.00    +0.000 NA
BRANCH  10  17
ATOM     16  C   UNL     1       6.709   4.707  16.179  0.00  0.00    +0.000 C 
ATOM     17  O   UNL     1       6.145   6.004  15.974  0.00  0.00    +0.000 OA
ENDBRANCH  10  17
ENDBRANCH   1  13
BRANCH   7  18
ATOM     18  N   UNL     1       1.214  12.065  19.826  0.00  0.00    +0.000 N 
ATOM     19  C   UNL     1       1.434  12.445  18.427  0.00  0.00    +0.000 C 
ATOM     20  C   UNL     1       2.811  13.105  18.276  0.00  0.00    +0.000 C 
ATOM     21  O   UNL     1       2.961  14.218  19.175  0.00  0.00    +0.000 OA
ATOM     22  C   UNL     1       2.818  13.785  20.538  0.00  0.00    +0.000 C 
ATOM     23  C   UNL     1       1.439  13.152  20.795  0.00  0.00    +0.000 C 
ENDBRANCH   7  18
BRANCH   2  24
ATOM     24  C   UNL     1       1.714   4.687  20.610  0.00  0.00    +0.000 A 
ATOM     25  C   UNL     1       1.225   3.782  19.617  0.00  0.00    +0.000 A 
ATOM     26  C   UNL     1       1.580   2.477  19.881  0.00  0.00    +0.000 A 
ATOM     27  S   UNL     1       2.447   2.332  21.347  0.00  0.00    +0.000 S 
ATOM     28  C   UNL     1       2.358   4.019  21.628  0.00  0.00    +0.000 A 
ENDBRANCH   2  24
TORSDOF 4
ENDMDL
MODEL 7
REMARK VINA RESULT:      -6.9      5.260      7.745
REMARK  Name = 
REMARK  5 active torsions:
REMARK  status: ('A' for Active; 'I' for Inactive)
REMARK    1  A    between atoms: C_1  and  O_2
REMARK    2  A    between atoms: O_2  and  C_3
REMARK    3  A    between atoms: C_6  and  C_7
REMARK    4  A    between atoms: C_8  and  C_9
REMARK    5  A    between atoms: C_18  and  N_19
REMARK                            x       y       z     vdW  Elec       q    Type
REMARK                         _______ _______ _______ _____ _____    ______ ____
ROOT
ATOM      1  C   UNL     1       0.670  11.890  18.814  0.00  0.00    +0.000 A 
ATOM      2  C   UNL     1      -0.610  12.287  18.415  0.00  0.00    +0.000 A 
ATOM      3  O   UNL     1      -0.647  13.653  18.308  0.00  0.00    +0.000 OA
ATOM      4  C   UNL     1       0.559  14.138  18.692  0.00  0.00    +0.000 A 
ATOM      5  C   UNL     1       0.895  15.479  18.807  0.00  0.00    +0.000 A 
ATOM      6  C   UNL     1       2.220  15.760  19.185  0.00  0.00    +0.000 A 
ATOM      7  C   UNL     1       3.180  14.759  19.401  0.00  0.00    +0.000 A 
ATOM      8  C   UNL     1       2.767  13.422  19.265  0.00  0.00    +0.000 A 
ATOM      9  C   UNL     1       1.425  13.098  18.954  0.00  0.00    +0.000 A 
ENDROOT
BRANCH   1  13
ATOM     10  C   UNL     1       1.987   7.913  19.238  0.00  0.00    +0.000 A 
ATOM     11  C   UNL     1       2.247   8.558  18.038  0.00  0.00    +0.000 A 
ATOM     12  C   UNL     1       1.846   9.889  17.902  0.00  0.00    +0.000 A 
ATOM     13  C   UNL     1       1.163  10.525  18.948  0.00  0.00    +0.000 A 
ATOM     14  C   UNL     1       0.925   9.766  20.086  0.00  0.00    +0.000 A 
ATOM     15  N   UNL     1       1.350   8.499  20.268  0.00  0.00    +0.000 NA
BRANCH  10  17
ATOM     16  C   UNL     1       3.278   6.223  18.309  0.00  0.00    +0.000 C 
ATOM     17  O   UNL     1       2.385   6.601  19.358  0.00  0.00    +0.000 OA
ENDBRANCH  10  17
ENDBRANCH   1  13
BRANCH   7  18
ATOM     18  N   UNL     1       4.477  15.046  19.768  0.00  0.00    +0.000 N 
ATOM     19  C   UNL     1       4.933  15.042  21.161  0.00  0.00    +0.000 C 
ATOM     20  C   UNL     1       5.450  16.436  21.544  0.00  0.00    +0.000 C 
ATOM     21  O   UNL     1       6.471  16.886  20.635  0.00  0.00    +0.000 OA
ATOM     22  C   UNL     1       5.955  16.950  19.294  0.00  0.00    +0.000 C 
ATOM     23  C   UNL     1       5.457  15.578  18.806  0.00  0.00    +0.000 C 
ENDBRANCH   7  18
BRANCH   2  24
ATOM     24  C   UNL     1      -1.823  11.462  18.103  0.00  0.00    +0.000 A 
ATOM     25  C   UNL     1      -1.771  10.253  17.343  0.00  0.00    +0.000 A 
ATOM     26  C   UNL     1      -3.004   9.645  17.245  0.00  0.00    +0.000 A 
ATOM     27  S   UNL     1      -4.230  10.553  18.015  0.00  0.00    +0.000 S 
ATOM     28  C   UNL     1      -3.111  11.759  18.491  0.00  0.00    +0.000 A 
ENDBRANCH   2  24
TORSDOF 4
ENDMDL
MODEL 8
REMARK VINA RESULT:      -6.8      2.695      4.843
REMARK  Name = 
REMARK  5 active torsions:
REMARK  status: ('A' for Active; 'I' for Inactive)
REMARK    1  A    between atoms: C_1  and  O_2
REMARK    2  A    between atoms: O_2  and  C_3
REMARK    3  A    between atoms: C_6  and  C_7
REMARK    4  A    between atoms: C_8  and  C_9
REMARK    5  A    between atoms: C_18  and  N_19
REMARK                            x       y       z     vdW  Elec       q    Type
REMARK                         _______ _______ _______ _____ _____    ______ ____
ROOT
ATOM      1  C   UNL     1       2.196   7.152  19.774  0.00  0.00    +0.000 A 
ATOM      2  C   UNL     1       1.515   6.208  20.548  0.00  0.00    +0.000 A 
ATOM      3  O   UNL     1       0.537   6.838  21.273  0.00  0.00    +0.000 OA
ATOM      4  C   UNL     1       0.621   8.168  21.027  0.00  0.00    +0.000 A 
ATOM      5  C   UNL     1      -0.138   9.157  21.636  0.00  0.00    +0.000 A 
ATOM      6  C   UNL     1       0.088  10.474  21.200  0.00  0.00    +0.000 A 
ATOM      7  C   UNL     1       0.996  10.794  20.179  0.00  0.00    +0.000 A 
ATOM      8  C   UNL     1       1.730   9.741  19.607  0.00  0.00    +0.000 A 
ATOM      9  C   UNL     1       1.582   8.411  20.067  0.00  0.00    +0.000 A 
ENDROOT
BRANCH   1  13
ATOM     10  C   UNL     1       5.183   6.282  16.936  0.00  0.00    +0.000 A 
ATOM     11  C   UNL     1       4.223   7.224  16.599  0.00  0.00    +0.000 A 
ATOM     12  C   UNL     1       3.250   7.546  17.548  0.00  0.00    +0.000 A 
ATOM     13  C   UNL     1       3.237   6.891  18.788  0.00  0.00    +0.000 A 
ATOM     14  C   UNL     1       4.225   5.938  18.996  0.00  0.00    +0.000 A 
ATOM     15  N   UNL     1       5.211   5.647  18.122  0.00  0.00    +0.000 NA
BRANCH  10  17
ATOM     16  C   UNL     1       6.934   4.859  16.391  0.00  0.00    +0.000 C 
ATOM     17  O   UNL     1       6.134   5.973  15.991  0.00  0.00    +0.000 OA
ENDBRANCH  10  17
ENDBRANCH   1  13
BRANCH   7  18
ATOM     18  N   UNL     1       1.207  12.090  19.757  0.00  0.00    +0.000 N 
ATOM     19  C   UNL     1       2.004  13.058  20.515  0.00  0.00    +0.000 C 
ATOM     20  C   UNL     1       1.132  14.261  20.903  0.00  0.00    +0.000 C 
ATOM     21  O   UNL     1       0.508  14.851  19.749  0.00  0.00    +0.000 OA
ATOM     22  C   UNL     1      -0.326  13.887  19.083  0.00  0.00    +0.000 C 
ATOM     23  C   UNL     1       0.478  12.662  18.612  0.00  0.00    +0.000 C 
ENDBRANCH   7  18
BRANCH   2  24
ATOM     24  C   UNL     1       1.707   4.723  20.650  0.00  0.00    +0.000 A 
ATOM     25  C   UNL     1       1.169   3.800  19.702  0.00  0.00    +0.000 A 
ATOM     26  C   UNL     1       1.533   2.499  19.976  0.00  0.00    +0.000 A 
ATOM     27  S   UNL     1       2.469   2.382  21.401  0.00  0.00    +0.000 S 
ATOM     28  C   UNL     1       2.398   4.075  21.650  0.00  0.00    +0.000 A 
ENDBRANCH   2  24
TORSDOF 4
ENDMDL
MODEL 9
REMARK VINA RESULT:      -6.7      2.839      5.019
REMARK  Name = 
REMARK  5 active torsions:
REMARK  status: ('A' for Active; 'I' for Inactive)
REMARK    1  A    between atoms: C_1  and  O_2
REMARK    2  A    between atoms: O_2  and  C_3
REMARK    3  A    between atoms: C_6  and  C_7
REMARK    4  A    between atoms: C_8  and  C_9
REMARK    5  A    between atoms: C_18  and  N_19
REMARK                            x       y       z     vdW  Elec       q    Type
REMARK                         _______ _______ _______ _____ _____    ______ ____
ROOT
ATOM      1  C   UNL     1       2.073   7.276  19.732  0.00  0.00    +0.000 A 
ATOM      2  C   UNL     1       1.468   6.343  20.580  0.00  0.00    +0.000 A 
ATOM      3  O   UNL     1       0.572   6.985  21.395  0.00  0.00    +0.000 OA
ATOM      4  C   UNL     1       0.639   8.313  21.130  0.00  0.00    +0.000 A 
ATOM      5  C   UNL     1      -0.049   9.311  21.804  0.00  0.00    +0.000 A 
ATOM      6  C   UNL     1       0.138  10.624  21.336  0.00  0.00    +0.000 A 
ATOM      7  C   UNL     1       0.940  10.929  20.226  0.00  0.00    +0.000 A 
ATOM      8  C   UNL     1       1.607   9.867  19.592  0.00  0.00    +0.000 A 
ATOM      9  C   UNL     1       1.498   8.542  20.076  0.00  0.00    +0.000 A 
ENDROOT
BRANCH   1  13
ATOM     10  C   UNL     1       4.801   6.597  16.599  0.00  0.00    +0.000 A 
ATOM     11  C   UNL     1       4.887   5.786  17.720  0.00  0.00    +0.000 A 
ATOM     12  C   UNL     1       3.963   5.980  18.749  0.00  0.00    +0.000 A 
ATOM     13  C   UNL     1       3.007   7.001  18.649  0.00  0.00    +0.000 A 
ATOM     14  C   UNL     1       3.045   7.775  17.497  0.00  0.00    +0.000 A 
ATOM     15  N   UNL     1       3.887   7.575  16.462  0.00  0.00    +0.000 NA
BRANCH  10  17
ATOM     16  C   UNL     1       5.664   5.063  15.086  0.00  0.00    +0.000 C 
ATOM     17  O   UNL     1       5.720   6.397  15.594  0.00  0.00    +0.000 OA
ENDBRANCH  10  17
ENDBRANCH   1  13
BRANCH   7  18
ATOM     18  N   UNL     1       1.115  12.220  19.774  0.00  0.00    +0.000 N 
ATOM     19  C   UNL     1       1.972  13.196  20.452  0.00  0.00    +0.000 C 
ATOM     20  C   UNL     1       1.136  14.404  20.898  0.00  0.00    +0.000 C 
ATOM     21  O   UNL     1       0.417  14.981  19.794  0.00  0.00    +0.000 OA
ATOM     22  C   UNL     1      -0.470  14.011  19.211  0.00  0.00    +0.000 C 
ATOM     23  C   UNL     1       0.292  12.781  18.688  0.00  0.00    +0.000 C 
ENDBRANCH   7  18
BRANCH   2  24
ATOM     24  C   UNL     1       1.661   4.858  20.675  0.00  0.00    +0.000 A 
ATOM     25  C   UNL     1       1.017   3.930  19.800  0.00  0.00    +0.000 A 
ATOM     26  C   UNL     1       1.401   2.629  20.045  0.00  0.00    +0.000 A 
ATOM     27  S   UNL     1       2.486   2.518  21.361  0.00  0.00    +0.000 S 
ATOM     28  C   UNL     1       2.453   4.214  21.599  0.00  0.00    +0.000 A 
ENDBRANCH   2  24
TORSDOF 4
ENDMDL
