MODEL 1
REMARK VINA RESULT:      -6.4      0.000      0.000
REMARK  Name = 
REMARK  13 active torsions:
REMARK  status: ('A' for Active; 'I' for Inactive)
REMARK    1  A    between atoms: C_1  and  C_2
REMARK    2  A    between atoms: C_4  and  C_5
REMARK    3  A    between atoms: C_6  and  C_7
REMARK    4  A    between atoms: C_8  and  S_9
REMARK    5  A    between atoms: S_9  and  N_12
REMARK    6  A    between atoms: C_14  and  O_15
REMARK    7  A    between atoms: C_17  and  C_18
REMARK    8  A    between atoms: N_20  and  C_21
REMARK    9  A    between atoms: C_21  and  C_22
REMARK   10  A    between atoms: C_22  and  O_24
REMARK   11  A    between atoms: O_24  and  C_25
REMARK   12  A    between atoms: C_25  and  C_26
REMARK   13  A    between atoms: C_29  and  C_30
REMARK                            x       y       z     vdW  Elec       q    Type
REMARK                         _______ _______ _______ _____ _____    ______ ____
ROOT
ATOM      1  N   UNL     1      -0.604  12.287  19.582  0.00  0.00    +0.000 NA
ATOM      2  C   UNL     1      -0.810  12.579  18.141  0.00  0.00    +0.000 C 
ATOM      3  C   UNL     1      -1.672  11.459  17.574  0.00  0.00    +0.000 C 
ATOM      4  C   UNL     1      -1.657  10.336  18.591  0.00  0.00    +0.000 C 
ATOM      5  C   UNL     1      -1.044  10.888  19.890  0.00  0.00    +0.000 C 
ENDROOT
BRANCH   5   6
ATOM      6  C   UNL     1      -0.044   9.878  20.487  0.00  0.00    +0.000 C 
ATOM      7  O   UNL     1       0.067   9.675  21.697  0.00  0.00    +0.000 OA
ATOM      8  N   UNL     1       0.778   9.233  19.580  0.00  0.00    +0.000 N 
ATOM      9  H   UNL     1       0.606   9.335  18.585  0.00  0.00    +0.000 HD
BRANCH   8  10
ATOM     10  C   UNL     1       1.775   8.259  20.005  0.00  0.00    +0.000 C 
BRANCH  10  11
ATOM     11  C   UNL     1       2.419   7.467  18.862  0.00  0.00    +0.000 C 
ATOM     12  O   UNL     1       2.961   7.969  17.884  0.00  0.00    +0.000 OA
BRANCH  11  13
ATOM     13  O   UNL     1       2.115   6.142  18.994  0.00  0.00    +0.000 OA
BRANCH  13  14
ATOM     14  C   UNL     1       1.981   5.667  20.342  0.00  0.00    +0.000 C 
BRANCH  14  15
ATOM     15  C   UNL     1       1.056   4.495  20.446  0.00  0.00    +0.000 C 
ATOM     16  C   UNL     1       1.076   3.365  19.450  0.00  0.00    +0.000 C 
ATOM     17  C   UNL     1       1.610   3.140  20.834  0.00  0.00    +0.000 C 
ENDBRANCH  14  15
ENDBRANCH  13  14
ENDBRANCH  11  13
ENDBRANCH  10  11
ENDBRANCH   8  10
ENDBRANCH   5   6
BRANCH   1  18
ATOM     18  S   UNL     1       0.797  12.890  20.328  0.00  0.00    +0.000 S 
ATOM     19  O   UNL     1       1.918  12.037  19.951  0.00  0.00    +0.000 OA
ATOM     20  O   UNL     1       0.490  13.025  21.734  0.00  0.00    +0.000 OA
BRANCH  18  28
ATOM     21  C   UNL     1       3.348  16.587  17.287  0.00  0.00    +0.000 C 
ATOM     22  C   UNL     1       2.210  16.180  18.196  0.00  0.00    +0.000 A 
ATOM     23  C   UNL     1       1.240  17.145  18.481  0.00  0.00    +0.000 A 
ATOM     24  C   UNL     1       0.153  16.864  19.310  0.00  0.00    +0.000 A 
ATOM     25  C   UNL     1      -0.848  17.970  19.547  0.00  0.00    +0.000 C 
ATOM     26  C   UNL     1       0.013  15.567  19.872  0.00  0.00    +0.000 A 
ATOM     27  C   UNL     1      -1.152  15.343  20.810  0.00  0.00    +0.000 C 
ATOM     28  C   UNL     1       0.996  14.555  19.586  0.00  0.00    +0.000 A 
ATOM     29  C   UNL     1       2.109  14.869  18.744  0.00  0.00    +0.000 A 
ATOM     30  C   UNL     1       3.224  13.928  18.354  0.00  0.00    +0.000 C 
ENDBRANCH  18  28
ENDBRANCH   1  18
BRANCH   3  31
ATOM     31  O   UNL     1      -3.009  11.886  17.321  0.00  0.00    +0.000 OA
ATOM     32  H   UNL     1      -3.158  11.897  16.360  0.00  0.00    +0.000 HD
ENDBRANCH   3  31
TORSDOF 9
ENDMDL
MODEL 2
REMARK VINA RESULT:      -6.4      0.401      2.129
REMARK  Name = 
REMARK  13 active torsions:
REMARK  status: ('A' for Active; 'I' for Inactive)
REMARK    1  A    between atoms: C_1  and  C_2
REMARK    2  A    between atoms: C_4  and  C_5
REMARK    3  A    between atoms: C_6  and  C_7
REMARK    4  A    between atoms: C_8  and  S_9
REMARK    5  A    between atoms: S_9  and  N_12
REMARK    6  A    between atoms: C_14  and  O_15
REMARK    7  A    between atoms: C_17  and  C_18
REMARK    8  A    between atoms: N_20  and  C_21
REMARK    9  A    between atoms: C_21  and  C_22
REMARK   10  A    between atoms: C_22  and  O_24
REMARK   11  A    between atoms: O_24  and  C_25
REMARK   12  A    between atoms: C_25  and  C_26
REMARK   13  A    between atoms: C_29  and  C_30
REMARK                            x       y       z     vdW  Elec       q    Type
REMARK                         _______ _______ _______ _____ _____    ______ ____
ROOT
ATOM      1  N   UNL     1      -0.680  12.442  19.630  0.00  0.00    +0.000 NA
ATOM      2  C   UNL     1      -0.929  12.709  18.191  0.00  0.00    +0.000 C 
ATOM      3  C   UNL     1      -1.843  11.602  17.681  0.00  0.00    +0.000 C 
ATOM      4  C   UNL     1      -1.822  10.501  18.722  0.00  0.00    +0.000 C 
ATOM      5  C   UNL     1      -1.146  11.063  19.986  0.00  0.00    +0.000 C 
ENDROOT
BRANCH   5   6
ATOM      6  C   UNL     1      -0.154  10.039  20.569  0.00  0.00    +0.000 C 
ATOM      7  O   UNL     1      -0.028   9.835  21.777  0.00  0.00    +0.000 OA
ATOM      8  N   UNL     1       0.643   9.378  19.650  0.00  0.00    +0.000 N 
ATOM      9  H   UNL     1       0.457   9.481  18.658  0.00  0.00    +0.000 HD
BRANCH   8  10
ATOM     10  C   UNL     1       1.631   8.389  20.062  0.00  0.00    +0.000 C 
BRANCH  10  11
ATOM     11  C   UNL     1       2.377   7.715  18.905  0.00  0.00    +0.000 C 
ATOM     12  O   UNL     1       2.408   8.137  17.755  0.00  0.00    +0.000 OA
BRANCH  11  13
ATOM     13  O   UNL     1       2.815   6.483  19.298  0.00  0.00    +0.000 OA
BRANCH  13  14
ATOM     14  C   UNL     1       2.007   5.821  20.282  0.00  0.00    +0.000 C 
BRANCH  14  15
ATOM     15  C   UNL     1       2.159   4.332  20.240  0.00  0.00    +0.000 C 
ATOM     16  C   UNL     1       1.253   3.411  21.016  0.00  0.00    +0.000 C 
ATOM     17  C   UNL     1       1.120   3.496  19.523  0.00  0.00    +0.000 C 
ENDBRANCH  14  15
ENDBRANCH  13  14
ENDBRANCH  11  13
ENDBRANCH  10  11
ENDBRANCH   8  10
ENDBRANCH   5   6
BRANCH   1  18
ATOM     18  S   UNL     1       0.764  13.020  20.312  0.00  0.00    +0.000 S 
ATOM     19  O   UNL     1       1.869  12.235  19.776  0.00  0.00    +0.000 OA
ATOM     20  O   UNL     1       0.570  13.029  21.744  0.00  0.00    +0.000 OA
BRANCH  18  28
ATOM     21  C   UNL     1      -0.845  18.195  20.069  0.00  0.00    +0.000 C 
ATOM     22  C   UNL     1       0.075  17.075  19.639  0.00  0.00    +0.000 A 
ATOM     23  C   UNL     1       1.077  17.388  18.715  0.00  0.00    +0.000 A 
ATOM     24  C   UNL     1       1.974  16.421  18.258  0.00  0.00    +0.000 A 
ATOM     25  C   UNL     1       3.028  16.861  17.269  0.00  0.00    +0.000 C 
ATOM     26  C   UNL     1       1.884  15.089  18.744  0.00  0.00    +0.000 A 
ATOM     27  C   UNL     1       2.845  14.075  18.165  0.00  0.00    +0.000 C 
ATOM     28  C   UNL     1       0.865  14.747  19.702  0.00  0.00    +0.000 A 
ATOM     29  C   UNL     1      -0.053  15.751  20.146  0.00  0.00    +0.000 A 
ATOM     30  C   UNL     1      -1.176  15.554  21.137  0.00  0.00    +0.000 C 
ENDBRANCH  18  28
ENDBRANCH   1  18
BRANCH   3  31
ATOM     31  O   UNL     1      -3.176  12.061  17.467  0.00  0.00    +0.000 OA
ATOM     32  H   UNL     1      -3.195  12.599  16.657  0.00  0.00    +0.000 HD
ENDBRANCH   3  31
TORSDOF 9
ENDMDL
MODEL 3
REMARK VINA RESULT:      -6.4      2.073      3.211
REMARK  Name = 
REMARK  13 active torsions:
REMARK  status: ('A' for Active; 'I' for Inactive)
REMARK    1  A    between atoms: C_1  and  C_2
REMARK    2  A    between atoms: C_4  and  C_5
REMARK    3  A    between atoms: C_6  and  C_7
REMARK    4  A    between atoms: C_8  and  S_9
REMARK    5  A    between atoms: S_9  and  N_12
REMARK    6  A    between atoms: C_14  and  O_15
REMARK    7  A    between atoms: C_17  and  C_18
REMARK    8  A    between atoms: N_20  and  C_21
REMARK    9  A    between atoms: C_21  and  C_22
REMARK   10  A    between atoms: C_22  and  O_24
REMARK   11  A    between atoms: O_24  and  C_25
REMARK   12  A    between atoms: C_25  and  C_26
REMARK   13  A    between atoms: C_29  and  C_30
REMARK                            x       y       z     vdW  Elec       q    Type
REMARK                         _______ _______ _______ _____ _____    ______ ____
ROOT
ATOM      1  N   UNL     1      -0.740  11.745  20.119  0.00  0.00    +0.000 NA
ATOM      2  C   UNL     1      -1.176  12.752  19.118  0.00  0.00    +0.000 C 
ATOM      3  C   UNL     1      -1.664  11.988  17.895  0.00  0.00    +0.000 C 
ATOM      4  C   UNL     1      -1.170  10.563  18.042  0.00  0.00    +0.000 C 
ATOM      5  C   UNL     1      -0.650  10.393  19.481  0.00  0.00    +0.000 C 
ENDROOT
BRANCH   5   6
ATOM      6  C   UNL     1       0.685   9.624  19.485  0.00  0.00    +0.000 C 
ATOM      7  O   UNL     1       1.560   9.789  18.634  0.00  0.00    +0.000 OA
ATOM      8  N   UNL     1       0.837   8.681  20.486  0.00  0.00    +0.000 N 
ATOM      9  H   UNL     1       0.154   8.629  21.235  0.00  0.00    +0.000 HD
BRANCH   8  10
ATOM     10  C   UNL     1       2.045   7.875  20.605  0.00  0.00    +0.000 C 
BRANCH  10  11
ATOM     11  C   UNL     1       1.980   6.521  19.889  0.00  0.00    +0.000 C 
ATOM     12  O   UNL     1       2.263   6.341  18.711  0.00  0.00    +0.000 OA
BRANCH  11  13
ATOM     13  O   UNL     1       1.368   5.605  20.696  0.00  0.00    +0.000 OA
BRANCH  13  14
ATOM     14  C   UNL     1       2.087   4.380  20.902  0.00  0.00    +0.000 C 
BRANCH  14  15
ATOM     15  C   UNL     1       1.269   3.172  20.569  0.00  0.00    +0.000 C 
ATOM     16  C   UNL     1       0.682   2.953  19.199  0.00  0.00    +0.000 C 
ATOM     17  C   UNL     1       1.841   2.113  19.651  0.00  0.00    +0.000 C 
ENDBRANCH  14  15
ENDBRANCH  13  14
ENDBRANCH  11  13
ENDBRANCH  10  11
ENDBRANCH   8  10
ENDBRANCH   5   6
BRANCH   1  18
ATOM     18  S   UNL     1       0.444  12.201  21.247  0.00  0.00    +0.000 S 
ATOM     19  O   UNL     1       1.591  12.727  20.518  0.00  0.00    +0.000 OA
ATOM     20  O   UNL     1       0.653  11.059  22.109  0.00  0.00    +0.000 OA
BRANCH  18  28
ATOM     21  C   UNL     1      -0.019  17.302  23.034  0.00  0.00    +0.000 C 
ATOM     22  C   UNL     1      -0.507  15.872  22.976  0.00  0.00    +0.000 A 
ATOM     23  C   UNL     1      -1.662  15.559  23.699  0.00  0.00    +0.000 A 
ATOM     24  C   UNL     1      -2.188  14.266  23.707  0.00  0.00    +0.000 A 
ATOM     25  C   UNL     1      -3.447  14.031  24.509  0.00  0.00    +0.000 C 
ATOM     26  C   UNL     1      -1.551  13.240  22.959  0.00  0.00    +0.000 A 
ATOM     27  C   UNL     1      -2.134  11.848  23.058  0.00  0.00    +0.000 C 
ATOM     28  C   UNL     1      -0.365  13.542  22.201  0.00  0.00    +0.000 A 
ATOM     29  C   UNL     1       0.165  14.871  22.217  0.00  0.00    +0.000 A 
ATOM     30  C   UNL     1       1.398  15.347  21.486  0.00  0.00    +0.000 C 
ENDBRANCH  18  28
ENDBRANCH   1  18
BRANCH   3  31
ATOM     31  O   UNL     1      -3.085  12.014  17.777  0.00  0.00    +0.000 OA
ATOM     32  H   UNL     1      -3.330  11.748  16.874  0.00  0.00    +0.000 HD
ENDBRANCH   3  31
TORSDOF 9
ENDMDL
MODEL 4
REMARK VINA RESULT:      -6.3      2.107      3.671
REMARK  Name = 
REMARK  13 active torsions:
REMARK  status: ('A' for Active; 'I' for Inactive)
REMARK    1  A    between atoms: C_1  and  C_2
REMARK    2  A    between atoms: C_4  and  C_5
REMARK    3  A    between atoms: C_6  and  C_7
REMARK    4  A    between atoms: C_8  and  S_9
REMARK    5  A    between atoms: S_9  and  N_12
REMARK    6  A    between atoms: C_14  and  O_15
REMARK    7  A    between atoms: C_17  and  C_18
REMARK    8  A    between atoms: N_20  and  C_21
REMARK    9  A    between atoms: C_21  and  C_22
REMARK   10  A    between atoms: C_22  and  O_24
REMARK   11  A    between atoms: O_24  and  C_25
REMARK   12  A    between atoms: C_25  and  C_26
REMARK   13  A    between atoms: C_29  and  C_30
REMARK                            x       y       z     vdW  Elec       q    Type
REMARK                         _______ _______ _______ _____ _____    ______ ____
ROOT
ATOM      1  N   UNL     1      -0.760  11.600  20.074  0.00  0.00    +0.000 NA
ATOM      2  C   UNL     1      -1.300  12.654  19.178  0.00  0.00    +0.000 C 
ATOM      3  C   UNL     1      -1.837  11.955  17.935  0.00  0.00    +0.000 C 
ATOM      4  C   UNL     1      -1.278  10.547  17.948  0.00  0.00    +0.000 C 
ATOM      5  C   UNL     1      -0.658  10.301  19.335  0.00  0.00    +0.000 C 
ENDROOT
BRANCH   5   6
ATOM      6  C   UNL     1       0.704   9.594  19.200  0.00  0.00    +0.000 C 
ATOM      7  O   UNL     1       1.527   9.877  18.329  0.00  0.00    +0.000 OA
ATOM      8  N   UNL     1       0.943   8.565  20.095  0.00  0.00    +0.000 N 
ATOM      9  H   UNL     1       0.303   8.412  20.867  0.00  0.00    +0.000 HD
BRANCH   8  10
ATOM     10  C   UNL     1       2.186   7.805  20.076  0.00  0.00    +0.000 C 
BRANCH  10  11
ATOM     11  C   UNL     1       2.005   6.294  19.887  0.00  0.00    +0.000 C 
ATOM     12  O   UNL     1       1.766   5.502  20.791  0.00  0.00    +0.000 OA
BRANCH  11  13
ATOM     13  O   UNL     1       2.355   5.947  18.614  0.00  0.00    +0.000 OA
BRANCH  13  14
ATOM     14  C   UNL     1       2.955   4.651  18.466  0.00  0.00    +0.000 C 
BRANCH  14  15
ATOM     15  C   UNL     1       2.039   3.668  17.807  0.00  0.00    +0.000 C 
ATOM     16  C   UNL     1       2.363   2.198  17.725  0.00  0.00    +0.000 C 
ATOM     17  C   UNL     1       1.283   2.667  18.655  0.00  0.00    +0.000 C 
ENDBRANCH  14  15
ENDBRANCH  13  14
ENDBRANCH  11  13
ENDBRANCH  10  11
ENDBRANCH   8  10
ENDBRANCH   5   6
BRANCH   1  18
ATOM     18  S   UNL     1       0.477  12.028  21.155  0.00  0.00    +0.000 S 
ATOM     19  O   UNL     1       1.597  12.553  20.384  0.00  0.00    +0.000 OA
ATOM     20  O   UNL     1       0.712  10.873  21.992  0.00  0.00    +0.000 OA
BRANCH  18  28
ATOM     21  C   UNL     1      -3.217  14.048  24.575  0.00  0.00    +0.000 C 
ATOM     22  C   UNL     1      -1.988  14.211  23.710  0.00  0.00    +0.000 A 
ATOM     23  C   UNL     1      -1.384  15.472  23.684  0.00  0.00    +0.000 A 
ATOM     24  C   UNL     1      -0.247  15.720  22.914  0.00  0.00    +0.000 A 
ATOM     25  C   UNL     1       0.339  17.112  22.964  0.00  0.00    +0.000 C 
ATOM     26  C   UNL     1       0.325  14.672  22.144  0.00  0.00    +0.000 A 
ATOM     27  C   UNL     1       1.520  15.020  21.285  0.00  0.00    +0.000 C 
ATOM     28  C   UNL     1      -0.275  13.364  22.162  0.00  0.00    +0.000 A 
ATOM     29  C   UNL     1      -1.449  13.136  22.947  0.00  0.00    +0.000 A 
ATOM     30  C   UNL     1      -2.200  11.831  23.068  0.00  0.00    +0.000 C 
ENDBRANCH  18  28
ENDBRANCH   1  18
BRANCH   3  31
ATOM     31  O   UNL     1      -3.263  11.926  17.909  0.00  0.00    +0.000 OA
ATOM     32  H   UNL     1      -3.599  12.798  18.178  0.00  0.00    +0.000 HD
ENDBRANCH   3  31
TORSDOF 9
ENDMDL
MODEL 5
REMARK VINA RESULT:      -6.2      1.917      2.963
REMARK  Name = 
REMARK  13 active torsions:
REMARK  status: ('A' for Active; 'I' for Inactive)
REMARK    1  A    between atoms: C_1  and  C_2
REMARK    2  A    between atoms: C_4  and  C_5
REMARK    3  A    between atoms: C_6  and  C_7
REMARK    4  A    between atoms: C_8  and  S_9
REMARK    5  A    between atoms: S_9  and  N_12
REMARK    6  A    between atoms: C_14  and  O_15
REMARK    7  A    between atoms: C_17  and  C_18
REMARK    8  A    between atoms: N_20  and  C_21
REMARK    9  A    between atoms: C_21  and  C_22
REMARK   10  A    between atoms: C_22  and  O_24
REMARK   11  A    between atoms: O_24  and  C_25
REMARK   12  A    between atoms: C_25  and  C_26
REMARK   13  A    between atoms: C_29  and  C_30
REMARK                            x       y       z     vdW  Elec       q    Type
REMARK                         _______ _______ _______ _____ _____    ______ ____
ROOT
ATOM      1  N   UNL     1      -0.394  11.237  19.668  0.00  0.00    +0.000 NA
ATOM      2  C   UNL     1      -1.216  12.253  18.962  0.00  0.00    +0.000 C 
ATOM      3  C   UNL     1      -1.902  11.546  17.800  0.00  0.00    +0.000 C 
ATOM      4  C   UNL     1      -1.194  10.219  17.614  0.00  0.00    +0.000 C 
ATOM      5  C   UNL     1      -0.292   9.993  18.840  0.00  0.00    +0.000 C 
ENDROOT
BRANCH   5   6
ATOM      6  C   UNL     1       1.090   9.467  18.404  0.00  0.00    +0.000 C 
ATOM      7  O   UNL     1       1.753   9.982  17.502  0.00  0.00    +0.000 OA
ATOM      8  N   UNL     1       1.537   8.331  19.054  0.00  0.00    +0.000 N 
ATOM      9  H   UNL     1       1.029   7.980  19.860  0.00  0.00    +0.000 HD
BRANCH   8  10
ATOM     10  C   UNL     1       2.822   7.720  18.737  0.00  0.00    +0.000 C 
BRANCH  10  11
ATOM     11  C   UNL     1       3.018   6.314  19.316  0.00  0.00    +0.000 C 
ATOM     12  O   UNL     1       4.103   5.760  19.449  0.00  0.00    +0.000 OA
BRANCH  11  13
ATOM     13  O   UNL     1       1.805   5.705  19.461  0.00  0.00    +0.000 OA
BRANCH  13  14
ATOM     14  C   UNL     1       1.561   5.103  20.741  0.00  0.00    +0.000 C 
BRANCH  14  15
ATOM     15  C   UNL     1       1.047   3.702  20.626  0.00  0.00    +0.000 C 
ATOM     16  C   UNL     1       1.874   2.589  20.036  0.00  0.00    +0.000 C 
ATOM     17  C   UNL     1       1.623   2.620  21.516  0.00  0.00    +0.000 C 
ENDBRANCH  14  15
ENDBRANCH  13  14
ENDBRANCH  11  13
ENDBRANCH  10  11
ENDBRANCH   8  10
ENDBRANCH   5   6
BRANCH   1  18
ATOM     18  S   UNL     1       0.974  11.770  20.522  0.00  0.00    +0.000 S 
ATOM     19  O   UNL     1       1.948  12.269  19.559  0.00  0.00    +0.000 OA
ATOM     20  O   UNL     1       1.370  10.680  21.386  0.00  0.00    +0.000 OA
BRANCH  18  28
ATOM     21  C   UNL     1       0.895  16.910  22.252  0.00  0.00    +0.000 C 
ATOM     22  C   UNL     1       0.359  15.497  22.283  0.00  0.00    +0.000 A 
ATOM     23  C   UNL     1      -0.706  15.234  23.149  0.00  0.00    +0.000 A 
ATOM     24  C   UNL     1      -1.267  13.959  23.248  0.00  0.00    +0.000 A 
ATOM     25  C   UNL     1      -2.423  13.780  24.203  0.00  0.00    +0.000 C 
ATOM     26  C   UNL     1      -0.760  12.902  22.447  0.00  0.00    +0.000 A 
ATOM     27  C   UNL     1      -1.370  11.532  22.645  0.00  0.00    +0.000 C 
ATOM     28  C   UNL     1       0.332  13.152  21.543  0.00  0.00    +0.000 A 
ATOM     29  C   UNL     1       0.901  14.462  21.467  0.00  0.00    +0.000 A 
ATOM     30  C   UNL     1       2.048  14.886  20.579  0.00  0.00    +0.000 C 
ENDBRANCH  18  28
ENDBRANCH   1  18
BRANCH   3  31
ATOM     31  O   UNL     1      -3.292  11.341  18.041  0.00  0.00    +0.000 OA
ATOM     32  H   UNL     1      -3.548  11.834  18.840  0.00  0.00    +0.000 HD
ENDBRANCH   3  31
TORSDOF 9
ENDMDL
MODEL 6
REMARK VINA RESULT:      -6.2      1.311      2.617
REMARK  Name = 
REMARK  13 active torsions:
REMARK  status: ('A' for Active; 'I' for Inactive)
REMARK    1  A    between atoms: C_1  and  C_2
REMARK    2  A    between atoms: C_4  and  C_5
REMARK    3  A    between atoms: C_6  and  C_7
REMARK    4  A    between atoms: C_8  and  S_9
REMARK    5  A    between atoms: S_9  and  N_12
REMARK    6  A    between atoms: C_14  and  O_15
REMARK    7  A    between atoms: C_17  and  C_18
REMARK    8  A    between atoms: N_20  and  C_21
REMARK    9  A    between atoms: C_21  and  C_22
REMARK   10  A    between atoms: C_22  and  O_24
REMARK   11  A    between atoms: O_24  and  C_25
REMARK   12  A    between atoms: C_25  and  C_26
REMARK   13  A    between atoms: C_29  and  C_30
REMARK                            x       y       z     vdW  Elec       q    Type
REMARK                         _______ _______ _______ _____ _____    ______ ____
ROOT
ATOM      1  N   UNL     1      -0.726  12.338  19.475  0.00  0.00    +0.000 NA
ATOM      2  C   UNL     1      -0.968  12.602  18.034  0.00  0.00    +0.000 C 
ATOM      3  C   UNL     1      -1.856  11.479  17.515  0.00  0.00    +0.000 C 
ATOM      4  C   UNL     1      -1.824  10.377  18.555  0.00  0.00    +0.000 C 
ATOM      5  C   UNL     1      -1.170  10.951  19.825  0.00  0.00    +0.000 C 
ENDROOT
BRANCH   5   6
ATOM      6  C   UNL     1      -0.164   9.944  20.415  0.00  0.00    +0.000 C 
ATOM      7  O   UNL     1      -0.086   9.696  21.620  0.00  0.00    +0.000 OA
ATOM      8  N   UNL     1       0.705   9.356  19.512  0.00  0.00    +0.000 N 
ATOM      9  H   UNL     1       0.562   9.492  18.517  0.00  0.00    +0.000 HD
BRANCH   8  10
ATOM     10  C   UNL     1       1.713   8.391  19.933  0.00  0.00    +0.000 C 
BRANCH  10  11
ATOM     11  C   UNL     1       2.403   7.650  18.782  0.00  0.00    +0.000 C 
ATOM     12  O   UNL     1       2.573   8.109  17.659  0.00  0.00    +0.000 OA
BRANCH  11  13
ATOM     13  O   UNL     1       2.607   6.346  19.134  0.00  0.00    +0.000 OA
BRANCH  13  14
ATOM     14  C   UNL     1       2.686   5.414  18.045  0.00  0.00    +0.000 C 
BRANCH  14  15
ATOM     15  C   UNL     1       4.086   4.953  17.786  0.00  0.00    +0.000 C 
ATOM     16  C   UNL     1       4.434   4.057  16.626  0.00  0.00    +0.000 C 
ATOM     17  C   UNL     1       4.843   5.501  16.594  0.00  0.00    +0.000 C 
ENDBRANCH  14  15
ENDBRANCH  13  14
ENDBRANCH  11  13
ENDBRANCH  10  11
ENDBRANCH   8  10
ENDBRANCH   5   6
BRANCH   1  18
ATOM     18  S   UNL     1       0.702  12.943  20.169  0.00  0.00    +0.000 S 
ATOM     19  O   UNL     1       1.822  12.154  19.670  0.00  0.00    +0.000 OA
ATOM     20  O   UNL     1       0.481  12.982  21.597  0.00  0.00    +0.000 OA
BRANCH  18  28
ATOM     21  C   UNL     1      -1.099  18.023  19.559  0.00  0.00    +0.000 C 
ATOM     22  C   UNL     1      -0.080  16.940  19.285  0.00  0.00    +0.000 A 
ATOM     23  C   UNL     1       1.017  17.278  18.487  0.00  0.00    +0.000 A 
ATOM     24  C   UNL     1       2.008  16.345  18.179  0.00  0.00    +0.000 A 
ATOM     25  C   UNL     1       3.160  16.811  17.319  0.00  0.00    +0.000 C 
ATOM     26  C   UNL     1       1.917  15.024  18.692  0.00  0.00    +0.000 A 
ATOM     27  C   UNL     1       2.991  14.044  18.271  0.00  0.00    +0.000 C 
ATOM     28  C   UNL     1       0.801  14.656  19.522  0.00  0.00    +0.000 A 
ATOM     29  C   UNL     1      -0.211  15.624  19.815  0.00  0.00    +0.000 A 
ATOM     30  C   UNL     1      -1.443  15.397  20.660  0.00  0.00    +0.000 C 
ENDBRANCH  18  28
ENDBRANCH   1  18
BRANCH   3  31
ATOM     31  O   UNL     1      -3.196  11.914  17.290  0.00  0.00    +0.000 OA
ATOM     32  H   UNL     1      -3.194  12.876  17.151  0.00  0.00    +0.000 HD
ENDBRANCH   3  31
TORSDOF 9
ENDMDL
MODEL 7
REMARK VINA RESULT:      -6.2      1.934      3.375
REMARK  Name = 
REMARK  13 active torsions:
REMARK  status: ('A' for Active; 'I' for Inactive)
REMARK    1  A    between atoms: C_1  and  C_2
REMARK    2  A    between atoms: C_4  and  C_5
REMARK    3  A    between atoms: C_6  and  C_7
REMARK    4  A    between atoms: C_8  and  S_9
REMARK    5  A    between atoms: S_9  and  N_12
REMARK    6  A    between atoms: C_14  and  O_15
REMARK    7  A    between atoms: C_17  and  C_18
REMARK    8  A    between atoms: N_20  and  C_21
REMARK    9  A    between atoms: C_21  and  C_22
REMARK   10  A    between atoms: C_22  and  O_24
REMARK   11  A    between atoms: O_24  and  C_25
REMARK   12  A    between atoms: C_25  and  C_26
REMARK   13  A    between atoms: C_29  and  C_30
REMARK                            x       y       z     vdW  Elec       q    Type
REMARK                         _______ _______ _______ _____ _____    ______ ____
ROOT
ATOM      1  N   UNL     1      -0.485  11.438  19.683  0.00  0.00    +0.000 NA
ATOM      2  C   UNL     1      -1.228  12.518  18.986  0.00  0.00    +0.000 C 
ATOM      3  C   UNL     1      -1.905  11.889  17.775  0.00  0.00    +0.000 C 
ATOM      4  C   UNL     1      -1.259  10.534  17.566  0.00  0.00    +0.000 C 
ATOM      5  C   UNL     1      -0.415  10.220  18.814  0.00  0.00    +0.000 C 
ENDROOT
BRANCH   5   6
ATOM      6  C   UNL     1       0.953   9.639  18.407  0.00  0.00    +0.000 C 
ATOM      7  O   UNL     1       1.654  10.123  17.517  0.00  0.00    +0.000 OA
ATOM      8  N   UNL     1       1.344   8.489  19.071  0.00  0.00    +0.000 N 
ATOM      9  H   UNL     1       0.806   8.162  19.867  0.00  0.00    +0.000 HD
BRANCH   8  10
ATOM     10  C   UNL     1       2.609   7.827  18.782  0.00  0.00    +0.000 C 
BRANCH  10  11
ATOM     11  C   UNL     1       2.564   6.297  18.875  0.00  0.00    +0.000 C 
ATOM     12  O   UNL     1       2.204   5.554  17.970  0.00  0.00    +0.000 OA
BRANCH  11  13
ATOM     13  O   UNL     1       2.781   5.911  20.166  0.00  0.00    +0.000 OA
BRANCH  13  14
ATOM     14  C   UNL     1       1.770   5.069  20.740  0.00  0.00    +0.000 C 
BRANCH  14  15
ATOM     15  C   UNL     1       2.249   3.667  20.960  0.00  0.00    +0.000 C 
ATOM     16  C   UNL     1       1.393   2.622  21.628  0.00  0.00    +0.000 C 
ATOM     17  C   UNL     1       1.647   2.538  20.151  0.00  0.00    +0.000 C 
ENDBRANCH  14  15
ENDBRANCH  13  14
ENDBRANCH  11  13
ENDBRANCH  10  11
ENDBRANCH   8  10
ENDBRANCH   5   6
BRANCH   1  18
ATOM     18  S   UNL     1       0.876  11.869  20.603  0.00  0.00    +0.000 S 
ATOM     19  O   UNL     1       1.904  12.361  19.695  0.00  0.00    +0.000 OA
ATOM     20  O   UNL     1       1.192  10.727  21.432  0.00  0.00    +0.000 OA
BRANCH  18  28
ATOM     21  C   UNL     1      -2.417  14.034  24.331  0.00  0.00    +0.000 C 
ATOM     22  C   UNL     1      -1.270  14.150  23.352  0.00  0.00    +0.000 A 
ATOM     23  C   UNL     1      -0.632  15.390  23.258  0.00  0.00    +0.000 A 
ATOM     24  C   UNL     1       0.436  15.595  22.383  0.00  0.00    +0.000 A 
ATOM     25  C   UNL     1       1.067  16.968  22.363  0.00  0.00    +0.000 C 
ATOM     26  C   UNL     1       0.900  14.524  21.574  0.00  0.00    +0.000 A 
ATOM     27  C   UNL     1       2.020  14.826  20.603  0.00  0.00    +0.000 C 
ATOM     28  C   UNL     1       0.263  13.236  21.661  0.00  0.00    +0.000 A 
ATOM     29  C   UNL     1      -0.839  13.052  22.555  0.00  0.00    +0.000 A 
ATOM     30  C   UNL     1      -1.616  11.773  22.758  0.00  0.00    +0.000 C 
ENDBRANCH  18  28
ENDBRANCH   1  18
BRANCH   3  31
ATOM     31  O   UNL     1      -3.312  11.748  17.961  0.00  0.00    +0.000 OA
ATOM     32  H   UNL     1      -3.713  12.633  18.007  0.00  0.00    +0.000 HD
ENDBRANCH   3  31
TORSDOF 9
ENDMDL
MODEL 8
REMARK VINA RESULT:      -6.2      3.031      4.970
REMARK  Name = 
REMARK  13 active torsions:
REMARK  status: ('A' for Active; 'I' for Inactive)
REMARK    1  A    between atoms: C_1  and  C_2
REMARK    2  A    between atoms: C_4  and  C_5
REMARK    3  A    between atoms: C_6  and  C_7
REMARK    4  A    between atoms: C_8  and  S_9
REMARK    5  A    between atoms: S_9  and  N_12
REMARK    6  A    between atoms: C_14  and  O_15
REMARK    7  A    between atoms: C_17  and  C_18
REMARK    8  A    between atoms: N_20  and  C_21
REMARK    9  A    between atoms: C_21  and  C_22
REMARK   10  A    between atoms: C_22  and  O_24
REMARK   11  A    between atoms: O_24  and  C_25
REMARK   12  A    between atoms: C_25  and  C_26
REMARK   13  A    between atoms: C_29  and  C_30
REMARK                            x       y       z     vdW  Elec       q    Type
REMARK                         _______ _______ _______ _____ _____    ______ ____
ROOT
ATOM      1  N   UNL     1      -0.521  11.418  20.255  0.00  0.00    +0.000 NA
ATOM      2  C   UNL     1      -1.272  10.571  21.215  0.00  0.00    +0.000 C 
ATOM      3  C   UNL     1      -0.244   9.865  22.090  0.00  0.00    +0.000 C 
ATOM      4  C   UNL     1       1.097  10.017  21.400  0.00  0.00    +0.000 C 
ATOM      5  C   UNL     1       0.933  11.060  20.281  0.00  0.00    +0.000 C 
ENDROOT
BRANCH   5   6
ATOM      6  C   UNL     1       1.634  10.585  18.993  0.00  0.00    +0.000 C 
ATOM      7  O   UNL     1       2.198  11.351  18.211  0.00  0.00    +0.000 OA
ATOM      8  N   UNL     1       1.553   9.230  18.725  0.00  0.00    +0.000 N 
ATOM      9  H   UNL     1       1.176   8.601  19.427  0.00  0.00    +0.000 HD
BRANCH   8  10
ATOM     10  C   UNL     1       2.164   8.644  17.539  0.00  0.00    +0.000 C 
BRANCH  10  11
ATOM     11  C   UNL     1       2.992   7.382  17.806  0.00  0.00    +0.000 C 
ATOM     12  O   UNL     1       4.200   7.289  17.623  0.00  0.00    +0.000 OA
BRANCH  11  13
ATOM     13  O   UNL     1       2.158   6.334  18.074  0.00  0.00    +0.000 OA
BRANCH  13  14
ATOM     14  C   UNL     1       2.790   5.051  18.189  0.00  0.00    +0.000 C 
BRANCH  14  15
ATOM     15  C   UNL     1       1.926   3.939  17.681  0.00  0.00    +0.000 C 
ATOM     16  C   UNL     1       2.336   2.493  17.781  0.00  0.00    +0.000 C 
ATOM     17  C   UNL     1       1.243   3.015  18.667  0.00  0.00    +0.000 C 
ENDBRANCH  14  15
ENDBRANCH  13  14
ENDBRANCH  11  13
ENDBRANCH  10  11
ENDBRANCH   8  10
ENDBRANCH   5   6
BRANCH   1  18
ATOM     18  S   UNL     1      -1.252  11.775  18.764  0.00  0.00    +0.000 S 
ATOM     19  O   UNL     1      -1.204  10.578  17.933  0.00  0.00    +0.000 OA
ATOM     20  O   UNL     1      -0.612  12.973  18.267  0.00  0.00    +0.000 OA
BRANCH  18  28
ATOM     21  C   UNL     1      -5.085  14.482  21.486  0.00  0.00    +0.000 C 
ATOM     22  C   UNL     1      -4.669  13.422  20.491  0.00  0.00    +0.000 A 
ATOM     23  C   UNL     1      -5.686  12.690  19.872  0.00  0.00    +0.000 A 
ATOM     24  C   UNL     1      -5.400  11.690  18.940  0.00  0.00    +0.000 A 
ATOM     25  C   UNL     1      -6.570  10.964  18.317  0.00  0.00    +0.000 C 
ATOM     26  C   UNL     1      -4.050  11.410  18.598  0.00  0.00    +0.000 A 
ATOM     27  C   UNL     1      -3.805  10.275  17.629  0.00  0.00    +0.000 C 
ATOM     28  C   UNL     1      -2.988  12.158  19.217  0.00  0.00    +0.000 A 
ATOM     29  C   UNL     1      -3.302  13.168  20.180  0.00  0.00    +0.000 A 
ATOM     30  C   UNL     1      -2.309  14.032  20.921  0.00  0.00    +0.000 C 
ENDBRANCH  18  28
ENDBRANCH   1  18
BRANCH   3  31
ATOM     31  O   UNL     1      -0.192  10.411  23.407  0.00  0.00    +0.000 OA
ATOM     32  H   UNL     1      -0.253   9.684  24.050  0.00  0.00    +0.000 HD
ENDBRANCH   3  31
TORSDOF 9
ENDMDL
MODEL 9
REMARK VINA RESULT:      -6.1      6.664     10.270
REMARK  Name = 
REMARK  13 active torsions:
REMARK  status: ('A' for Active; 'I' for Inactive)
REMARK    1  A    between atoms: C_1  and  C_2
REMARK    2  A    between atoms: C_4  and  C_5
REMARK    3  A    between atoms: C_6  and  C_7
REMARK    4  A    between atoms: C_8  and  S_9
REMARK    5  A    between atoms: S_9  and  N_12
REMARK    6  A    between atoms: C_14  and  O_15
REMARK    7  A    between atoms: C_17  and  C_18
REMARK    8  A    between atoms: N_20  and  C_21
REMARK    9  A    between atoms: C_21  and  C_22
REMARK   10  A    between atoms: C_22  and  O_24
REMARK   11  A    between atoms: O_24  and  C_25
REMARK   12  A    between atoms: C_25  and  C_26
REMARK   13  A    between atoms: C_29  and  C_30
REMARK                            x       y       z     vdW  Elec       q    Type
REMARK                         _______ _______ _______ _____ _____    ______ ____
ROOT
ATOM      1  N   UNL     1       5.882   5.618  18.234  0.00  0.00    +0.000 NA
ATOM      2  C   UNL     1       6.162   5.112  19.601  0.00  0.00    +0.000 C 
ATOM      3  C   UNL     1       7.673   5.149  19.793  0.00  0.00    +0.000 C 
ATOM      4  C   UNL     1       8.286   5.326  18.418  0.00  0.00    +0.000 C 
ATOM      5  C   UNL     1       7.152   5.696  17.444  0.00  0.00    +0.000 C 
ENDROOT
BRANCH   5   6
ATOM      6  C   UNL     1       7.293   4.906  16.128  0.00  0.00    +0.000 C 
ATOM      7  O   UNL     1       7.651   3.728  16.083  0.00  0.00    +0.000 OA
ATOM      8  N   UNL     1       7.042   5.617  14.967  0.00  0.00    +0.000 N 
ATOM      9  H   UNL     1       6.651   6.552  15.025  0.00  0.00    +0.000 HD
BRANCH   8  10
ATOM     10  C   UNL     1       7.145   4.999  13.651  0.00  0.00    +0.000 C 
BRANCH  10  11
ATOM     11  C   UNL     1       5.933   4.150  13.250  0.00  0.00    +0.000 C 
ATOM     12  O   UNL     1       5.022   3.834  14.005  0.00  0.00    +0.000 OA
BRANCH  11  13
ATOM     13  O   UNL     1       6.129   3.634  12.001  0.00  0.00    +0.000 OA
BRANCH  13  14
ATOM     14  C   UNL     1       5.158   2.669  11.568  0.00  0.00    +0.000 C 
BRANCH  14  15
ATOM     15  C   UNL     1       3.822   3.286  11.291  0.00  0.00    +0.000 C 
ATOM     16  C   UNL     1       3.584   4.188  10.108  0.00  0.00    +0.000 C 
ATOM     17  C   UNL     1       3.007   2.802  10.111  0.00  0.00    +0.000 C 
ENDBRANCH  14  15
ENDBRANCH  13  14
ENDBRANCH  11  13
ENDBRANCH  10  11
ENDBRANCH   8  10
ENDBRANCH   5   6
BRANCH   1  18
ATOM     18  S   UNL     1       4.466   5.088  17.460  0.00  0.00    +0.000 S 
ATOM     19  O   UNL     1       4.678   3.718  17.008  0.00  0.00    +0.000 OA
ATOM     20  O   UNL     1       4.138   6.088  16.469  0.00  0.00    +0.000 OA
BRANCH  18  28
ATOM     21  C   UNL     1       1.248   2.785  21.171  0.00  0.00    +0.000 C 
ATOM     22  C   UNL     1       1.774   4.007  20.453  0.00  0.00    +0.000 A 
ATOM     23  C   UNL     1       1.265   5.249  20.844  0.00  0.00    +0.000 A 
ATOM     24  C   UNL     1       1.689   6.433  20.239  0.00  0.00    +0.000 A 
ATOM     25  C   UNL     1       1.089   7.726  20.742  0.00  0.00    +0.000 C 
ATOM     26  C   UNL     1       2.666   6.389  19.210  0.00  0.00    +0.000 A 
ATOM     27  C   UNL     1       3.038   7.699  18.553  0.00  0.00    +0.000 C 
ATOM     28  C   UNL     1       3.209   5.122  18.796  0.00  0.00    +0.000 A 
ATOM     29  C   UNL     1       2.751   3.919  19.420  0.00  0.00    +0.000 A 
ATOM     30  C   UNL     1       3.212   2.516  19.099  0.00  0.00    +0.000 C 
ENDBRANCH  18  28
ENDBRANCH   1  18
BRANCH   3  31
ATOM     31  O   UNL     1       8.078   6.207  20.659  0.00  0.00    +0.000 OA
ATOM     32  H   UNL     1       7.288   6.589  21.078  0.00  0.00    +0.000 HD
ENDBRANCH   3  31
TORSDOF 9
ENDMDL
