MODEL 1
REMARK VINA RESULT:      -7.3      0.000      0.000
REMARK  Name = 
REMARK  4 active torsions:
REMARK  status: ('A' for Active; 'I' for Inactive)
REMARK    1  A    between atoms: C_1  and  C_2
REMARK    2  A    between atoms: C_2  and  C_3
REMARK    3  A    between atoms: C_3  and  N_4
REMARK    4  A    between atoms: C_16  and  C_17
REMARK                            x       y       z     vdW  Elec       q    Type
REMARK                         _______ _______ _______ _____ _____    ______ ____
ROOT
ATOM      1  N   UNL     1       5.623   5.164  15.657  0.00  0.00    +0.000 N 
ATOM      2  N   UNL     1       5.284   6.507  15.560  0.00  0.00    +0.000 NA
ATOM      3  N   UNL     1       4.542   7.041  16.422  0.00  0.00    +0.000 NA
ATOM      4  C   UNL     1       4.050   6.285  17.430  0.00  0.00    +0.000 A 
ATOM      5  S   UNL     1       2.987   6.902  18.614  0.00  0.00    +0.000 S 
ATOM      6  C   UNL     1       2.844   5.377  19.360  0.00  0.00    +0.000 A 
ATOM      7  C   UNL     1       3.634   4.414  18.758  0.00  0.00    +0.000 A 
ATOM      8  C   UNL     1       4.309   4.953  17.624  0.00  0.00    +0.000 A 
ATOM      9  C   UNL     1       5.176   4.313  16.666  0.00  0.00    +0.000 A 
ATOM     10  O   UNL     1       5.475   3.125  16.751  0.00  0.00    +0.000 OA
ATOM     11  C   UNL     1       3.671   2.990  19.225  0.00  0.00    +0.000 C 
ATOM     12  C   UNL     1       2.988   2.822  20.590  0.00  0.00    +0.000 C 
ATOM     13  C   UNL     1       1.673   3.623  20.706  0.00  0.00    +0.000 C 
ATOM     14  C   UNL     1       0.623   3.129  19.702  0.00  0.00    +0.000 C 
ATOM     15  C   UNL     1       1.949   5.136  20.539  0.00  0.00    +0.000 C 
ENDROOT
BRANCH   1  16
ATOM     16  C   UNL     1       6.504   4.653  14.617  0.00  0.00    +0.000 C 
BRANCH  16  18
ATOM     17  C   UNL     1       6.564   3.696  12.266  0.00  0.00    +0.000 C 
ATOM     18  C   UNL     1       5.768   3.838  13.554  0.00  0.00    +0.000 C 
ENDBRANCH  16  18
ENDBRANCH   1  16
TORSDOF 2
ENDMDL
MODEL 2
REMARK VINA RESULT:      -7.2      2.530      3.437
REMARK  Name = 
REMARK  4 active torsions:
REMARK  status: ('A' for Active; 'I' for Inactive)
REMARK    1  A    between atoms: C_1  and  C_2
REMARK    2  A    between atoms: C_2  and  C_3
REMARK    3  A    between atoms: C_3  and  N_4
REMARK    4  A    between atoms: C_16  and  C_17
REMARK                            x       y       z     vdW  Elec       q    Type
REMARK                         _______ _______ _______ _____ _____    ______ ____
ROOT
ATOM      1  N   UNL     1       5.560   5.878  16.936  0.00  0.00    +0.000 N 
ATOM      2  N   UNL     1       5.984   4.762  16.228  0.00  0.00    +0.000 NA
ATOM      3  N   UNL     1       5.393   3.661  16.359  0.00  0.00    +0.000 NA
ATOM      4  C   UNL     1       4.357   3.566  17.224  0.00  0.00    +0.000 A 
ATOM      5  S   UNL     1       3.530   2.102  17.518  0.00  0.00    +0.000 S 
ATOM      6  C   UNL     1       2.530   2.838  18.685  0.00  0.00    +0.000 A 
ATOM      7  C   UNL     1       2.775   4.193  18.817  0.00  0.00    +0.000 A 
ATOM      8  C   UNL     1       3.856   4.593  17.979  0.00  0.00    +0.000 A 
ATOM      9  C   UNL     1       4.496   5.879  17.836  0.00  0.00    +0.000 A 
ATOM     10  O   UNL     1       4.121   6.865  18.464  0.00  0.00    +0.000 OA
ATOM     11  C   UNL     1       2.031   5.058  19.790  0.00  0.00    +0.000 C 
ATOM     12  C   UNL     1       0.804   4.338  20.368  0.00  0.00    +0.000 C 
ATOM     13  C   UNL     1       1.087   2.864  20.729  0.00  0.00    +0.000 C 
ATOM     14  C   UNL     1       2.141   2.749  21.838  0.00  0.00    +0.000 C 
ATOM     15  C   UNL     1       1.505   2.072  19.466  0.00  0.00    +0.000 C 
ENDROOT
BRANCH   1  16
ATOM     16  C   UNL     1       6.302   7.107  16.693  0.00  0.00    +0.000 C 
BRANCH  16  18
ATOM     17  C   UNL     1       7.984   8.643  17.813  0.00  0.00    +0.000 C 
ATOM     18  C   UNL     1       7.584   7.206  17.518  0.00  0.00    +0.000 C 
ENDBRANCH  16  18
ENDBRANCH   1  16
TORSDOF 2
ENDMDL
MODEL 3
REMARK VINA RESULT:      -7.0      0.917      1.078
REMARK  Name = 
REMARK  4 active torsions:
REMARK  status: ('A' for Active; 'I' for Inactive)
REMARK    1  A    between atoms: C_1  and  C_2
REMARK    2  A    between atoms: C_2  and  C_3
REMARK    3  A    between atoms: C_3  and  N_4
REMARK    4  A    between atoms: C_16  and  C_17
REMARK                            x       y       z     vdW  Elec       q    Type
REMARK                         _______ _______ _______ _____ _____    ______ ____
ROOT
ATOM      1  N   UNL     1       6.104   5.518  16.742  0.00  0.00    +0.000 N 
ATOM      2  N   UNL     1       5.558   6.737  16.364  0.00  0.00    +0.000 NA
ATOM      3  N   UNL     1       4.518   7.170  16.920  0.00  0.00    +0.000 NA
ATOM      4  C   UNL     1       3.916   6.420  17.871  0.00  0.00    +0.000 A 
ATOM      5  S   UNL     1       2.468   6.892  18.641  0.00  0.00    +0.000 S 
ATOM      6  C   UNL     1       2.413   5.448  19.544  0.00  0.00    +0.000 A 
ATOM      7  C   UNL     1       3.506   4.634  19.312  0.00  0.00    +0.000 A 
ATOM      8  C   UNL     1       4.357   5.202  18.319  0.00  0.00    +0.000 A 
ATOM      9  C   UNL     1       5.562   4.685  17.719  0.00  0.00    +0.000 A 
ATOM     10  O   UNL     1       6.043   3.605  18.052  0.00  0.00    +0.000 OA
ATOM     11  C   UNL     1       3.680   3.302  19.980  0.00  0.00    +0.000 C 
ATOM     12  C   UNL     1       2.687   3.113  21.136  0.00  0.00    +0.000 C 
ATOM     13  C   UNL     1       1.265   3.609  20.794  0.00  0.00    +0.000 C 
ATOM     14  C   UNL     1       0.650   2.805  19.642  0.00  0.00    +0.000 C 
ATOM     15  C   UNL     1       1.287   5.124  20.480  0.00  0.00    +0.000 C 
ENDROOT
BRANCH   1  16
ATOM     16  C   UNL     1       7.320   5.121  16.047  0.00  0.00    +0.000 C 
BRANCH  16  18
ATOM     17  C   UNL     1       5.998   3.865  14.281  0.00  0.00    +0.000 C 
ATOM     18  C   UNL     1       7.105   4.872  14.555  0.00  0.00    +0.000 C 
ENDBRANCH  16  18
ENDBRANCH   1  16
TORSDOF 2
ENDMDL
MODEL 4
REMARK VINA RESULT:      -6.7      2.895      3.876
REMARK  Name = 
REMARK  4 active torsions:
REMARK  status: ('A' for Active; 'I' for Inactive)
REMARK    1  A    between atoms: C_1  and  C_2
REMARK    2  A    between atoms: C_2  and  C_3
REMARK    3  A    between atoms: C_3  and  N_4
REMARK    4  A    between atoms: C_16  and  C_17
REMARK                            x       y       z     vdW  Elec       q    Type
REMARK                         _______ _______ _______ _____ _____    ______ ____
ROOT
ATOM      1  N   UNL     1       6.444   6.594  17.849  0.00  0.00    +0.000 N 
ATOM      2  N   UNL     1       7.354   5.755  18.477  0.00  0.00    +0.000 NA
ATOM      3  N   UNL     1       6.989   4.643  18.933  0.00  0.00    +0.000 NA
ATOM      4  C   UNL     1       5.687   4.285  18.836  0.00  0.00    +0.000 A 
ATOM      5  S   UNL     1       5.081   2.825  19.478  0.00  0.00    +0.000 S 
ATOM      6  C   UNL     1       3.491   3.212  19.003  0.00  0.00    +0.000 A 
ATOM      7  C   UNL     1       3.419   4.409  18.313  0.00  0.00    +0.000 A 
ATOM      8  C   UNL     1       4.700   5.030  18.247  0.00  0.00    +0.000 A 
ATOM      9  C   UNL     1       5.090   6.303  17.690  0.00  0.00    +0.000 A 
ATOM     10  O   UNL     1       4.283   7.045  17.137  0.00  0.00    +0.000 OA
ATOM     11  C   UNL     1       2.127   4.971  17.800  0.00  0.00    +0.000 C 
ATOM     12  C   UNL     1       0.992   3.938  17.865  0.00  0.00    +0.000 C 
ATOM     13  C   UNL     1       0.997   3.123  19.178  0.00  0.00    +0.000 C 
ATOM     14  C   UNL     1       0.753   4.020  20.397  0.00  0.00    +0.000 C 
ATOM     15  C   UNL     1       2.319   2.330  19.313  0.00  0.00    +0.000 C 
ENDROOT
BRANCH   1  16
ATOM     16  C   UNL     1       6.978   7.847  17.339  0.00  0.00    +0.000 C 
BRANCH  16  18
ATOM     17  C   UNL     1       8.443   9.782  18.086  0.00  0.00    +0.000 C 
ATOM     18  C   UNL     1       8.274   8.272  18.029  0.00  0.00    +0.000 C 
ENDBRANCH  16  18
ENDBRANCH   1  16
TORSDOF 2
ENDMDL
MODEL 5
REMARK VINA RESULT:      -6.6      2.454      2.922
REMARK  Name = 
REMARK  4 active torsions:
REMARK  status: ('A' for Active; 'I' for Inactive)
REMARK    1  A    between atoms: C_1  and  C_2
REMARK    2  A    between atoms: C_2  and  C_3
REMARK    3  A    between atoms: C_3  and  N_4
REMARK    4  A    between atoms: C_16  and  C_17
REMARK                            x       y       z     vdW  Elec       q    Type
REMARK                         _______ _______ _______ _____ _____    ______ ____
ROOT
ATOM      1  N   UNL     1       6.034   6.294  17.796  0.00  0.00    +0.000 N 
ATOM      2  N   UNL     1       5.215   7.234  17.184  0.00  0.00    +0.000 NA
ATOM      3  N   UNL     1       3.979   7.245  17.407  0.00  0.00    +0.000 NA
ATOM      4  C   UNL     1       3.448   6.310  18.228  0.00  0.00    +0.000 A 
ATOM      5  S   UNL     1       1.775   6.204  18.547  0.00  0.00    +0.000 S 
ATOM      6  C   UNL     1       1.992   4.826  19.525  0.00  0.00    +0.000 A 
ATOM      7  C   UNL     1       3.323   4.475  19.660  0.00  0.00    +0.000 A 
ATOM      8  C   UNL     1       4.153   5.332  18.880  0.00  0.00    +0.000 A 
ATOM      9  C   UNL     1       5.579   5.305  18.665  0.00  0.00    +0.000 A 
ATOM     10  O   UNL     1       6.302   4.472  19.205  0.00  0.00    +0.000 OA
ATOM     11  C   UNL     1       3.770   3.289  20.462  0.00  0.00    +0.000 C 
ATOM     12  C   UNL     1       2.633   2.729  21.329  0.00  0.00    +0.000 C 
ATOM     13  C   UNL     1       1.281   2.673  20.583  0.00  0.00    +0.000 C 
ATOM     14  C   UNL     1       1.339   1.719  19.384  0.00  0.00    +0.000 C 
ATOM     15  C   UNL     1       0.845   4.095  20.156  0.00  0.00    +0.000 C 
ENDROOT
BRANCH   1  16
ATOM     16  C   UNL     1       7.453   6.385  17.483  0.00  0.00    +0.000 C 
BRANCH  16  18
ATOM     17  C   UNL     1       8.226   8.761  17.931  0.00  0.00    +0.000 C 
ATOM     18  C   UNL     1       8.215   7.321  18.420  0.00  0.00    +0.000 C 
ENDBRANCH  16  18
ENDBRANCH   1  16
TORSDOF 2
ENDMDL
MODEL 6
REMARK VINA RESULT:      -6.6      2.986      5.880
REMARK  Name = 
REMARK  4 active torsions:
REMARK  status: ('A' for Active; 'I' for Inactive)
REMARK    1  A    between atoms: C_1  and  C_2
REMARK    2  A    between atoms: C_2  and  C_3
REMARK    3  A    between atoms: C_3  and  N_4
REMARK    4  A    between atoms: C_16  and  C_17
REMARK                            x       y       z     vdW  Elec       q    Type
REMARK                         _______ _______ _______ _____ _____    ______ ____
ROOT
ATOM      1  N   UNL     1       1.943   3.862  18.895  0.00  0.00    +0.000 N 
ATOM      2  N   UNL     1       1.664   3.391  17.619  0.00  0.00    +0.000 NA
ATOM      3  N   UNL     1       2.540   3.430  16.719  0.00  0.00    +0.000 NA
ATOM      4  C   UNL     1       3.750   3.968  16.998  0.00  0.00    +0.000 A 
ATOM      5  S   UNL     1       4.983   4.122  15.828  0.00  0.00    +0.000 S 
ATOM      6  C   UNL     1       6.017   4.895  16.941  0.00  0.00    +0.000 A 
ATOM      7  C   UNL     1       5.463   4.990  18.204  0.00  0.00    +0.000 A 
ATOM      8  C   UNL     1       4.136   4.468  18.213  0.00  0.00    +0.000 A 
ATOM      9  C   UNL     1       3.164   4.417  19.277  0.00  0.00    +0.000 A 
ATOM     10  O   UNL     1       3.410   4.836  20.405  0.00  0.00    +0.000 OA
ATOM     11  C   UNL     1       6.174   5.640  19.353  0.00  0.00    +0.000 C 
ATOM     12  C   UNL     1       7.654   5.895  19.034  0.00  0.00    +0.000 C 
ATOM     13  C   UNL     1       7.876   6.433  17.603  0.00  0.00    +0.000 C 
ATOM     14  C   UNL     1       7.213   7.802  17.407  0.00  0.00    +0.000 C 
ATOM     15  C   UNL     1       7.374   5.406  16.560  0.00  0.00    +0.000 C 
ENDROOT
BRANCH   1  16
ATOM     16  C   UNL     1       0.865   3.749  19.866  0.00  0.00    +0.000 C 
BRANCH  16  18
ATOM     17  C   UNL     1       1.650   2.608  21.994  0.00  0.00    +0.000 C 
ATOM     18  C   UNL     1       0.917   2.451  20.671  0.00  0.00    +0.000 C 
ENDBRANCH  16  18
ENDBRANCH   1  16
TORSDOF 2
ENDMDL
MODEL 7
REMARK VINA RESULT:      -6.4      2.470      5.720
REMARK  Name = 
REMARK  4 active torsions:
REMARK  status: ('A' for Active; 'I' for Inactive)
REMARK    1  A    between atoms: C_1  and  C_2
REMARK    2  A    between atoms: C_2  and  C_3
REMARK    3  A    between atoms: C_3  and  N_4
REMARK    4  A    between atoms: C_16  and  C_17
REMARK                            x       y       z     vdW  Elec       q    Type
REMARK                         _______ _______ _______ _____ _____    ______ ____
ROOT
ATOM      1  N   UNL     1       1.616   4.076  19.582  0.00  0.00    +0.000 N 
ATOM      2  N   UNL     1       1.498   5.371  20.070  0.00  0.00    +0.000 NA
ATOM      3  N   UNL     1       2.155   6.309  19.555  0.00  0.00    +0.000 NA
ATOM      4  C   UNL     1       3.005   6.039  18.538  0.00  0.00    +0.000 A 
ATOM      5  S   UNL     1       3.986   7.233  17.812  0.00  0.00    +0.000 S 
ATOM      6  C   UNL     1       4.712   6.088  16.780  0.00  0.00    +0.000 A 
ATOM      7  C   UNL     1       4.182   4.820  16.937  0.00  0.00    +0.000 A 
ATOM      8  C   UNL     1       3.210   4.805  17.979  0.00  0.00    +0.000 A 
ATOM      9  C   UNL     1       2.453   3.708  18.531  0.00  0.00    +0.000 A 
ATOM     10  O   UNL     1       2.560   2.563  18.100  0.00  0.00    +0.000 OA
ATOM     11  C   UNL     1       4.665   3.638  16.150  0.00  0.00    +0.000 C 
ATOM     12  C   UNL     1       5.563   4.064  14.979  0.00  0.00    +0.000 C 
ATOM     13  C   UNL     1       6.562   5.178  15.364  0.00  0.00    +0.000 C 
ATOM     14  C   UNL     1       7.550   4.701  16.436  0.00  0.00    +0.000 C 
ATOM     15  C   UNL     1       5.803   6.447  15.817  0.00  0.00    +0.000 C 
ENDROOT
BRANCH   1  16
ATOM     16  C   UNL     1       0.793   3.070  20.238  0.00  0.00    +0.000 C 
BRANCH  16  18
ATOM     17  C   UNL     1       2.800   2.420  21.652  0.00  0.00    +0.000 C 
ATOM     18  C   UNL     1       1.304   2.693  21.629  0.00  0.00    +0.000 C 
ENDBRANCH  16  18
ENDBRANCH   1  16
TORSDOF 2
ENDMDL
MODEL 8
REMARK VINA RESULT:      -6.3      4.023      6.008
REMARK  Name = 
REMARK  4 active torsions:
REMARK  status: ('A' for Active; 'I' for Inactive)
REMARK    1  A    between atoms: C_1  and  C_2
REMARK    2  A    between atoms: C_2  and  C_3
REMARK    3  A    between atoms: C_3  and  N_4
REMARK    4  A    between atoms: C_16  and  C_17
REMARK                            x       y       z     vdW  Elec       q    Type
REMARK                         _______ _______ _______ _____ _____    ______ ____
ROOT
ATOM      1  N   UNL     1       1.187   9.387  19.288  0.00  0.00    +0.000 N 
ATOM      2  N   UNL     1       0.715   9.038  20.546  0.00  0.00    +0.000 NA
ATOM      3  N   UNL     1       1.034   7.940  21.066  0.00  0.00    +0.000 NA
ATOM      4  C   UNL     1       1.818   7.084  20.370  0.00  0.00    +0.000 A 
ATOM      5  S   UNL     1       2.257   5.545  20.963  0.00  0.00    +0.000 S 
ATOM      6  C   UNL     1       3.104   5.175  19.531  0.00  0.00    +0.000 A 
ATOM      7  C   UNL     1       3.108   6.223  18.630  0.00  0.00    +0.000 A 
ATOM      8  C   UNL     1       2.335   7.315  19.123  0.00  0.00    +0.000 A 
ATOM      9  C   UNL     1       2.009   8.577  18.506  0.00  0.00    +0.000 A 
ATOM     10  O   UNL     1       2.424   8.884  17.393  0.00  0.00    +0.000 OA
ATOM     11  C   UNL     1       3.779   6.137  17.291  0.00  0.00    +0.000 C 
ATOM     12  C   UNL     1       4.685   4.901  17.188  0.00  0.00    +0.000 C 
ATOM     13  C   UNL     1       4.044   3.635  17.798  0.00  0.00    +0.000 C 
ATOM     14  C   UNL     1       2.773   3.228  17.042  0.00  0.00    +0.000 C 
ATOM     15  C   UNL     1       3.764   3.847  19.305  0.00  0.00    +0.000 C 
ENDROOT
BRANCH   1  16
ATOM     16  C   UNL     1       0.772  10.691  18.791  0.00  0.00    +0.000 C 
BRANCH  16  18
ATOM     17  C   UNL     1      -1.351  10.008  17.579  0.00  0.00    +0.000 C 
ATOM     18  C   UNL     1      -0.745  10.842  18.697  0.00  0.00    +0.000 C 
ENDBRANCH  16  18
ENDBRANCH   1  16
TORSDOF 2
ENDMDL
MODEL 9
REMARK VINA RESULT:      -6.3      3.020      4.144
REMARK  Name = 
REMARK  4 active torsions:
REMARK  status: ('A' for Active; 'I' for Inactive)
REMARK    1  A    between atoms: C_1  and  C_2
REMARK    2  A    between atoms: C_2  and  C_3
REMARK    3  A    between atoms: C_3  and  N_4
REMARK    4  A    between atoms: C_16  and  C_17
REMARK                            x       y       z     vdW  Elec       q    Type
REMARK                         _______ _______ _______ _____ _____    ______ ____
ROOT
ATOM      1  N   UNL     1       6.714   7.153  17.143  0.00  0.00    +0.000 N 
ATOM      2  N   UNL     1       7.608   6.241  16.599  0.00  0.00    +0.000 NA
ATOM      3  N   UNL     1       7.245   5.065  16.346  0.00  0.00    +0.000 NA
ATOM      4  C   UNL     1       5.979   4.687  16.641  0.00  0.00    +0.000 A 
ATOM      5  S   UNL     1       5.409   3.098  16.393  0.00  0.00    +0.000 S 
ATOM      6  C   UNL     1       3.885   3.484  17.051  0.00  0.00    +0.000 A 
ATOM      7  C   UNL     1       3.781   4.816  17.406  0.00  0.00    +0.000 A 
ATOM      8  C   UNL     1       5.015   5.494  17.184  0.00  0.00    +0.000 A 
ATOM      9  C   UNL     1       5.391   6.859  17.465  0.00  0.00    +0.000 A 
ATOM     10  O   UNL     1       4.600   7.665  17.948  0.00  0.00    +0.000 OA
ATOM     11  C   UNL     1       2.541   5.396  18.018  0.00  0.00    +0.000 C 
ATOM     12  C   UNL     1       1.351   4.431  17.913  0.00  0.00    +0.000 C 
ATOM     13  C   UNL     1       1.735   2.967  18.222  0.00  0.00    +0.000 C 
ATOM     14  C   UNL     1       2.217   2.806  19.669  0.00  0.00    +0.000 C 
ATOM     15  C   UNL     1       2.795   2.466  17.213  0.00  0.00    +0.000 C 
ENDROOT
BRANCH   1  16
ATOM     16  C   UNL     1       7.234   8.493  17.376  0.00  0.00    +0.000 C 
BRANCH  16  18
ATOM     17  C   UNL     1       8.900   9.928  18.646  0.00  0.00    +0.000 C 
ATOM     18  C   UNL     1       8.420   8.517  18.339  0.00  0.00    +0.000 C 
ENDBRANCH  16  18
ENDBRANCH   1  16
TORSDOF 2
ENDMDL
