MODEL 1
REMARK VINA RESULT:      -6.7      0.000      0.000
REMARK  Name = 
REMARK  5 active torsions:
REMARK  status: ('A' for Active; 'I' for Inactive)
REMARK    1  A    between atoms: C_1  and  C_2
REMARK    2  A    between atoms: C_3  and  C_4
REMARK    3  A    between atoms: C_5  and  C_6
REMARK    4  A    between atoms: N_8  and  C_9
REMARK    5  A    between atoms: C_13  and  O_14
REMARK                            x       y       z     vdW  Elec       q    Type
REMARK                         _______ _______ _______ _____ _____    ______ ____
ROOT
ATOM      1  C   UNL     1       5.378   4.365  17.836  0.00  0.00    +0.000 C 
ATOM      2  O   UNL     1       5.838   4.013  18.919  0.00  0.00    +0.000 OA
ATOM      3  N   UNL     1       4.044   4.570  17.545  0.00  0.00    +0.000 N 
ATOM      4  H   UNL     1       3.782   4.712  16.579  0.00  0.00    +0.000 HD
ENDROOT
BRANCH   3   5
ATOM      5  C   UNL     1       2.981   4.433  18.473  0.00  0.00    +0.000 A 
ATOM      6  C   UNL     1       2.840   5.258  19.594  0.00  0.00    +0.000 A 
ATOM      7  C   UNL     1       1.815   5.045  20.520  0.00  0.00    +0.000 A 
ATOM      8  C   UNL     1       0.912   4.007  20.331  0.00  0.00    +0.000 A 
ATOM      9  C   UNL     1       1.026   3.208  19.198  0.00  0.00    +0.000 A 
ATOM     10  C   UNL     1       2.037   3.424  18.260  0.00  0.00    +0.000 A 
BRANCH   9  11
ATOM     11  O   UNL     1       0.165   2.173  18.982  0.00  0.00    +0.000 OA
ATOM     12  H   UNL     1      -0.742   2.495  19.120  0.00  0.00    +0.000 HD
ENDBRANCH   9  11
ENDBRANCH   3   5
BRANCH   1  14
ATOM     13  C   UNL     1       5.790   4.320  15.450  0.00  0.00    +0.000 C 
ATOM     14  C   UNL     1       6.284   4.576  16.673  0.00  0.00    +0.000 C 
BRANCH  13  17
ATOM     15  C   UNL     1       6.955   3.760  11.846  0.00  0.00    +0.000 C 
ATOM     16  C   UNL     1       6.214   3.696  13.140  0.00  0.00    +0.000 C 
ATOM     17  C   UNL     1       6.529   4.433  14.216  0.00  0.00    +0.000 C 
ENDBRANCH  13  17
ENDBRANCH   1  14
TORSDOF 4
ENDMDL
MODEL 2
REMARK VINA RESULT:      -6.6      1.639      1.787
REMARK  Name = 
REMARK  5 active torsions:
REMARK  status: ('A' for Active; 'I' for Inactive)
REMARK    1  A    between atoms: C_1  and  C_2
REMARK    2  A    between atoms: C_3  and  C_4
REMARK    3  A    between atoms: C_5  and  C_6
REMARK    4  A    between atoms: N_8  and  C_9
REMARK    5  A    between atoms: C_13  and  O_14
REMARK                            x       y       z     vdW  Elec       q    Type
REMARK                         _______ _______ _______ _____ _____    ______ ____
ROOT
ATOM      1  C   UNL     1       4.413   5.086  17.402  0.00  0.00    +0.000 C 
ATOM      2  O   UNL     1       4.713   5.892  18.278  0.00  0.00    +0.000 OA
ATOM      3  N   UNL     1       3.526   4.035  17.529  0.00  0.00    +0.000 N 
ATOM      4  H   UNL     1       3.479   3.356  16.783  0.00  0.00    +0.000 HD
ENDROOT
BRANCH   3   5
ATOM      5  C   UNL     1       2.787   3.736  18.702  0.00  0.00    +0.000 A 
ATOM      6  C   UNL     1       1.461   4.142  18.889  0.00  0.00    +0.000 A 
ATOM      7  C   UNL     1       0.791   3.884  20.088  0.00  0.00    +0.000 A 
ATOM      8  C   UNL     1       1.439   3.207  21.114  0.00  0.00    +0.000 A 
ATOM      9  C   UNL     1       2.745   2.769  20.918  0.00  0.00    +0.000 A 
ATOM     10  C   UNL     1       3.415   3.009  19.717  0.00  0.00    +0.000 A 
BRANCH   9  11
ATOM     11  O   UNL     1       3.417   2.110  21.904  0.00  0.00    +0.000 OA
ATOM     12  H   UNL     1       3.908   2.764  22.430  0.00  0.00    +0.000 HD
ENDBRANCH   9  11
ENDBRANCH   3   5
BRANCH   1  14
ATOM     13  C   UNL     1       5.831   4.138  15.682  0.00  0.00    +0.000 C 
ATOM     14  C   UNL     1       5.055   5.168  16.060  0.00  0.00    +0.000 C 
BRANCH  13  17
ATOM     15  C   UNL     1       6.669   3.561  11.991  0.00  0.00    +0.000 C 
ATOM     16  C   UNL     1       5.961   3.677  13.299  0.00  0.00    +0.000 C 
ATOM     17  C   UNL     1       6.558   4.060  14.438  0.00  0.00    +0.000 C 
ENDBRANCH  13  17
ENDBRANCH   1  14
TORSDOF 4
ENDMDL
MODEL 3
REMARK VINA RESULT:      -6.6      2.963      4.442
REMARK  Name = 
REMARK  5 active torsions:
REMARK  status: ('A' for Active; 'I' for Inactive)
REMARK    1  A    between atoms: C_1  and  C_2
REMARK    2  A    between atoms: C_3  and  C_4
REMARK    3  A    between atoms: C_5  and  C_6
REMARK    4  A    between atoms: N_8  and  C_9
REMARK    5  A    between atoms: C_13  and  O_14
REMARK                            x       y       z     vdW  Elec       q    Type
REMARK                         _______ _______ _______ _____ _____    ______ ____
ROOT
ATOM      1  C   UNL     1       6.696   4.434  14.343  0.00  0.00    +0.000 C 
ATOM      2  O   UNL     1       7.531   5.332  14.281  0.00  0.00    +0.000 OA
ATOM      3  N   UNL     1       6.070   3.979  15.487  0.00  0.00    +0.000 N 
ATOM      4  H   UNL     1       5.516   3.136  15.426  0.00  0.00    +0.000 HD
ENDROOT
BRANCH   3   5
ATOM      5  C   UNL     1       6.275   4.506  16.787  0.00  0.00    +0.000 A 
ATOM      6  C   UNL     1       7.548   4.706  17.334  0.00  0.00    +0.000 A 
ATOM      7  C   UNL     1       7.703   5.164  18.645  0.00  0.00    +0.000 A 
ATOM      8  C   UNL     1       6.586   5.436  19.424  0.00  0.00    +0.000 A 
ATOM      9  C   UNL     1       5.319   5.274  18.871  0.00  0.00    +0.000 A 
ATOM     10  C   UNL     1       5.155   4.833  17.557  0.00  0.00    +0.000 A 
BRANCH   9  11
ATOM     11  O   UNL     1       4.198   5.522  19.607  0.00  0.00    +0.000 OA
ATOM     12  H   UNL     1       4.177   6.469  19.824  0.00  0.00    +0.000 HD
ENDBRANCH   9  11
ENDBRANCH   3   5
BRANCH   1  14
ATOM     13  C   UNL     1       5.044   3.879  12.661  0.00  0.00    +0.000 C 
ATOM     14  C   UNL     1       6.297   3.699  13.110  0.00  0.00    +0.000 C 
BRANCH  13  17
ATOM     15  C   UNL     1       2.919   3.193   9.550  0.00  0.00    +0.000 C 
ATOM     16  C   UNL     1       3.554   3.830  10.741  0.00  0.00    +0.000 C 
ATOM     17  C   UNL     1       4.473   3.224  11.508  0.00  0.00    +0.000 C 
ENDBRANCH  13  17
ENDBRANCH   1  14
TORSDOF 4
ENDMDL
MODEL 4
REMARK VINA RESULT:      -6.5      3.589      4.625
REMARK  Name = 
REMARK  5 active torsions:
REMARK  status: ('A' for Active; 'I' for Inactive)
REMARK    1  A    between atoms: C_1  and  C_2
REMARK    2  A    between atoms: C_3  and  C_4
REMARK    3  A    between atoms: C_5  and  C_6
REMARK    4  A    between atoms: N_8  and  C_9
REMARK    5  A    between atoms: C_13  and  O_14
REMARK                            x       y       z     vdW  Elec       q    Type
REMARK                         _______ _______ _______ _____ _____    ______ ____
ROOT
ATOM      1  C   UNL     1       6.176   6.339  17.058  0.00  0.00    +0.000 C 
ATOM      2  O   UNL     1       5.745   6.498  15.920  0.00  0.00    +0.000 OA
ATOM      3  N   UNL     1       5.546   5.657  18.081  0.00  0.00    +0.000 N 
ATOM      4  H   UNL     1       5.934   5.725  19.011  0.00  0.00    +0.000 HD
ENDROOT
BRANCH   3   5
ATOM      5  C   UNL     1       4.297   4.996  17.966  0.00  0.00    +0.000 A 
ATOM      6  C   UNL     1       3.076   5.679  17.934  0.00  0.00    +0.000 A 
ATOM      7  C   UNL     1       1.864   4.985  17.888  0.00  0.00    +0.000 A 
ATOM      8  C   UNL     1       1.858   3.596  17.865  0.00  0.00    +0.000 A 
ATOM      9  C   UNL     1       3.072   2.914  17.859  0.00  0.00    +0.000 A 
ATOM     10  C   UNL     1       4.287   3.600  17.888  0.00  0.00    +0.000 A 
BRANCH   9  11
ATOM     11  O   UNL     1       3.107   1.551  17.846  0.00  0.00    +0.000 OA
ATOM     12  H   UNL     1       3.528   1.248  18.668  0.00  0.00    +0.000 HD
ENDBRANCH   9  11
ENDBRANCH   3   5
BRANCH   1  14
ATOM     13  C   UNL     1       7.486   8.245  17.776  0.00  0.00    +0.000 C 
ATOM     14  C   UNL     1       7.480   6.941  17.455  0.00  0.00    +0.000 C 
BRANCH  13  17
ATOM     15  C   UNL     1       9.828  11.176  18.540  0.00  0.00    +0.000 C 
ATOM     16  C   UNL     1       8.642  10.344  18.181  0.00  0.00    +0.000 C 
ATOM     17  C   UNL     1       8.656   9.003  18.147  0.00  0.00    +0.000 C 
ENDBRANCH  13  17
ENDBRANCH   1  14
TORSDOF 4
ENDMDL
MODEL 5
REMARK VINA RESULT:      -6.5      1.499      1.881
REMARK  Name = 
REMARK  5 active torsions:
REMARK  status: ('A' for Active; 'I' for Inactive)
REMARK    1  A    between atoms: C_1  and  C_2
REMARK    2  A    between atoms: C_3  and  C_4
REMARK    3  A    between atoms: C_5  and  C_6
REMARK    4  A    between atoms: N_8  and  C_9
REMARK    5  A    between atoms: C_13  and  O_14
REMARK                            x       y       z     vdW  Elec       q    Type
REMARK                         _______ _______ _______ _____ _____    ______ ____
ROOT
ATOM      1  C   UNL     1       5.762   4.465  18.041  0.00  0.00    +0.000 C 
ATOM      2  O   UNL     1       6.323   4.508  19.132  0.00  0.00    +0.000 OA
ATOM      3  N   UNL     1       4.401   4.379  17.826  0.00  0.00    +0.000 N 
ATOM      4  H   UNL     1       4.076   4.200  16.886  0.00  0.00    +0.000 HD
ENDROOT
BRANCH   3   5
ATOM      5  C   UNL     1       3.419   4.359  18.848  0.00  0.00    +0.000 A 
ATOM      6  C   UNL     1       2.780   3.185  19.265  0.00  0.00    +0.000 A 
ATOM      7  C   UNL     1       1.769   3.220  20.229  0.00  0.00    +0.000 A 
ATOM      8  C   UNL     1       1.389   4.430  20.795  0.00  0.00    +0.000 A 
ATOM      9  C   UNL     1       2.047   5.594  20.411  0.00  0.00    +0.000 A 
ATOM     10  C   UNL     1       3.070   5.566  19.461  0.00  0.00    +0.000 A 
BRANCH   9  11
ATOM     11  O   UNL     1       1.697   6.802  20.937  0.00  0.00    +0.000 OA
ATOM     12  H   UNL     1       2.207   7.494  20.483  0.00  0.00    +0.000 HD
ENDBRANCH   9  11
ENDBRANCH   3   5
BRANCH   1  14
ATOM     13  C   UNL     1       5.902   4.579  15.626  0.00  0.00    +0.000 C 
ATOM     14  C   UNL     1       6.567   4.466  16.787  0.00  0.00    +0.000 C 
BRANCH  13  17
ATOM     15  C   UNL     1       6.720   3.623  12.009  0.00  0.00    +0.000 C 
ATOM     16  C   UNL     1       6.115   3.695  13.372  0.00  0.00    +0.000 C 
ATOM     17  C   UNL     1       6.509   4.562  14.317  0.00  0.00    +0.000 C 
ENDBRANCH  13  17
ENDBRANCH   1  14
TORSDOF 4
ENDMDL
MODEL 6
REMARK VINA RESULT:      -6.5      4.910      6.717
REMARK  Name = 
REMARK  5 active torsions:
REMARK  status: ('A' for Active; 'I' for Inactive)
REMARK    1  A    between atoms: C_1  and  C_2
REMARK    2  A    between atoms: C_3  and  C_4
REMARK    3  A    between atoms: C_5  and  C_6
REMARK    4  A    between atoms: N_8  and  C_9
REMARK    5  A    between atoms: C_13  and  O_14
REMARK                            x       y       z     vdW  Elec       q    Type
REMARK                         _______ _______ _______ _____ _____    ______ ____
ROOT
ATOM      1  C   UNL     1       7.701   7.748  17.867  0.00  0.00    +0.000 C 
ATOM      2  O   UNL     1       8.151   6.887  18.617  0.00  0.00    +0.000 OA
ATOM      3  N   UNL     1       6.672   7.585  16.961  0.00  0.00    +0.000 N 
ATOM      4  H   UNL     1       6.497   8.327  16.298  0.00  0.00    +0.000 HD
ENDROOT
BRANCH   3   5
ATOM      5  C   UNL     1       5.941   6.385  16.773  0.00  0.00    +0.000 A 
ATOM      6  C   UNL     1       4.788   6.075  17.502  0.00  0.00    +0.000 A 
ATOM      7  C   UNL     1       4.136   4.851  17.332  0.00  0.00    +0.000 A 
ATOM      8  C   UNL     1       4.626   3.922  16.424  0.00  0.00    +0.000 A 
ATOM      9  C   UNL     1       5.752   4.241  15.670  0.00  0.00    +0.000 A 
ATOM     10  C   UNL     1       6.399   5.469  15.821  0.00  0.00    +0.000 A 
BRANCH   9  11
ATOM     11  O   UNL     1       6.269   3.352  14.774  0.00  0.00    +0.000 OA
ATOM     12  H   UNL     1       7.199   3.586  14.613  0.00  0.00    +0.000 HD
ENDBRANCH   9  11
ENDBRANCH   3   5
BRANCH   1  14
ATOM     13  C   UNL     1       8.957   9.510  18.957  0.00  0.00    +0.000 C 
ATOM     14  C   UNL     1       8.298   9.114  17.855  0.00  0.00    +0.000 C 
BRANCH  13  17
ATOM     15  C   UNL     1      10.523  12.592  20.602  0.00  0.00    +0.000 C 
ATOM     16  C   UNL     1       9.908  11.255  20.356  0.00  0.00    +0.000 C 
ATOM     17  C   UNL     1       9.566  10.805  19.139  0.00  0.00    +0.000 C 
ENDBRANCH  13  17
ENDBRANCH   1  14
TORSDOF 4
ENDMDL
MODEL 7
REMARK VINA RESULT:      -6.5      4.784      6.302
REMARK  Name = 
REMARK  5 active torsions:
REMARK  status: ('A' for Active; 'I' for Inactive)
REMARK    1  A    between atoms: C_1  and  C_2
REMARK    2  A    between atoms: C_3  and  C_4
REMARK    3  A    between atoms: C_5  and  C_6
REMARK    4  A    between atoms: N_8  and  C_9
REMARK    5  A    between atoms: C_13  and  O_14
REMARK                            x       y       z     vdW  Elec       q    Type
REMARK                         _______ _______ _______ _____ _____    ______ ____
ROOT
ATOM      1  C   UNL     1       7.737   7.768  17.867  0.00  0.00    +0.000 C 
ATOM      2  O   UNL     1       8.195   6.980  18.689  0.00  0.00    +0.000 OA
ATOM      3  N   UNL     1       6.769   7.490  16.922  0.00  0.00    +0.000 N 
ATOM      4  H   UNL     1       6.586   8.181  16.207  0.00  0.00    +0.000 HD
ENDROOT
BRANCH   3   5
ATOM      5  C   UNL     1       6.120   6.238  16.770  0.00  0.00    +0.000 A 
ATOM      6  C   UNL     1       6.687   5.169  16.067  0.00  0.00    +0.000 A 
ATOM      7  C   UNL     1       5.984   3.975  15.884  0.00  0.00    +0.000 A 
ATOM      8  C   UNL     1       4.705   3.833  16.409  0.00  0.00    +0.000 A 
ATOM      9  C   UNL     1       4.153   4.881  17.140  0.00  0.00    +0.000 A 
ATOM     10  C   UNL     1       4.856   6.070  17.342  0.00  0.00    +0.000 A 
BRANCH   9  11
ATOM     11  O   UNL     1       2.898   4.783  17.663  0.00  0.00    +0.000 OA
ATOM     12  H   UNL     1       2.801   5.459  18.355  0.00  0.00    +0.000 HD
ENDBRANCH   9  11
ENDBRANCH   3   5
BRANCH   1  14
ATOM     13  C   UNL     1       8.986   9.600  18.840  0.00  0.00    +0.000 C 
ATOM     14  C   UNL     1       8.252   9.164  17.803  0.00  0.00    +0.000 C 
BRANCH  13  17
ATOM     15  C   UNL     1      10.800  12.877  18.042  0.00  0.00    +0.000 C 
ATOM     16  C   UNL     1      10.197  11.514  17.958  0.00  0.00    +0.000 C 
ATOM     17  C   UNL     1       9.536  10.928  18.968  0.00  0.00    +0.000 C 
ENDBRANCH  13  17
ENDBRANCH   1  14
TORSDOF 4
ENDMDL
MODEL 8
REMARK VINA RESULT:      -6.4      3.219      4.273
REMARK  Name = 
REMARK  5 active torsions:
REMARK  status: ('A' for Active; 'I' for Inactive)
REMARK    1  A    between atoms: C_1  and  C_2
REMARK    2  A    between atoms: C_3  and  C_4
REMARK    3  A    between atoms: C_5  and  C_6
REMARK    4  A    between atoms: N_8  and  C_9
REMARK    5  A    between atoms: C_13  and  O_14
REMARK                            x       y       z     vdW  Elec       q    Type
REMARK                         _______ _______ _______ _____ _____    ______ ____
ROOT
ATOM      1  C   UNL     1       6.388   5.584  18.696  0.00  0.00    +0.000 C 
ATOM      2  O   UNL     1       6.407   4.892  19.710  0.00  0.00    +0.000 OA
ATOM      3  N   UNL     1       5.393   5.600  17.738  0.00  0.00    +0.000 N 
ATOM      4  H   UNL     1       5.566   6.100  16.878  0.00  0.00    +0.000 HD
ENDROOT
BRANCH   3   5
ATOM      5  C   UNL     1       4.204   4.829  17.792  0.00  0.00    +0.000 A 
ATOM      6  C   UNL     1       2.929   5.403  17.838  0.00  0.00    +0.000 A 
ATOM      7  C   UNL     1       1.786   4.608  17.958  0.00  0.00    +0.000 A 
ATOM      8  C   UNL     1       1.905   3.225  18.026  0.00  0.00    +0.000 A 
ATOM      9  C   UNL     1       3.169   2.649  17.944  0.00  0.00    +0.000 A 
ATOM     10  C   UNL     1       4.314   3.436  17.807  0.00  0.00    +0.000 A 
BRANCH   9  11
ATOM     11  O   UNL     1       3.327   1.297  18.016  0.00  0.00    +0.000 OA
ATOM     12  H   UNL     1       4.086   1.108  18.593  0.00  0.00    +0.000 HD
ENDBRANCH   9  11
ENDBRANCH   3   5
BRANCH   1  14
ATOM     13  C   UNL     1       7.238   7.719  17.932  0.00  0.00    +0.000 C 
ATOM     14  C   UNL     1       7.530   6.490  18.388  0.00  0.00    +0.000 C 
BRANCH  13  17
ATOM     15  C   UNL     1       9.596  10.733  18.053  0.00  0.00    +0.000 C 
ATOM     16  C   UNL     1       8.609   9.670  18.402  0.00  0.00    +0.000 C 
ATOM     17  C   UNL     1       8.210   8.715  17.549  0.00  0.00    +0.000 C 
ENDBRANCH  13  17
ENDBRANCH   1  14
TORSDOF 4
ENDMDL
MODEL 9
REMARK VINA RESULT:      -6.3      1.663      2.078
REMARK  Name = 
REMARK  5 active torsions:
REMARK  status: ('A' for Active; 'I' for Inactive)
REMARK    1  A    between atoms: C_1  and  C_2
REMARK    2  A    between atoms: C_3  and  C_4
REMARK    3  A    between atoms: C_5  and  C_6
REMARK    4  A    between atoms: N_8  and  C_9
REMARK    5  A    between atoms: C_13  and  O_14
REMARK                            x       y       z     vdW  Elec       q    Type
REMARK                         _______ _______ _______ _____ _____    ______ ____
ROOT
ATOM      1  C   UNL     1       4.578   4.289  16.740  0.00  0.00    +0.000 C 
ATOM      2  O   UNL     1       4.295   5.478  16.859  0.00  0.00    +0.000 OA
ATOM      3  N   UNL     1       4.023   3.244  17.451  0.00  0.00    +0.000 N 
ATOM      4  H   UNL     1       4.447   2.330  17.366  0.00  0.00    +0.000 HD
ENDROOT
BRANCH   3   5
ATOM      5  C   UNL     1       3.002   3.377  18.426  0.00  0.00    +0.000 A 
ATOM      6  C   UNL     1       1.806   2.654  18.377  0.00  0.00    +0.000 A 
ATOM      7  C   UNL     1       0.798   2.866  19.321  0.00  0.00    +0.000 A 
ATOM      8  C   UNL     1       0.978   3.800  20.333  0.00  0.00    +0.000 A 
ATOM      9  C   UNL     1       2.181   4.495  20.406  0.00  0.00    +0.000 A 
ATOM     10  C   UNL     1       3.200   4.277  19.477  0.00  0.00    +0.000 A 
BRANCH   9  11
ATOM     11  O   UNL     1       2.392   5.427  21.379  0.00  0.00    +0.000 OA
ATOM     12  H   UNL     1       2.496   6.295  20.954  0.00  0.00    +0.000 HD
ENDBRANCH   9  11
ENDBRANCH   3   5
BRANCH   1  14
ATOM     13  C   UNL     1       5.555   4.340  14.524  0.00  0.00    +0.000 C 
ATOM     14  C   UNL     1       5.635   3.866  15.779  0.00  0.00    +0.000 C 
BRANCH  13  17
ATOM     15  C   UNL     1       7.022   2.785  11.348  0.00  0.00    +0.000 C 
ATOM     16  C   UNL     1       6.115   3.173  12.467  0.00  0.00    +0.000 C 
ATOM     17  C   UNL     1       6.466   4.011  13.454  0.00  0.00    +0.000 C 
ENDBRANCH  13  17
ENDBRANCH   1  14
TORSDOF 4
ENDMDL
