MODEL 1
REMARK VINA RESULT:      -6.3      0.000      0.000
REMARK  Name = 
REMARK  10 active torsions:
REMARK  status: ('A' for Active; 'I' for Inactive)
REMARK    1  A    between atoms: C_1  and  C_2
REMARK    2  A    between atoms: C_2  and  N_3
REMARK    3  A    between atoms: N_3  and  C_4
REMARK    4  A    between atoms: N_3  and  C_6
REMARK    5  A    between atoms: C_4  and  C_5
REMARK    6  A    between atoms: N_10  and  C_11
REMARK    7  A    between atoms: C_11  and  C_12
REMARK    8  A    between atoms: C_18  and  C_19
REMARK    9  A    between atoms: C_25  and  C_26
REMARK   10  A    between atoms: C_26  and  O_27
REMARK                            x       y       z     vdW  Elec       q    Type
REMARK                         _______ _______ _______ _____ _____    ______ ____
ROOT
ATOM      1  C   UNL     1       3.642   3.266  19.162  0.00  0.00    +0.000 C 
ATOM      2  C   UNL     1       4.237   4.594  18.566  0.00  0.00    +0.000 C 
ATOM      3  C   UNL     1       3.074   4.584  17.559  0.00  0.00    +0.000 C 
ATOM      4  C   UNL     1       3.662   3.943  16.306  0.00  0.00    +0.000 C 
ATOM      5  N   UNL     1       5.070   4.330  16.292  0.00  0.00    +0.000 NA
ATOM      6  C   UNL     1       5.499   4.446  17.709  0.00  0.00    +0.000 C 
ATOM      7  C   UNL     1       2.260   3.742  18.588  0.00  0.00    +0.000 C 
ENDROOT
BRANCH   6   8
ATOM      8  C   UNL     1       6.446   5.609  17.964  0.00  0.00    +0.000 A 
ATOM      9  C   UNL     1       6.391   6.774  17.197  0.00  0.00    +0.000 A 
ATOM     10  C   UNL     1       7.312   7.791  17.436  0.00  0.00    +0.000 A 
ATOM     11  C   UNL     1       8.253   7.632  18.443  0.00  0.00    +0.000 A 
ATOM     12  C   UNL     1       8.228   6.459  19.178  0.00  0.00    +0.000 A 
ATOM     13  N   UNL     1       7.353   5.451  18.965  0.00  0.00    +0.000 NA
ENDBRANCH   6   8
BRANCH   1  14
ATOM     14  N   UNL     1       3.597   3.287  20.641  0.00  0.00    +0.000 NA
BRANCH  14  16
ATOM     15  C   UNL     1       1.540   2.621  21.956  0.00  0.00    +0.000 C 
ATOM     16  C   UNL     1       2.236   3.659  21.078  0.00  0.00    +0.000 C 
ENDBRANCH  14  16
BRANCH  14  17
ATOM     17  C   UNL     1       4.061   2.014  21.232  0.00  0.00    +0.000 C 
ATOM     18  C   UNL     1       4.981   1.142  20.381  0.00  0.00    +0.000 C 
ENDBRANCH  14  17
ENDBRANCH   1  14
BRANCH   5  19
ATOM     19  C   UNL     1       5.923   3.375  15.568  0.00  0.00    +0.000 C 
BRANCH  19  20
ATOM     20  C   UNL     1       6.459   3.906  14.257  0.00  0.00    +0.000 A 
ATOM     21  C   UNL     1       6.015   3.383  13.037  0.00  0.00    +0.000 A 
ATOM     22  C   UNL     1       6.479   3.906  11.829  0.00  0.00    +0.000 A 
ATOM     23  C   UNL     1       7.389   4.961  11.829  0.00  0.00    +0.000 A 
ATOM     24  C   UNL     1       7.848   5.486  13.035  0.00  0.00    +0.000 A 
ATOM     25  C   UNL     1       7.385   4.962  14.244  0.00  0.00    +0.000 A 
ENDBRANCH  19  20
ENDBRANCH   5  19
BRANCH   7  26
ATOM     26  C   UNL     1       1.309   2.699  18.023  0.00  0.00    +0.000 C 
BRANCH  26  27
ATOM     27  O   UNL     1       0.165   2.580  18.863  0.00  0.00    +0.000 OA
ATOM     28  H   UNL     1       0.462   2.623  19.786  0.00  0.00    +0.000 HD
ENDBRANCH  26  27
ENDBRANCH   7  26
TORSDOF 8
ENDMDL
MODEL 2
REMARK VINA RESULT:      -6.2      0.574      1.322
REMARK  Name = 
REMARK  10 active torsions:
REMARK  status: ('A' for Active; 'I' for Inactive)
REMARK    1  A    between atoms: C_1  and  C_2
REMARK    2  A    between atoms: C_2  and  N_3
REMARK    3  A    between atoms: N_3  and  C_4
REMARK    4  A    between atoms: N_3  and  C_6
REMARK    5  A    between atoms: C_4  and  C_5
REMARK    6  A    between atoms: N_10  and  C_11
REMARK    7  A    between atoms: C_11  and  C_12
REMARK    8  A    between atoms: C_18  and  C_19
REMARK    9  A    between atoms: C_25  and  C_26
REMARK   10  A    between atoms: C_26  and  O_27
REMARK                            x       y       z     vdW  Elec       q    Type
REMARK                         _______ _______ _______ _____ _____    ______ ____
ROOT
ATOM      1  C   UNL     1       3.505   3.336  19.263  0.00  0.00    +0.000 C 
ATOM      2  C   UNL     1       4.127   4.638  18.638  0.00  0.00    +0.000 C 
ATOM      3  C   UNL     1       2.927   4.668  17.675  0.00  0.00    +0.000 C 
ATOM      4  C   UNL     1       3.442   4.000  16.405  0.00  0.00    +0.000 C 
ATOM      5  N   UNL     1       4.862   4.333  16.335  0.00  0.00    +0.000 NA
ATOM      6  C   UNL     1       5.349   4.437  17.734  0.00  0.00    +0.000 C 
ATOM      7  C   UNL     1       2.121   3.863  18.739  0.00  0.00    +0.000 C 
ENDROOT
BRANCH   6   8
ATOM      8  C   UNL     1       6.350   5.564  17.946  0.00  0.00    +0.000 A 
ATOM      9  C   UNL     1       7.370   5.463  18.893  0.00  0.00    +0.000 A 
ATOM     10  C   UNL     1       8.230   6.541  19.085  0.00  0.00    +0.000 A 
ATOM     11  C   UNL     1       8.065   7.686  18.318  0.00  0.00    +0.000 A 
ATOM     12  C   UNL     1       7.046   7.701  17.381  0.00  0.00    +0.000 A 
ATOM     13  N   UNL     1       6.190   6.675  17.177  0.00  0.00    +0.000 NA
ENDBRANCH   6   8
BRANCH   1  14
ATOM     14  N   UNL     1       3.518   3.365  20.742  0.00  0.00    +0.000 NA
BRANCH  14  16
ATOM     15  C   UNL     1       1.461   2.765  22.090  0.00  0.00    +0.000 C 
ATOM     16  C   UNL     1       2.190   3.794  21.229  0.00  0.00    +0.000 C 
ENDBRANCH  14  16
BRANCH  14  17
ATOM     17  C   UNL     1       3.951   2.077  21.323  0.00  0.00    +0.000 C 
ATOM     18  C   UNL     1       4.981   1.267  20.538  0.00  0.00    +0.000 C 
ENDBRANCH  14  17
ENDBRANCH   1  14
BRANCH   5  19
ATOM     19  C   UNL     1       5.650   3.342  15.585  0.00  0.00    +0.000 C 
BRANCH  19  20
ATOM     20  C   UNL     1       6.256   3.883  14.309  0.00  0.00    +0.000 A 
ATOM     21  C   UNL     1       7.201   4.916  14.346  0.00  0.00    +0.000 A 
ATOM     22  C   UNL     1       7.791   5.382  13.170  0.00  0.00    +0.000 A 
ATOM     23  C   UNL     1       7.444   4.817  11.944  0.00  0.00    +0.000 A 
ATOM     24  C   UNL     1       6.499   3.794  11.890  0.00  0.00    +0.000 A 
ATOM     25  C   UNL     1       5.907   3.329  13.067  0.00  0.00    +0.000 A 
ENDBRANCH  19  20
ENDBRANCH   5  19
BRANCH   7  26
ATOM     26  C   UNL     1       1.110   2.855  18.216  0.00  0.00    +0.000 C 
BRANCH  26  27
ATOM     27  O   UNL     1       0.043   2.712  19.149  0.00  0.00    +0.000 OA
ATOM     28  H   UNL     1       0.253   3.243  19.933  0.00  0.00    +0.000 HD
ENDBRANCH  26  27
ENDBRANCH   7  26
TORSDOF 8
ENDMDL
MODEL 3
REMARK VINA RESULT:      -6.1      0.692      1.016
REMARK  Name = 
REMARK  10 active torsions:
REMARK  status: ('A' for Active; 'I' for Inactive)
REMARK    1  A    between atoms: C_1  and  C_2
REMARK    2  A    between atoms: C_2  and  N_3
REMARK    3  A    between atoms: N_3  and  C_4
REMARK    4  A    between atoms: N_3  and  C_6
REMARK    5  A    between atoms: C_4  and  C_5
REMARK    6  A    between atoms: N_10  and  C_11
REMARK    7  A    between atoms: C_11  and  C_12
REMARK    8  A    between atoms: C_18  and  C_19
REMARK    9  A    between atoms: C_25  and  C_26
REMARK   10  A    between atoms: C_26  and  O_27
REMARK                            x       y       z     vdW  Elec       q    Type
REMARK                         _______ _______ _______ _____ _____    ______ ____
ROOT
ATOM      1  C   UNL     1       3.571   3.575  19.135  0.00  0.00    +0.000 C 
ATOM      2  C   UNL     1       4.236   4.857  18.511  0.00  0.00    +0.000 C 
ATOM      3  C   UNL     1       3.083   4.877  17.492  0.00  0.00    +0.000 C 
ATOM      4  C   UNL     1       3.651   4.175  16.263  0.00  0.00    +0.000 C 
ATOM      5  N   UNL     1       5.076   4.492  16.253  0.00  0.00    +0.000 NA
ATOM      6  C   UNL     1       5.497   4.624  17.672  0.00  0.00    +0.000 C 
ATOM      7  C   UNL     1       2.219   4.103  18.533  0.00  0.00    +0.000 C 
ENDROOT
BRANCH   6   8
ATOM      8  C   UNL     1       6.498   5.745  17.906  0.00  0.00    +0.000 A 
ATOM      9  C   UNL     1       7.438   5.678  18.935  0.00  0.00    +0.000 A 
ATOM     10  C   UNL     1       8.301   6.752  19.141  0.00  0.00    +0.000 A 
ATOM     11  C   UNL     1       8.218   7.859  18.308  0.00  0.00    +0.000 A 
ATOM     12  C   UNL     1       7.276   7.840  17.293  0.00  0.00    +0.000 A 
ATOM     13  N   UNL     1       6.421   6.818  17.073  0.00  0.00    +0.000 NA
ENDBRANCH   6   8
BRANCH   1  14
ATOM     14  N   UNL     1       3.513   3.637  20.611  0.00  0.00    +0.000 NA
BRANCH  14  16
ATOM     15  C   UNL     1       1.365   2.899  21.728  0.00  0.00    +0.000 C 
ATOM     16  C   UNL     1       2.144   4.009  21.027  0.00  0.00    +0.000 C 
ENDBRANCH  14  16
BRANCH  14  17
ATOM     17  C   UNL     1       3.983   2.386  21.242  0.00  0.00    +0.000 C 
ATOM     18  C   UNL     1       4.756   1.406  20.362  0.00  0.00    +0.000 C 
ENDBRANCH  14  17
ENDBRANCH   1  14
BRANCH   5  19
ATOM     19  C   UNL     1       5.888   3.478  15.564  0.00  0.00    +0.000 C 
BRANCH  19  20
ATOM     20  C   UNL     1       6.461   3.947  14.245  0.00  0.00    +0.000 A 
ATOM     21  C   UNL     1       6.036   3.381  13.037  0.00  0.00    +0.000 A 
ATOM     22  C   UNL     1       6.536   3.848  11.820  0.00  0.00    +0.000 A 
ATOM     23  C   UNL     1       7.462   4.888  11.798  0.00  0.00    +0.000 A 
ATOM     24  C   UNL     1       7.902   5.455  12.993  0.00  0.00    +0.000 A 
ATOM     25  C   UNL     1       7.404   4.987  14.211  0.00  0.00    +0.000 A 
ENDBRANCH  19  20
ENDBRANCH   5  19
BRANCH   7  26
ATOM     26  C   UNL     1       1.223   3.094  17.985  0.00  0.00    +0.000 C 
BRANCH  26  27
ATOM     27  O   UNL     1       1.695   1.771  18.222  0.00  0.00    +0.000 OA
ATOM     28  H   UNL     1       1.054   1.149  17.843  0.00  0.00    +0.000 HD
ENDBRANCH  26  27
ENDBRANCH   7  26
TORSDOF 8
ENDMDL
MODEL 4
REMARK VINA RESULT:      -6.0      9.203     11.311
REMARK  Name = 
REMARK  10 active torsions:
REMARK  status: ('A' for Active; 'I' for Inactive)
REMARK    1  A    between atoms: C_1  and  C_2
REMARK    2  A    between atoms: C_2  and  N_3
REMARK    3  A    between atoms: N_3  and  C_4
REMARK    4  A    between atoms: N_3  and  C_6
REMARK    5  A    between atoms: C_4  and  C_5
REMARK    6  A    between atoms: N_10  and  C_11
REMARK    7  A    between atoms: C_11  and  C_12
REMARK    8  A    between atoms: C_18  and  C_19
REMARK    9  A    between atoms: C_25  and  C_26
REMARK   10  A    between atoms: C_26  and  O_27
REMARK                            x       y       z     vdW  Elec       q    Type
REMARK                         _______ _______ _______ _____ _____    ______ ____
ROOT
ATOM      1  C   UNL     1       0.484  10.134  20.176  0.00  0.00    +0.000 C 
ATOM      2  C   UNL     1      -0.858  10.935  19.994  0.00  0.00    +0.000 C 
ATOM      3  C   UNL     1      -0.408  11.230  18.553  0.00  0.00    +0.000 C 
ATOM      4  C   UNL     1       0.226  12.615  18.628  0.00  0.00    +0.000 C 
ATOM      5  N   UNL     1      -0.506  13.325  19.674  0.00  0.00    +0.000 NA
ATOM      6  C   UNL     1      -0.923  12.308  20.673  0.00  0.00    +0.000 C 
ATOM      7  C   UNL     1       0.464   9.940  18.618  0.00  0.00    +0.000 C 
ENDROOT
BRANCH   6   8
ATOM      8  C   UNL     1      -2.315  12.549  21.239  0.00  0.00    +0.000 A 
ATOM      9  C   UNL     1      -2.575  12.435  22.605  0.00  0.00    +0.000 A 
ATOM     10  C   UNL     1      -3.876  12.616  23.068  0.00  0.00    +0.000 A 
ATOM     11  C   UNL     1      -4.883  12.922  22.163  0.00  0.00    +0.000 A 
ATOM     12  C   UNL     1      -4.542  13.043  20.826  0.00  0.00    +0.000 A 
ATOM     13  N   UNL     1      -3.291  12.866  20.346  0.00  0.00    +0.000 NA
ENDBRANCH   6   8
BRANCH   1  14
ATOM     14  N   UNL     1       0.271   8.830  20.840  0.00  0.00    +0.000 NA
BRANCH  14  16
ATOM     15  C   UNL     1       1.738   6.786  20.563  0.00  0.00    +0.000 C 
ATOM     16  C   UNL     1       1.582   8.204  21.109  0.00  0.00    +0.000 C 
ENDBRANCH  14  16
BRANCH  14  17
ATOM     17  C   UNL     1      -0.566   8.950  22.052  0.00  0.00    +0.000 C 
ATOM     18  C   UNL     1       0.092   9.532  23.301  0.00  0.00    +0.000 C 
ENDBRANCH  14  17
ENDBRANCH   1  14
BRANCH   5  19
ATOM     19  C   UNL     1       0.287  14.386  20.313  0.00  0.00    +0.000 C 
BRANCH  19  20
ATOM     20  C   UNL     1       0.552  15.576  19.417  0.00  0.00    +0.000 A 
ATOM     21  C   UNL     1       1.861  15.960  19.104  0.00  0.00    +0.000 A 
ATOM     22  C   UNL     1       2.099  17.031  18.241  0.00  0.00    +0.000 A 
ATOM     23  C   UNL     1       1.030  17.726  17.680  0.00  0.00    +0.000 A 
ATOM     24  C   UNL     1      -0.279  17.361  17.989  0.00  0.00    +0.000 A 
ATOM     25  C   UNL     1      -0.518  16.291  18.854  0.00  0.00    +0.000 A 
ENDBRANCH  19  20
ENDBRANCH   5  19
BRANCH   7  26
ATOM     26  C   UNL     1       1.785   9.966  17.865  0.00  0.00    +0.000 C 
BRANCH  26  27
ATOM     27  O   UNL     1       2.134   8.648  17.454  0.00  0.00    +0.000 OA
ATOM     28  H   UNL     1       1.819   8.026  18.129  0.00  0.00    +0.000 HD
ENDBRANCH  26  27
ENDBRANCH   7  26
TORSDOF 8
ENDMDL
MODEL 5
REMARK VINA RESULT:      -5.9      9.245     11.292
REMARK  Name = 
REMARK  10 active torsions:
REMARK  status: ('A' for Active; 'I' for Inactive)
REMARK    1  A    between atoms: C_1  and  C_2
REMARK    2  A    between atoms: C_2  and  N_3
REMARK    3  A    between atoms: N_3  and  C_4
REMARK    4  A    between atoms: N_3  and  C_6
REMARK    5  A    between atoms: C_4  and  C_5
REMARK    6  A    between atoms: N_10  and  C_11
REMARK    7  A    between atoms: C_11  and  C_12
REMARK    8  A    between atoms: C_18  and  C_19
REMARK    9  A    between atoms: C_25  and  C_26
REMARK   10  A    between atoms: C_26  and  O_27
REMARK                            x       y       z     vdW  Elec       q    Type
REMARK                         _______ _______ _______ _____ _____    ______ ____
ROOT
ATOM      1  C   UNL     1       0.454  10.165  20.206  0.00  0.00    +0.000 C 
ATOM      2  C   UNL     1      -0.900  10.919  19.937  0.00  0.00    +0.000 C 
ATOM      3  C   UNL     1      -0.388  11.193  18.512  0.00  0.00    +0.000 C 
ATOM      4  C   UNL     1       0.201  12.598  18.582  0.00  0.00    +0.000 C 
ATOM      5  N   UNL     1      -0.603  13.311  19.572  0.00  0.00    +0.000 NA
ATOM      6  C   UNL     1      -1.040  12.306  20.576  0.00  0.00    +0.000 C 
ATOM      7  C   UNL     1       0.518   9.932  18.653  0.00  0.00    +0.000 C 
ENDROOT
BRANCH   6   8
ATOM      8  C   UNL     1      -2.465  12.518  21.065  0.00  0.00    +0.000 A 
ATOM      9  C   UNL     1      -3.512  12.757  20.174  0.00  0.00    +0.000 A 
ATOM     10  C   UNL     1      -4.790  12.994  20.675  0.00  0.00    +0.000 A 
ATOM     11  C   UNL     1      -4.998  12.969  22.046  0.00  0.00    +0.000 A 
ATOM     12  C   UNL     1      -3.914  12.699  22.864  0.00  0.00    +0.000 A 
ATOM     13  N   UNL     1      -2.662  12.474  22.410  0.00  0.00    +0.000 NA
ENDBRANCH   6   8
BRANCH   1  14
ATOM     14  N   UNL     1       0.246   8.871  20.892  0.00  0.00    +0.000 NA
BRANCH  14  16
ATOM     15  C   UNL     1       1.779   6.884  20.565  0.00  0.00    +0.000 C 
ATOM     16  C   UNL     1       1.561   8.263  21.184  0.00  0.00    +0.000 C 
ENDBRANCH  14  16
BRANCH  14  17
ATOM     17  C   UNL     1      -0.603   9.006  22.094  0.00  0.00    +0.000 C 
ATOM     18  C   UNL     1       0.058   9.547  23.360  0.00  0.00    +0.000 C 
ENDBRANCH  14  17
ENDBRANCH   1  14
BRANCH   5  19
ATOM     19  C   UNL     1       0.125  14.410  20.222  0.00  0.00    +0.000 C 
BRANCH  19  20
ATOM     20  C   UNL     1       0.435  15.568  19.298  0.00  0.00    +0.000 A 
ATOM     21  C   UNL     1      -0.595  16.329  18.732  0.00  0.00    +0.000 A 
ATOM     22  C   UNL     1      -0.304  17.423  17.916  0.00  0.00    +0.000 A 
ATOM     23  C   UNL     1       1.021  17.770  17.660  0.00  0.00    +0.000 A 
ATOM     24  C   UNL     1       2.057  17.016  18.208  0.00  0.00    +0.000 A 
ATOM     25  C   UNL     1       1.766  15.920  19.023  0.00  0.00    +0.000 A 
ENDBRANCH  19  20
ENDBRANCH   5  19
BRANCH   7  26
ATOM     26  C   UNL     1       1.874   9.980  17.967  0.00  0.00    +0.000 C 
BRANCH  26  27
ATOM     27  O   UNL     1       2.135   8.737  17.323  0.00  0.00    +0.000 OA
ATOM     28  H   UNL     1       2.089   8.034  17.990  0.00  0.00    +0.000 HD
ENDBRANCH  26  27
ENDBRANCH   7  26
TORSDOF 8
ENDMDL
MODEL 6
REMARK VINA RESULT:      -5.7      9.793     12.956
REMARK  Name = 
REMARK  10 active torsions:
REMARK  status: ('A' for Active; 'I' for Inactive)
REMARK    1  A    between atoms: C_1  and  C_2
REMARK    2  A    between atoms: C_2  and  N_3
REMARK    3  A    between atoms: N_3  and  C_4
REMARK    4  A    between atoms: N_3  and  C_6
REMARK    5  A    between atoms: C_4  and  C_5
REMARK    6  A    between atoms: N_10  and  C_11
REMARK    7  A    between atoms: C_11  and  C_12
REMARK    8  A    between atoms: C_18  and  C_19
REMARK    9  A    between atoms: C_25  and  C_26
REMARK   10  A    between atoms: C_26  and  O_27
REMARK                            x       y       z     vdW  Elec       q    Type
REMARK                         _______ _______ _______ _____ _____    ______ ____
ROOT
ATOM      1  C   UNL     1       9.449  13.654  18.921  0.00  0.00    +0.000 C 
ATOM      2  C   UNL     1       9.790  14.189  20.360  0.00  0.00    +0.000 C 
ATOM      3  C   UNL     1      10.801  13.035  20.478  0.00  0.00    +0.000 C 
ATOM      4  C   UNL     1      10.047  11.944  21.231  0.00  0.00    +0.000 C 
ATOM      5  N   UNL     1       9.136  12.648  22.131  0.00  0.00    +0.000 NA
ATOM      6  C   UNL     1       8.748  13.910  21.450  0.00  0.00    +0.000 C 
ATOM      7  C   UNL     1      10.889  13.025  18.922  0.00  0.00    +0.000 C 
ENDROOT
BRANCH   6   8
ATOM      8  C   UNL     1       8.642  15.100  22.392  0.00  0.00    +0.000 A 
ATOM      9  C   UNL     1       9.746  15.557  23.113  0.00  0.00    +0.000 A 
ATOM     10  C   UNL     1       9.587  16.619  24.001  0.00  0.00    +0.000 A 
ATOM     11  C   UNL     1       8.339  17.209  24.136  0.00  0.00    +0.000 A 
ATOM     12  C   UNL     1       7.298  16.716  23.368  0.00  0.00    +0.000 A 
ATOM     13  N   UNL     1       7.419  15.683  22.505  0.00  0.00    +0.000 NA
ENDBRANCH   6   8
BRANCH   1  14
ATOM     14  N   UNL     1       9.385  14.742  17.921  0.00  0.00    +0.000 NA
BRANCH  14  16
ATOM     15  C   UNL     1       6.865  14.655  17.698  0.00  0.00    +0.000 C 
ATOM     16  C   UNL     1       8.105  15.464  18.073  0.00  0.00    +0.000 C 
ENDBRANCH  14  16
BRANCH  14  17
ATOM     17  C   UNL     1      10.559  15.636  17.991  0.00  0.00    +0.000 C 
ATOM     18  C   UNL     1      10.779  16.595  16.823  0.00  0.00    +0.000 C 
ENDBRANCH  14  17
ENDBRANCH   1  14
BRANCH   5  19
ATOM     19  C   UNL     1       7.944  11.858  22.476  0.00  0.00    +0.000 C 
BRANCH  19  20
ATOM     20  C   UNL     1       7.532  11.977  23.927  0.00  0.00    +0.000 A 
ATOM     21  C   UNL     1       6.304  11.470  24.367  0.00  0.00    +0.000 A 
ATOM     22  C   UNL     1       5.947  11.543  25.714  0.00  0.00    +0.000 A 
ATOM     23  C   UNL     1       6.817  12.121  26.636  0.00  0.00    +0.000 A 
ATOM     24  C   UNL     1       8.039  12.639  26.212  0.00  0.00    +0.000 A 
ATOM     25  C   UNL     1       8.395  12.568  24.863  0.00  0.00    +0.000 A 
ENDBRANCH  19  20
ENDBRANCH   5  19
BRANCH   7  26
ATOM     26  C   UNL     1      11.092  11.674  18.254  0.00  0.00    +0.000 C 
BRANCH  26  27
ATOM     27  O   UNL     1      12.105  11.774  17.258  0.00  0.00    +0.000 OA
ATOM     28  H   UNL     1      12.867  12.232  17.646  0.00  0.00    +0.000 HD
ENDBRANCH  26  27
ENDBRANCH   7  26
TORSDOF 8
ENDMDL
MODEL 7
REMARK VINA RESULT:      -5.7      8.470      9.804
REMARK  Name = 
REMARK  10 active torsions:
REMARK  status: ('A' for Active; 'I' for Inactive)
REMARK    1  A    between atoms: C_1  and  C_2
REMARK    2  A    between atoms: C_2  and  N_3
REMARK    3  A    between atoms: N_3  and  C_4
REMARK    4  A    between atoms: N_3  and  C_6
REMARK    5  A    between atoms: C_4  and  C_5
REMARK    6  A    between atoms: N_10  and  C_11
REMARK    7  A    between atoms: C_11  and  C_12
REMARK    8  A    between atoms: C_18  and  C_19
REMARK    9  A    between atoms: C_25  and  C_26
REMARK   10  A    between atoms: C_26  and  O_27
REMARK                            x       y       z     vdW  Elec       q    Type
REMARK                         _______ _______ _______ _____ _____    ______ ____
ROOT
ATOM      1  C   UNL     1      -2.553  12.229  19.779  0.00  0.00    +0.000 C 
ATOM      2  C   UNL     1      -1.160  12.507  19.104  0.00  0.00    +0.000 C 
ATOM      3  C   UNL     1      -1.600  11.572  17.964  0.00  0.00    +0.000 C 
ATOM      4  C   UNL     1      -0.984  10.223  18.319  0.00  0.00    +0.000 C 
ATOM      5  N   UNL     1       0.266  10.533  19.010  0.00  0.00    +0.000 NA
ATOM      6  C   UNL     1       0.050  11.810  19.738  0.00  0.00    +0.000 C 
ATOM      7  C   UNL     1      -3.077  11.904  18.334  0.00  0.00    +0.000 C 
ENDROOT
BRANCH   6   8
ATOM      8  C   UNL     1       1.259  12.733  19.716  0.00  0.00    +0.000 A 
ATOM      9  C   UNL     1       1.761  13.246  18.519  0.00  0.00    +0.000 A 
ATOM     10  C   UNL     1       2.900  14.046  18.546  0.00  0.00    +0.000 A 
ATOM     11  C   UNL     1       3.501  14.331  19.764  0.00  0.00    +0.000 A 
ATOM     12  C   UNL     1       2.929  13.807  20.910  0.00  0.00    +0.000 A 
ATOM     13  N   UNL     1       1.830  13.021  20.916  0.00  0.00    +0.000 NA
ENDBRANCH   6   8
BRANCH   1  14
ATOM     14  N   UNL     1      -3.194  13.468  20.271  0.00  0.00    +0.000 NA
BRANCH  14  16
ATOM     15  C   UNL     1      -3.937  12.611  22.534  0.00  0.00    +0.000 C 
ATOM     16  C   UNL     1      -4.331  13.110  21.145  0.00  0.00    +0.000 C 
ENDBRANCH  14  16
BRANCH  14  17
ATOM     17  C   UNL     1      -2.228  14.373  20.928  0.00  0.00    +0.000 C 
ATOM     18  C   UNL     1      -2.271  15.847  20.532  0.00  0.00    +0.000 C 
ENDBRANCH  14  17
ENDBRANCH   1  14
BRANCH   5  19
ATOM     19  C   UNL     1       0.688   9.473  19.938  0.00  0.00    +0.000 C 
BRANCH  19  20
ATOM     20  C   UNL     1       1.665   8.487  19.335  0.00  0.00    +0.000 A 
ATOM     21  C   UNL     1       1.971   7.289  19.990  0.00  0.00    +0.000 A 
ATOM     22  C   UNL     1       2.839   6.363  19.409  0.00  0.00    +0.000 A 
ATOM     23  C   UNL     1       3.406   6.624  18.163  0.00  0.00    +0.000 A 
ATOM     24  C   UNL     1       3.118   7.817  17.503  0.00  0.00    +0.000 A 
ATOM     25  C   UNL     1       2.252   8.745  18.085  0.00  0.00    +0.000 A 
ENDBRANCH  19  20
ENDBRANCH   5  19
BRANCH   7  26
ATOM     26  C   UNL     1      -4.095  10.789  18.163  0.00  0.00    +0.000 C 
BRANCH  26  27
ATOM     27  O   UNL     1      -5.081  11.173  17.209  0.00  0.00    +0.000 OA
ATOM     28  H   UNL     1      -4.640  11.669  16.502  0.00  0.00    +0.000 HD
ENDBRANCH  26  27
ENDBRANCH   7  26
TORSDOF 8
ENDMDL
MODEL 8
REMARK VINA RESULT:      -5.7      8.482     10.558
REMARK  Name = 
REMARK  10 active torsions:
REMARK  status: ('A' for Active; 'I' for Inactive)
REMARK    1  A    between atoms: C_1  and  C_2
REMARK    2  A    between atoms: C_2  and  N_3
REMARK    3  A    between atoms: N_3  and  C_4
REMARK    4  A    between atoms: N_3  and  C_6
REMARK    5  A    between atoms: C_4  and  C_5
REMARK    6  A    between atoms: N_10  and  C_11
REMARK    7  A    between atoms: C_11  and  C_12
REMARK    8  A    between atoms: C_18  and  C_19
REMARK    9  A    between atoms: C_25  and  C_26
REMARK   10  A    between atoms: C_26  and  O_27
REMARK                            x       y       z     vdW  Elec       q    Type
REMARK                         _______ _______ _______ _____ _____    ______ ____
ROOT
ATOM      1  C   UNL     1      -2.034  11.650  18.744  0.00  0.00    +0.000 C 
ATOM      2  C   UNL     1      -0.903  10.819  19.454  0.00  0.00    +0.000 C 
ATOM      3  C   UNL     1      -1.001  11.812  20.625  0.00  0.00    +0.000 C 
ATOM      4  C   UNL     1       0.116  12.818  20.365  0.00  0.00    +0.000 C 
ATOM      5  N   UNL     1       1.178  12.062  19.705  0.00  0.00    +0.000 NA
ATOM      6  C   UNL     1       0.516  11.001  18.903  0.00  0.00    +0.000 C 
ATOM      7  C   UNL     1      -2.466  12.106  20.184  0.00  0.00    +0.000 C 
ENDROOT
BRANCH   6   8
ATOM      8  C   UNL     1       1.260   9.674  18.921  0.00  0.00    +0.000 A 
ATOM      9  C   UNL     1       1.954   9.213  17.801  0.00  0.00    +0.000 A 
ATOM     10  C   UNL     1       2.577   7.969  17.850  0.00  0.00    +0.000 A 
ATOM     11  C   UNL     1       2.511   7.222  19.018  0.00  0.00    +0.000 A 
ATOM     12  C   UNL     1       1.826   7.757  20.095  0.00  0.00    +0.000 A 
ATOM     13  N   UNL     1       1.204   8.957  20.076  0.00  0.00    +0.000 NA
ENDBRANCH   6   8
BRANCH   1  14
ATOM     14  N   UNL     1      -3.083  10.784  18.163  0.00  0.00    +0.000 NA
BRANCH  14  16
ATOM     15  C   UNL     1      -5.562  11.267  17.987  0.00  0.00    +0.000 C 
ATOM     16  C   UNL     1      -4.139  11.633  17.572  0.00  0.00    +0.000 C 
ENDBRANCH  14  16
BRANCH  14  17
ATOM     17  C   UNL     1      -2.532   9.804  17.205  0.00  0.00    +0.000 C 
ATOM     18  C   UNL     1      -2.762  10.073  15.720  0.00  0.00    +0.000 C 
ENDBRANCH  14  17
ENDBRANCH   1  14
BRANCH   5  19
ATOM     19  C   UNL     1       2.035  12.898  18.851  0.00  0.00    +0.000 C 
BRANCH  19  20
ATOM     20  C   UNL     1       2.508  14.171  19.520  0.00  0.00    +0.000 A 
ATOM     21  C   UNL     1       3.326  14.122  20.655  0.00  0.00    +0.000 A 
ATOM     22  C   UNL     1       3.796  15.298  21.242  0.00  0.00    +0.000 A 
ATOM     23  C   UNL     1       3.454  16.535  20.698  0.00  0.00    +0.000 A 
ATOM     24  C   UNL     1       2.633  16.599  19.574  0.00  0.00    +0.000 A 
ATOM     25  C   UNL     1       2.161  15.423  18.987  0.00  0.00    +0.000 A 
ENDBRANCH  19  20
ENDBRANCH   5  19
BRANCH   7  26
ATOM     26  C   UNL     1      -2.970  13.527  20.376  0.00  0.00    +0.000 C 
BRANCH  26  27
ATOM     27  O   UNL     1      -4.362  13.512  20.679  0.00  0.00    +0.000 OA
ATOM     28  H   UNL     1      -4.461  13.472  21.643  0.00  0.00    +0.000 HD
ENDBRANCH  26  27
ENDBRANCH   7  26
TORSDOF 8
ENDMDL
MODEL 9
REMARK VINA RESULT:      -5.6      9.525     12.279
REMARK  Name = 
REMARK  10 active torsions:
REMARK  status: ('A' for Active; 'I' for Inactive)
REMARK    1  A    between atoms: C_1  and  C_2
REMARK    2  A    between atoms: C_2  and  N_3
REMARK    3  A    between atoms: N_3  and  C_4
REMARK    4  A    between atoms: N_3  and  C_6
REMARK    5  A    between atoms: C_4  and  C_5
REMARK    6  A    between atoms: N_10  and  C_11
REMARK    7  A    between atoms: C_11  and  C_12
REMARK    8  A    between atoms: C_18  and  C_19
REMARK    9  A    between atoms: C_25  and  C_26
REMARK   10  A    between atoms: C_26  and  O_27
REMARK                            x       y       z     vdW  Elec       q    Type
REMARK                         _______ _______ _______ _____ _____    ______ ____
ROOT
ATOM      1  C   UNL     1       0.188  11.323  20.114  0.00  0.00    +0.000 C 
ATOM      2  C   UNL     1      -0.663  11.727  18.853  0.00  0.00    +0.000 C 
ATOM      3  C   UNL     1      -0.458  13.195  19.269  0.00  0.00    +0.000 C 
ATOM      4  C   UNL     1      -1.723  13.550  20.043  0.00  0.00    +0.000 C 
ATOM      5  N   UNL     1      -2.791  12.764  19.432  0.00  0.00    +0.000 NA
ATOM      6  C   UNL     1      -2.175  11.498  18.957  0.00  0.00    +0.000 C 
ATOM      7  C   UNL     1       0.839  12.748  20.008  0.00  0.00    +0.000 C 
ENDROOT
BRANCH   6   8
ATOM      8  C   UNL     1      -2.726  11.019  17.621  0.00  0.00    +0.000 A 
ATOM      9  C   UNL     1      -2.084  10.022  16.886  0.00  0.00    +0.000 A 
ATOM     10  C   UNL     1      -2.600   9.653  15.645  0.00  0.00    +0.000 A 
ATOM     11  C   UNL     1      -3.749  10.272  15.176  0.00  0.00    +0.000 A 
ATOM     12  C   UNL     1      -4.342  11.235  15.975  0.00  0.00    +0.000 A 
ATOM     13  N   UNL     1      -3.862  11.620  17.178  0.00  0.00    +0.000 NA
ENDBRANCH   6   8
BRANCH   1  14
ATOM     14  N   UNL     1       1.200  10.291  19.798  0.00  0.00    +0.000 NA
BRANCH  14  16
ATOM     15  C   UNL     1      -0.231   9.210  21.584  0.00  0.00    +0.000 C 
ATOM     16  C   UNL     1       0.891   9.062  20.558  0.00  0.00    +0.000 C 
ENDBRANCH  14  16
BRANCH  14  17
ATOM     17  C   UNL     1       1.319  10.051  18.345  0.00  0.00    +0.000 C 
ATOM     18  C   UNL     1       1.947   8.732  17.903  0.00  0.00    +0.000 C 
ENDBRANCH  14  17
ENDBRANCH   1  14
BRANCH   5  19
ATOM     19  C   UNL     1      -3.902  12.485  20.355  0.00  0.00    +0.000 C 
BRANCH  19  20
ATOM     20  C   UNL     1      -3.691  13.035  21.748  0.00  0.00    +0.000 A 
ATOM     21  C   UNL     1      -4.315  14.221  22.153  0.00  0.00    +0.000 A 
ATOM     22  C   UNL     1      -4.153  14.702  23.453  0.00  0.00    +0.000 A 
ATOM     23  C   UNL     1      -3.366  13.999  24.363  0.00  0.00    +0.000 A 
ATOM     24  C   UNL     1      -2.730  12.822  23.973  0.00  0.00    +0.000 A 
ATOM     25  C   UNL     1      -2.891  12.342  22.671  0.00  0.00    +0.000 A 
ENDBRANCH  19  20
ENDBRANCH   5  19
BRANCH   7  26
ATOM     26  C   UNL     1       1.186  13.485  21.292  0.00  0.00    +0.000 C 
BRANCH  26  27
ATOM     27  O   UNL     1       2.601  13.541  21.451  0.00  0.00    +0.000 OA
ATOM     28  H   UNL     1       2.808  14.264  22.065  0.00  0.00    +0.000 HD
ENDBRANCH  26  27
ENDBRANCH   7  26
TORSDOF 8
ENDMDL
