MODEL 1
REMARK VINA RESULT:      -7.3      0.000      0.000
REMARK  Name = 
REMARK  12 active torsions:
REMARK  status: ('A' for Active; 'I' for Inactive)
REMARK    1  A    between atoms: C_1  and  O_2
REMARK    2  A    between atoms: O_2  and  C_3
REMARK    3  A    between atoms: C_7  and  O_8
REMARK    4  A    between atoms: O_8  and  C_9
REMARK    5  A    between atoms: C_10  and  C_11
REMARK    6  A    between atoms: C_11  and  C_13
REMARK    7  A    between atoms: C_15  and  O_16
REMARK    8  A    between atoms: O_16  and  C_17
REMARK    9  A    between atoms: C_18  and  O_19
REMARK   10  A    between atoms: O_19  and  C_20
REMARK   11  A    between atoms: C_21  and  O_22
REMARK   12  A    between atoms: O_22  and  C_23
REMARK                            x       y       z     vdW  Elec       q    Type
REMARK                         _______ _______ _______ _____ _____    ______ ____
ROOT
ATOM      1  C   UNL     1       3.577   4.629  19.250  0.00  0.00    +0.000 A 
ATOM      2  C   UNL     1       2.895   4.771  20.447  0.00  0.00    +0.000 A 
ATOM      3  C   UNL     1       2.144   5.928  20.696  0.00  0.00    +0.000 A 
ATOM      4  C   UNL     1       2.075   7.009  19.784  0.00  0.00    +0.000 A 
ATOM      5  C   UNL     1       1.344   8.227  19.975  0.00  0.00    +0.000 A 
ATOM      6  C   UNL     1       1.381   9.241  18.990  0.00  0.00    +0.000 A 
ATOM      7  C   UNL     1       2.115   9.044  17.815  0.00  0.00    +0.000 A 
ATOM      8  C   UNL     1       2.783   7.845  17.597  0.00  0.00    +0.000 A 
ATOM      9  C   UNL     1       2.788   6.839  18.567  0.00  0.00    +0.000 A 
ATOM     10  C   UNL     1       3.506   5.658  18.314  0.00  0.00    +0.000 A 
ENDROOT
BRANCH   1  12
ATOM     11  C   UNL     1       4.260   2.404  19.709  0.00  0.00    +0.000 C 
ATOM     12  O   UNL     1       4.332   3.554  18.875  0.00  0.00    +0.000 OA
ENDBRANCH   1  12
BRANCH   5  13
ATOM     13  O   UNL     1       0.426   8.401  20.988  0.00  0.00    +0.000 OA
ATOM     14  C   UNL     1       0.897   8.950  22.215  0.00  0.00    +0.000 C 
ENDBRANCH   5  13
BRANCH   6  15
ATOM     15  C   UNL     1       0.743  10.573  19.216  0.00  0.00    +0.000 C 
ATOM     16  O   UNL     1       1.421  11.514  19.617  0.00  0.00    +0.000 OA
BRANCH  15  17
ATOM     17  C   UNL     1      -0.679  10.835  18.837  0.00  0.00    +0.000 A 
ATOM     18  C   UNL     1      -1.415  11.702  19.649  0.00  0.00    +0.000 A 
ATOM     19  C   UNL     1      -2.735  12.029  19.325  0.00  0.00    +0.000 A 
ATOM     20  C   UNL     1      -3.341  11.455  18.187  0.00  0.00    +0.000 A 
ATOM     21  C   UNL     1      -2.611  10.554  17.381  0.00  0.00    +0.000 A 
ATOM     22  C   UNL     1      -1.280  10.251  17.718  0.00  0.00    +0.000 A 
BRANCH  19  23
ATOM     23  O   UNL     1      -3.498  12.891  20.078  0.00  0.00    +0.000 OA
ATOM     24  C   UNL     1      -2.797  13.920  20.770  0.00  0.00    +0.000 C 
ENDBRANCH  19  23
BRANCH  20  25
ATOM     25  O   UNL     1      -4.667  11.787  18.007  0.00  0.00    +0.000 OA
ATOM     26  C   UNL     1      -5.637  10.839  18.434  0.00  0.00    +0.000 C 
ENDBRANCH  20  25
BRANCH  21  27
ATOM     27  O   UNL     1      -3.258   9.987  16.314  0.00  0.00    +0.000 OA
ATOM     28  C   UNL     1      -3.059  10.549  15.024  0.00  0.00    +0.000 C 
ENDBRANCH  21  27
ENDBRANCH  15  17
ENDBRANCH   6  15
TORSDOF 7
ENDMDL
MODEL 2
REMARK VINA RESULT:      -7.0      0.980      2.596
REMARK  Name = 
REMARK  12 active torsions:
REMARK  status: ('A' for Active; 'I' for Inactive)
REMARK    1  A    between atoms: C_1  and  O_2
REMARK    2  A    between atoms: O_2  and  C_3
REMARK    3  A    between atoms: C_7  and  O_8
REMARK    4  A    between atoms: O_8  and  C_9
REMARK    5  A    between atoms: C_10  and  C_11
REMARK    6  A    between atoms: C_11  and  C_13
REMARK    7  A    between atoms: C_15  and  O_16
REMARK    8  A    between atoms: O_16  and  C_17
REMARK    9  A    between atoms: C_18  and  O_19
REMARK   10  A    between atoms: O_19  and  C_20
REMARK   11  A    between atoms: C_21  and  O_22
REMARK   12  A    between atoms: O_22  and  C_23
REMARK                            x       y       z     vdW  Elec       q    Type
REMARK                         _______ _______ _______ _____ _____    ______ ____
ROOT
ATOM      1  C   UNL     1       3.463   5.395  18.872  0.00  0.00    +0.000 A 
ATOM      2  C   UNL     1       2.845   5.371  20.111  0.00  0.00    +0.000 A 
ATOM      3  C   UNL     1       2.055   6.452  20.524  0.00  0.00    +0.000 A 
ATOM      4  C   UNL     1       1.880   7.618  19.740  0.00  0.00    +0.000 A 
ATOM      5  C   UNL     1       1.104   8.768  20.102  0.00  0.00    +0.000 A 
ATOM      6  C   UNL     1       1.034   9.881  19.232  0.00  0.00    +0.000 A 
ATOM      7  C   UNL     1       1.707   9.851  18.006  0.00  0.00    +0.000 A 
ATOM      8  C   UNL     1       2.418   8.720  17.623  0.00  0.00    +0.000 A 
ATOM      9  C   UNL     1       2.529   7.618  18.477  0.00  0.00    +0.000 A 
ATOM     10  C   UNL     1       3.288   6.512  18.059  0.00  0.00    +0.000 A 
ENDROOT
BRANCH   1  12
ATOM     11  C   UNL     1       4.339   4.363  16.923  0.00  0.00    +0.000 C 
ATOM     12  O   UNL     1       4.246   4.408  18.342  0.00  0.00    +0.000 OA
ENDBRANCH   1  12
BRANCH   5  13
ATOM     13  O   UNL     1       0.239   8.783  21.175  0.00  0.00    +0.000 OA
ATOM     14  C   UNL     1       0.764   9.181  22.437  0.00  0.00    +0.000 C 
ENDBRANCH   5  13
BRANCH   6  15
ATOM     15  C   UNL     1       0.346  11.145  19.636  0.00  0.00    +0.000 C 
ATOM     16  O   UNL     1       0.993  12.057  20.141  0.00  0.00    +0.000 OA
BRANCH  15  17
ATOM     17  C   UNL     1      -1.094  11.390  19.317  0.00  0.00    +0.000 A 
ATOM     18  C   UNL     1      -1.611  10.790  18.166  0.00  0.00    +0.000 A 
ATOM     19  C   UNL     1      -2.961  10.938  17.834  0.00  0.00    +0.000 A 
ATOM     20  C   UNL     1      -3.802  11.726  18.649  0.00  0.00    +0.000 A 
ATOM     21  C   UNL     1      -3.276  12.360  19.796  0.00  0.00    +0.000 A 
ATOM     22  C   UNL     1      -1.919  12.185  20.118  0.00  0.00    +0.000 A 
BRANCH  19  23
ATOM     23  O   UNL     1      -3.526  10.354  16.725  0.00  0.00    +0.000 OA
ATOM     24  C   UNL     1      -2.729  10.327  15.545  0.00  0.00    +0.000 C 
ENDBRANCH  19  23
BRANCH  20  25
ATOM     25  O   UNL     1      -5.093  11.867  18.186  0.00  0.00    +0.000 OA
ATOM     26  C   UNL     1      -6.097  11.078  18.811  0.00  0.00    +0.000 C 
ENDBRANCH  20  25
BRANCH  21  27
ATOM     27  O   UNL     1      -4.119  13.153  20.529  0.00  0.00    +0.000 OA
ATOM     28  C   UNL     1      -4.349  12.820  21.891  0.00  0.00    +0.000 C 
ENDBRANCH  21  27
ENDBRANCH  15  17
ENDBRANCH   6  15
TORSDOF 7
ENDMDL
MODEL 3
REMARK VINA RESULT:      -7.0      3.245      8.963
REMARK  Name = 
REMARK  12 active torsions:
REMARK  status: ('A' for Active; 'I' for Inactive)
REMARK    1  A    between atoms: C_1  and  O_2
REMARK    2  A    between atoms: O_2  and  C_3
REMARK    3  A    between atoms: C_7  and  O_8
REMARK    4  A    between atoms: O_8  and  C_9
REMARK    5  A    between atoms: C_10  and  C_11
REMARK    6  A    between atoms: C_11  and  C_13
REMARK    7  A    between atoms: C_15  and  O_16
REMARK    8  A    between atoms: O_16  and  C_17
REMARK    9  A    between atoms: C_18  and  O_19
REMARK   10  A    between atoms: O_19  and  C_20
REMARK   11  A    between atoms: C_21  and  O_22
REMARK   12  A    between atoms: O_22  and  C_23
REMARK                            x       y       z     vdW  Elec       q    Type
REMARK                         _______ _______ _______ _____ _____    ______ ____
ROOT
ATOM      1  C   UNL     1       0.618  10.289  21.288  0.00  0.00    +0.000 A 
ATOM      2  C   UNL     1       0.815   9.204  22.126  0.00  0.00    +0.000 A 
ATOM      3  C   UNL     1       1.402   8.032  21.631  0.00  0.00    +0.000 A 
ATOM      4  C   UNL     1       1.779   7.875  20.275  0.00  0.00    +0.000 A 
ATOM      5  C   UNL     1       2.367   6.704  19.694  0.00  0.00    +0.000 A 
ATOM      6  C   UNL     1       2.673   6.672  18.313  0.00  0.00    +0.000 A 
ATOM      7  C   UNL     1       2.421   7.795  17.518  0.00  0.00    +0.000 A 
ATOM      8  C   UNL     1       1.901   8.953  18.083  0.00  0.00    +0.000 A 
ATOM      9  C   UNL     1       1.561   9.001  19.438  0.00  0.00    +0.000 A 
ATOM     10  C   UNL     1       1.006  10.184  19.954  0.00  0.00    +0.000 A 
ENDROOT
BRANCH   1  12
ATOM     11  C   UNL     1      -1.208  11.450  22.262  0.00  0.00    +0.000 C 
ATOM     12  O   UNL     1       0.072  11.490  21.641  0.00  0.00    +0.000 OA
ENDBRANCH   1  12
BRANCH   5  13
ATOM     13  O   UNL     1       2.850   5.654  20.445  0.00  0.00    +0.000 OA
ATOM     14  C   UNL     1       1.913   4.680  20.892  0.00  0.00    +0.000 C 
ENDBRANCH   5  13
BRANCH   6  15
ATOM     15  C   UNL     1       3.161   5.424  17.651  0.00  0.00    +0.000 C 
ATOM     16  O   UNL     1       2.438   4.433  17.610  0.00  0.00    +0.000 OA
BRANCH  15  17
ATOM     17  C   UNL     1       4.458   5.386  16.909  0.00  0.00    +0.000 A 
ATOM     18  C   UNL     1       4.602   4.421  15.909  0.00  0.00    +0.000 A 
ATOM     19  C   UNL     1       5.770   4.360  15.144  0.00  0.00    +0.000 A 
ATOM     20  C   UNL     1       6.827   5.259  15.404  0.00  0.00    +0.000 A 
ATOM     21  C   UNL     1       6.698   6.215  16.435  0.00  0.00    +0.000 A 
ATOM     22  C   UNL     1       5.508   6.268  17.182  0.00  0.00    +0.000 A 
BRANCH  19  23
ATOM     23  O   UNL     1       5.957   3.444  14.136  0.00  0.00    +0.000 OA
ATOM     24  C   UNL     1       5.264   3.693  12.916  0.00  0.00    +0.000 C 
ENDBRANCH  19  23
BRANCH  20  25
ATOM     25  O   UNL     1       7.959   5.059  14.644  0.00  0.00    +0.000 OA
ATOM     26  C   UNL     1       7.971   5.619  13.337  0.00  0.00    +0.000 C 
ENDBRANCH  20  25
BRANCH  21  27
ATOM     27  O   UNL     1       7.769   7.034  16.681  0.00  0.00    +0.000 OA
ATOM     28  C   UNL     1       7.612   8.092  17.617  0.00  0.00    +0.000 C 
ENDBRANCH  21  27
ENDBRANCH  15  17
ENDBRANCH   6  15
TORSDOF 7
ENDMDL
MODEL 4
REMARK VINA RESULT:      -6.9      3.293      8.750
REMARK  Name = 
REMARK  12 active torsions:
REMARK  status: ('A' for Active; 'I' for Inactive)
REMARK    1  A    between atoms: C_1  and  O_2
REMARK    2  A    between atoms: O_2  and  C_3
REMARK    3  A    between atoms: C_7  and  O_8
REMARK    4  A    between atoms: O_8  and  C_9
REMARK    5  A    between atoms: C_10  and  C_11
REMARK    6  A    between atoms: C_11  and  C_13
REMARK    7  A    between atoms: C_15  and  O_16
REMARK    8  A    between atoms: O_16  and  C_17
REMARK    9  A    between atoms: C_18  and  O_19
REMARK   10  A    between atoms: O_19  and  C_20
REMARK   11  A    between atoms: C_21  and  O_22
REMARK   12  A    between atoms: O_22  and  C_23
REMARK                            x       y       z     vdW  Elec       q    Type
REMARK                         _______ _______ _______ _____ _____    ______ ____
ROOT
ATOM      1  C   UNL     1       0.428  10.092  20.795  0.00  0.00    +0.000 A 
ATOM      2  C   UNL     1       0.534   9.050  21.701  0.00  0.00    +0.000 A 
ATOM      3  C   UNL     1       1.180   7.862  21.333  0.00  0.00    +0.000 A 
ATOM      4  C   UNL     1       1.710   7.644  20.038  0.00  0.00    +0.000 A 
ATOM      5  C   UNL     1       2.367   6.454  19.585  0.00  0.00    +0.000 A 
ATOM      6  C   UNL     1       2.828   6.359  18.251  0.00  0.00    +0.000 A 
ATOM      7  C   UNL     1       2.662   7.440  17.379  0.00  0.00    +0.000 A 
ATOM      8  C   UNL     1       2.075   8.619  17.824  0.00  0.00    +0.000 A 
ATOM      9  C   UNL     1       1.582   8.728  19.128  0.00  0.00    +0.000 A 
ATOM     10  C   UNL     1       0.966   9.927  19.520  0.00  0.00    +0.000 A 
ENDROOT
BRANCH   1  12
ATOM     11  C   UNL     1      -0.395  12.122  19.885  0.00  0.00    +0.000 C 
ATOM     12  O   UNL     1      -0.162  11.302  21.024  0.00  0.00    +0.000 OA
ENDBRANCH   1  12
BRANCH   5  13
ATOM     13  O   UNL     1       2.766   5.446  20.436  0.00  0.00    +0.000 OA
ATOM     14  C   UNL     1       1.768   4.544  20.902  0.00  0.00    +0.000 C 
ENDBRANCH   5  13
BRANCH   6  15
ATOM     15  C   UNL     1       3.394   5.087  17.710  0.00  0.00    +0.000 C 
ATOM     16  O   UNL     1       2.808   4.027  17.907  0.00  0.00    +0.000 OA
BRANCH  15  17
ATOM     17  C   UNL     1       4.589   5.081  16.811  0.00  0.00    +0.000 A 
ATOM     18  C   UNL     1       5.607   5.998  17.083  0.00  0.00    +0.000 A 
ATOM     19  C   UNL     1       6.773   6.014  16.313  0.00  0.00    +0.000 A 
ATOM     20  C   UNL     1       6.911   5.119  15.230  0.00  0.00    +0.000 A 
ATOM     21  C   UNL     1       5.871   4.212  14.932  0.00  0.00    +0.000 A 
ATOM     22  C   UNL     1       4.713   4.203  15.730  0.00  0.00    +0.000 A 
BRANCH  19  23
ATOM     23  O   UNL     1       7.813   6.882  16.549  0.00  0.00    +0.000 OA
ATOM     24  C   UNL     1       7.561   7.941  17.467  0.00  0.00    +0.000 C 
ENDBRANCH  19  23
BRANCH  20  25
ATOM     25  O   UNL     1       8.065   5.275  14.492  0.00  0.00    +0.000 OA
ATOM     26  C   UNL     1       7.918   5.645  13.128  0.00  0.00    +0.000 C 
ENDBRANCH  20  25
BRANCH  21  27
ATOM     27  O   UNL     1       6.031   3.395  13.843  0.00  0.00    +0.000 OA
ATOM     28  C   UNL     1       5.275   3.671  12.672  0.00  0.00    +0.000 C 
ENDBRANCH  21  27
ENDBRANCH  15  17
ENDBRANCH   6  15
TORSDOF 7
ENDMDL
MODEL 5
REMARK VINA RESULT:      -6.7      1.967      3.477
REMARK  Name = 
REMARK  12 active torsions:
REMARK  status: ('A' for Active; 'I' for Inactive)
REMARK    1  A    between atoms: C_1  and  O_2
REMARK    2  A    between atoms: O_2  and  C_3
REMARK    3  A    between atoms: C_7  and  O_8
REMARK    4  A    between atoms: O_8  and  C_9
REMARK    5  A    between atoms: C_10  and  C_11
REMARK    6  A    between atoms: C_11  and  C_13
REMARK    7  A    between atoms: C_15  and  O_16
REMARK    8  A    between atoms: O_16  and  C_17
REMARK    9  A    between atoms: C_18  and  O_19
REMARK   10  A    between atoms: O_19  and  C_20
REMARK   11  A    between atoms: C_21  and  O_22
REMARK   12  A    between atoms: O_22  and  C_23
REMARK                            x       y       z     vdW  Elec       q    Type
REMARK                         _______ _______ _______ _____ _____    ______ ____
ROOT
ATOM      1  C   UNL     1       2.472   6.904  18.821  0.00  0.00    +0.000 A 
ATOM      2  C   UNL     1       2.346   7.857  17.824  0.00  0.00    +0.000 A 
ATOM      3  C   UNL     1       1.801   9.114  18.117  0.00  0.00    +0.000 A 
ATOM      4  C   UNL     1       1.320   9.461  19.403  0.00  0.00    +0.000 A 
ATOM      5  C   UNL     1       0.736  10.717  19.774  0.00  0.00    +0.000 A 
ATOM      6  C   UNL     1       0.271  10.923  21.094  0.00  0.00    +0.000 A 
ATOM      7  C   UNL     1       0.403   9.906  22.045  0.00  0.00    +0.000 A 
ATOM      8  C   UNL     1       1.017   8.705  21.710  0.00  0.00    +0.000 A 
ATOM      9  C   UNL     1       1.457   8.463  20.405  0.00  0.00    +0.000 A 
ATOM     10  C   UNL     1       2.039   7.221  20.107  0.00  0.00    +0.000 A 
ENDROOT
BRANCH   1  12
ATOM     11  C   UNL     1       4.254   5.411  19.293  0.00  0.00    +0.000 C 
ATOM     12  O   UNL     1       2.994   5.650  18.676  0.00  0.00    +0.000 OA
ENDBRANCH   1  12
BRANCH   5  13
ATOM     13  O   UNL     1       0.778  11.832  18.966  0.00  0.00    +0.000 OA
ATOM     14  C   UNL     1       2.029  12.498  18.827  0.00  0.00    +0.000 C 
ENDBRANCH   5  13
BRANCH   6  15
ATOM     15  C   UNL     1      -0.462  12.167  21.477  0.00  0.00    +0.000 C 
ATOM     16  O   UNL     1       0.166  13.154  21.848  0.00  0.00    +0.000 OA
BRANCH  15  17
ATOM     17  C   UNL     1      -1.940  12.296  21.291  0.00  0.00    +0.000 A 
ATOM     18  C   UNL     1      -2.730  12.381  22.440  0.00  0.00    +0.000 A 
ATOM     19  C   UNL     1      -4.114  12.550  22.339  0.00  0.00    +0.000 A 
ATOM     20  C   UNL     1      -4.723  12.604  21.066  0.00  0.00    +0.000 A 
ATOM     21  C   UNL     1      -3.932  12.486  19.903  0.00  0.00    +0.000 A 
ATOM     22  C   UNL     1      -2.540  12.331  20.029  0.00  0.00    +0.000 A 
BRANCH  19  23
ATOM     23  O   UNL     1      -4.936  12.659  23.435  0.00  0.00    +0.000 OA
ATOM     24  C   UNL     1      -4.347  12.378  24.701  0.00  0.00    +0.000 C 
ENDBRANCH  19  23
BRANCH  20  25
ATOM     25  O   UNL     1      -6.098  12.695  21.085  0.00  0.00    +0.000 OA
ATOM     26  C   UNL     1      -6.831  11.509  20.806  0.00  0.00    +0.000 C 
ENDBRANCH  20  25
BRANCH  21  27
ATOM     27  O   UNL     1      -4.573  12.497  18.692  0.00  0.00    +0.000 OA
ATOM     28  C   UNL     1      -4.458  11.355  17.854  0.00  0.00    +0.000 C 
ENDBRANCH  21  27
ENDBRANCH  15  17
ENDBRANCH   6  15
TORSDOF 7
ENDMDL
MODEL 6
REMARK VINA RESULT:      -6.7      1.494      3.502
REMARK  Name = 
REMARK  12 active torsions:
REMARK  status: ('A' for Active; 'I' for Inactive)
REMARK    1  A    between atoms: C_1  and  O_2
REMARK    2  A    between atoms: O_2  and  C_3
REMARK    3  A    between atoms: C_7  and  O_8
REMARK    4  A    between atoms: O_8  and  C_9
REMARK    5  A    between atoms: C_10  and  C_11
REMARK    6  A    between atoms: C_11  and  C_13
REMARK    7  A    between atoms: C_15  and  O_16
REMARK    8  A    between atoms: O_16  and  C_17
REMARK    9  A    between atoms: C_18  and  O_19
REMARK   10  A    between atoms: O_19  and  C_20
REMARK   11  A    between atoms: C_21  and  O_22
REMARK   12  A    between atoms: O_22  and  C_23
REMARK                            x       y       z     vdW  Elec       q    Type
REMARK                         _______ _______ _______ _____ _____    ______ ____
ROOT
ATOM      1  C   UNL     1       2.919   6.493  19.020  0.00  0.00    +0.000 A 
ATOM      2  C   UNL     1       3.011   7.319  17.912  0.00  0.00    +0.000 A 
ATOM      3  C   UNL     1       2.388   8.574  17.917  0.00  0.00    +0.000 A 
ATOM      4  C   UNL     1       1.613   9.042  19.006  0.00  0.00    +0.000 A 
ATOM      5  C   UNL     1       0.933  10.302  19.076  0.00  0.00    +0.000 A 
ATOM      6  C   UNL     1       0.169  10.635  20.219  0.00  0.00    +0.000 A 
ATOM      7  C   UNL     1       0.094   9.741  21.292  0.00  0.00    +0.000 A 
ATOM      8  C   UNL     1       0.793   8.540  21.255  0.00  0.00    +0.000 A 
ATOM      9  C   UNL     1       1.531   8.173  20.126  0.00  0.00    +0.000 A 
ATOM     10  C   UNL     1       2.192   6.933  20.124  0.00  0.00    +0.000 A 
ENDROOT
BRANCH   1  12
ATOM     11  C   UNL     1       4.907   5.213  19.219  0.00  0.00    +0.000 C 
ATOM     12  O   UNL     1       3.486   5.257  19.153  0.00  0.00    +0.000 OA
ENDBRANCH   1  12
BRANCH   5  13
ATOM     13  O   UNL     1       1.141  11.319  18.170  0.00  0.00    +0.000 OA
ATOM     14  C   UNL     1       2.319  12.105  18.321  0.00  0.00    +0.000 C 
ENDBRANCH   5  13
BRANCH   6  15
ATOM     15  C   UNL     1      -0.659  11.879  20.269  0.00  0.00    +0.000 C 
ATOM     16  O   UNL     1      -0.158  12.928  20.663  0.00  0.00    +0.000 OA
BRANCH  15  17
ATOM     17  C   UNL     1      -2.048  11.918  19.720  0.00  0.00    +0.000 A 
ATOM     18  C   UNL     1      -2.290  11.239  18.524  0.00  0.00    +0.000 A 
ATOM     19  C   UNL     1      -3.577  11.195  17.979  0.00  0.00    +0.000 A 
ATOM     20  C   UNL     1      -4.636  11.869  18.626  0.00  0.00    +0.000 A 
ATOM     21  C   UNL     1      -4.389  12.583  19.819  0.00  0.00    +0.000 A 
ATOM     22  C   UNL     1      -3.090  12.601  20.356  0.00  0.00    +0.000 A 
BRANCH  19  23
ATOM     23  O   UNL     1      -3.874  10.526  16.816  0.00  0.00    +0.000 OA
ATOM     24  C   UNL     1      -3.216  10.980  15.637  0.00  0.00    +0.000 C 
ENDBRANCH  19  23
BRANCH  20  25
ATOM     25  O   UNL     1      -5.843  11.824  17.962  0.00  0.00    +0.000 OA
ATOM     26  C   UNL     1      -6.801  10.878  18.420  0.00  0.00    +0.000 C 
ENDBRANCH  20  25
BRANCH  21  27
ATOM     27  O   UNL     1      -5.438  13.260  20.384  0.00  0.00    +0.000 OA
ATOM     28  C   UNL     1      -6.037  12.725  21.557  0.00  0.00    +0.000 C 
ENDBRANCH  21  27
ENDBRANCH  15  17
ENDBRANCH   6  15
TORSDOF 7
ENDMDL
MODEL 7
REMARK VINA RESULT:      -6.6      2.260      8.277
REMARK  Name = 
REMARK  12 active torsions:
REMARK  status: ('A' for Active; 'I' for Inactive)
REMARK    1  A    between atoms: C_1  and  O_2
REMARK    2  A    between atoms: O_2  and  C_3
REMARK    3  A    between atoms: C_7  and  O_8
REMARK    4  A    between atoms: O_8  and  C_9
REMARK    5  A    between atoms: C_10  and  C_11
REMARK    6  A    between atoms: C_11  and  C_13
REMARK    7  A    between atoms: C_15  and  O_16
REMARK    8  A    between atoms: O_16  and  C_17
REMARK    9  A    between atoms: C_18  and  O_19
REMARK   10  A    between atoms: O_19  and  C_20
REMARK   11  A    between atoms: C_21  and  O_22
REMARK   12  A    between atoms: O_22  and  C_23
REMARK                            x       y       z     vdW  Elec       q    Type
REMARK                         _______ _______ _______ _____ _____    ______ ____
ROOT
ATOM      1  C   UNL     1      -1.518  11.619  22.450  0.00  0.00    +0.000 A 
ATOM      2  C   UNL     1      -1.800  12.101  21.183  0.00  0.00    +0.000 A 
ATOM      3  C   UNL     1      -1.196  11.521  20.059  0.00  0.00    +0.000 A 
ATOM      4  C   UNL     1      -0.256  10.466  20.151  0.00  0.00    +0.000 A 
ATOM      5  C   UNL     1       0.413   9.836  19.052  0.00  0.00    +0.000 A 
ATOM      6  C   UNL     1       1.354   8.806  19.288  0.00  0.00    +0.000 A 
ATOM      7  C   UNL     1       1.614   8.386  20.597  0.00  0.00    +0.000 A 
ATOM      8  C   UNL     1       0.930   8.954  21.665  0.00  0.00    +0.000 A 
ATOM      9  C   UNL     1       0.019   9.995  21.463  0.00  0.00    +0.000 A 
ATOM     10  C   UNL     1      -0.622  10.560  22.579  0.00  0.00    +0.000 A 
ENDROOT
BRANCH   1  12
ATOM     11  C   UNL     1      -2.538  13.415  23.618  0.00  0.00    +0.000 C 
ATOM     12  O   UNL     1      -2.042  12.081  23.624  0.00  0.00    +0.000 OA
ENDBRANCH   1  12
BRANCH   5  13
ATOM     13  O   UNL     1       0.049  10.033  17.738  0.00  0.00    +0.000 OA
ATOM     14  C   UNL     1      -1.309   9.786  17.388  0.00  0.00    +0.000 C 
ENDBRANCH   5  13
BRANCH   6  15
ATOM     15  C   UNL     1       2.166   8.221  18.178  0.00  0.00    +0.000 C 
ATOM     16  O   UNL     1       2.461   8.915  17.209  0.00  0.00    +0.000 OA
BRANCH  15  17
ATOM     17  C   UNL     1       2.752   6.850  18.273  0.00  0.00    +0.000 A 
ATOM     18  C   UNL     1       1.872   5.785  18.486  0.00  0.00    +0.000 A 
ATOM     19  C   UNL     1       2.347   4.471  18.538  0.00  0.00    +0.000 A 
ATOM     20  C   UNL     1       3.729   4.219  18.406  0.00  0.00    +0.000 A 
ATOM     21  C   UNL     1       4.626   5.295  18.222  0.00  0.00    +0.000 A 
ATOM     22  C   UNL     1       4.124   6.606  18.159  0.00  0.00    +0.000 A 
BRANCH  19  23
ATOM     23  O   UNL     1       1.524   3.386  18.725  0.00  0.00    +0.000 OA
ATOM     24  C   UNL     1       0.778   3.357  19.939  0.00  0.00    +0.000 C 
ENDBRANCH  19  23
BRANCH  20  25
ATOM     25  O   UNL     1       4.094   2.897  18.550  0.00  0.00    +0.000 OA
ATOM     26  C   UNL     1       4.372   2.440  19.867  0.00  0.00    +0.000 C 
ENDBRANCH  20  25
BRANCH  21  27
ATOM     27  O   UNL     1       5.962   5.004  18.147  0.00  0.00    +0.000 OA
ATOM     28  C   UNL     1       6.725   5.588  17.099  0.00  0.00    +0.000 C 
ENDBRANCH  21  27
ENDBRANCH  15  17
ENDBRANCH   6  15
TORSDOF 7
ENDMDL
MODEL 8
REMARK VINA RESULT:      -6.5      1.147      2.693
REMARK  Name = 
REMARK  12 active torsions:
REMARK  status: ('A' for Active; 'I' for Inactive)
REMARK    1  A    between atoms: C_1  and  O_2
REMARK    2  A    between atoms: O_2  and  C_3
REMARK    3  A    between atoms: C_7  and  O_8
REMARK    4  A    between atoms: O_8  and  C_9
REMARK    5  A    between atoms: C_10  and  C_11
REMARK    6  A    between atoms: C_11  and  C_13
REMARK    7  A    between atoms: C_15  and  O_16
REMARK    8  A    between atoms: O_16  and  C_17
REMARK    9  A    between atoms: C_18  and  O_19
REMARK   10  A    between atoms: O_19  and  C_20
REMARK   11  A    between atoms: C_21  and  O_22
REMARK   12  A    between atoms: O_22  and  C_23
REMARK                            x       y       z     vdW  Elec       q    Type
REMARK                         _______ _______ _______ _____ _____    ______ ____
ROOT
ATOM      1  C   UNL     1       2.866   4.983  19.080  0.00  0.00    +0.000 A 
ATOM      2  C   UNL     1       2.518   5.156  20.409  0.00  0.00    +0.000 A 
ATOM      3  C   UNL     1       1.993   6.381  20.844  0.00  0.00    +0.000 A 
ATOM      4  C   UNL     1       1.833   7.496  19.986  0.00  0.00    +0.000 A 
ATOM      5  C   UNL     1       1.321   8.781  20.361  0.00  0.00    +0.000 A 
ATOM      6  C   UNL     1       1.237   9.820  19.405  0.00  0.00    +0.000 A 
ATOM      7  C   UNL     1       1.634   9.585  18.084  0.00  0.00    +0.000 A 
ATOM      8  C   UNL     1       2.080   8.326  17.698  0.00  0.00    +0.000 A 
ATOM      9  C   UNL     1       2.203   7.291  18.630  0.00  0.00    +0.000 A 
ATOM     10  C   UNL     1       2.692   6.047  18.198  0.00  0.00    +0.000 A 
ENDROOT
BRANCH   1  12
ATOM     11  C   UNL     1       4.276   3.090  19.323  0.00  0.00    +0.000 C 
ATOM     12  O   UNL     1       3.373   3.844  18.522  0.00  0.00    +0.000 OA
ENDBRANCH   1  12
BRANCH   5  13
ATOM     13  O   UNL     1       0.705   9.021  21.570  0.00  0.00    +0.000 OA
ATOM     14  C   UNL     1      -0.614   8.516  21.748  0.00  0.00    +0.000 C 
ENDBRANCH   5  13
BRANCH   6  15
ATOM     15  C   UNL     1       0.836  11.206  19.792  0.00  0.00    +0.000 C 
ATOM     16  O   UNL     1       1.699  12.050  20.015  0.00  0.00    +0.000 OA
BRANCH  15  17
ATOM     17  C   UNL     1      -0.594  11.640  19.783  0.00  0.00    +0.000 A 
ATOM     18  C   UNL     1      -1.335  11.400  18.623  0.00  0.00    +0.000 A 
ATOM     19  C   UNL     1      -2.690  11.737  18.563  0.00  0.00    +0.000 A 
ATOM     20  C   UNL     1      -3.309  12.353  19.672  0.00  0.00    +0.000 A 
ATOM     21  C   UNL     1      -2.557  12.627  20.835  0.00  0.00    +0.000 A 
ATOM     22  C   UNL     1      -1.199  12.266  20.878  0.00  0.00    +0.000 A 
BRANCH  19  23
ATOM     23  O   UNL     1      -3.470  11.506  17.455  0.00  0.00    +0.000 OA
ATOM     24  C   UNL     1      -3.403  10.198  16.893  0.00  0.00    +0.000 C 
ENDBRANCH  19  23
BRANCH  20  25
ATOM     25  O   UNL     1      -4.626  12.712  19.475  0.00  0.00    +0.000 OA
ATOM     26  C   UNL     1      -5.620  11.855  20.022  0.00  0.00    +0.000 C 
ENDBRANCH  20  25
BRANCH  21  27
ATOM     27  O   UNL     1      -3.190  13.269  21.867  0.00  0.00    +0.000 OA
ATOM     28  C   UNL     1      -3.486  12.531  23.045  0.00  0.00    +0.000 C 
ENDBRANCH  21  27
ENDBRANCH  15  17
ENDBRANCH   6  15
TORSDOF 7
ENDMDL
MODEL 9
REMARK VINA RESULT:      -6.5      1.408      1.916
REMARK  Name = 
REMARK  12 active torsions:
REMARK  status: ('A' for Active; 'I' for Inactive)
REMARK    1  A    between atoms: C_1  and  O_2
REMARK    2  A    between atoms: O_2  and  C_3
REMARK    3  A    between atoms: C_7  and  O_8
REMARK    4  A    between atoms: O_8  and  C_9
REMARK    5  A    between atoms: C_10  and  C_11
REMARK    6  A    between atoms: C_11  and  C_13
REMARK    7  A    between atoms: C_15  and  O_16
REMARK    8  A    between atoms: O_16  and  C_17
REMARK    9  A    between atoms: C_18  and  O_19
REMARK   10  A    between atoms: O_19  and  C_20
REMARK   11  A    between atoms: C_21  and  O_22
REMARK   12  A    between atoms: O_22  and  C_23
REMARK                            x       y       z     vdW  Elec       q    Type
REMARK                         _______ _______ _______ _____ _____    ______ ____
ROOT
ATOM      1  C   UNL     1       3.109   5.495  18.433  0.00  0.00    +0.000 A 
ATOM      2  C   UNL     1       2.811   5.366  19.779  0.00  0.00    +0.000 A 
ATOM      3  C   UNL     1       2.207   6.425  20.469  0.00  0.00    +0.000 A 
ATOM      4  C   UNL     1       1.912   7.670  19.861  0.00  0.00    +0.000 A 
ATOM      5  C   UNL     1       1.311   8.801  20.504  0.00  0.00    +0.000 A 
ATOM      6  C   UNL     1       1.094   9.998  19.783  0.00  0.00    +0.000 A 
ATOM      7  C   UNL     1       1.446  10.069  18.430  0.00  0.00    +0.000 A 
ATOM      8  C   UNL     1       1.979   8.960  17.784  0.00  0.00    +0.000 A 
ATOM      9  C   UNL     1       2.232   7.775  18.481  0.00  0.00    +0.000 A 
ATOM     10  C   UNL     1       2.804   6.693  17.791  0.00  0.00    +0.000 A 
ENDROOT
BRANCH   1  12
ATOM     11  C   UNL     1       4.745   4.973  16.795  0.00  0.00    +0.000 C 
ATOM     12  O   UNL     1       3.684   4.542  17.640  0.00  0.00    +0.000 OA
ENDBRANCH   1  12
BRANCH   5  13
ATOM     13  O   UNL     1       0.736   8.736  21.755  0.00  0.00    +0.000 OA
ATOM     14  C   UNL     1      -0.627   8.331  21.832  0.00  0.00    +0.000 C 
ENDBRANCH   5  13
BRANCH   6  15
ATOM     15  C   UNL     1       0.596  11.236  20.455  0.00  0.00    +0.000 C 
ATOM     16  O   UNL     1       1.388  11.976  21.033  0.00  0.00    +0.000 OA
BRANCH  15  17
ATOM     17  C   UNL     1      -0.826  11.678  20.330  0.00  0.00    +0.000 A 
ATOM     18  C   UNL     1      -1.406  12.308  21.434  0.00  0.00    +0.000 A 
ATOM     19  C   UNL     1      -2.716  12.789  21.370  0.00  0.00    +0.000 A 
ATOM     20  C   UNL     1      -3.473  12.610  20.191  0.00  0.00    +0.000 A 
ATOM     21  C   UNL     1      -2.901  11.946  19.084  0.00  0.00    +0.000 A 
ATOM     22  C   UNL     1      -1.576  11.483  19.167  0.00  0.00    +0.000 A 
BRANCH  19  23
ATOM     23  O   UNL     1      -3.329  13.433  22.419  0.00  0.00    +0.000 OA
ATOM     24  C   UNL     1      -3.553  12.660  23.594  0.00  0.00    +0.000 C 
ENDBRANCH  19  23
BRANCH  20  25
ATOM     25  O   UNL     1      -4.775  13.054  20.266  0.00  0.00    +0.000 OA
ATOM     26  C   UNL     1      -5.775  12.086  20.558  0.00  0.00    +0.000 C 
ENDBRANCH  20  25
BRANCH  21  27
ATOM     27  O   UNL     1      -3.689  11.755  17.980  0.00  0.00    +0.000 OA
ATOM     28  C   UNL     1      -3.425  10.637  17.144  0.00  0.00    +0.000 C 
ENDBRANCH  21  27
ENDBRANCH  15  17
ENDBRANCH   6  15
TORSDOF 7
ENDMDL
