MODEL 1
REMARK VINA RESULT:      -6.8      0.000      0.000
REMARK  Name = 
REMARK  10 active torsions:
REMARK  status: ('A' for Active; 'I' for Inactive)
REMARK    1  A    between atoms: N_1  and  C_2
REMARK    2  A    between atoms: C_2  and  C_3
REMARK    3  A    between atoms: C_3  and  N_4
REMARK    4  A    between atoms: C_3  and  C_5
REMARK    5  A    between atoms: C_5  and  C_6
REMARK    6  A    between atoms: C_6  and  C_7
REMARK    7  A    between atoms: C_13  and  C_15
REMARK    8  A    between atoms: C_15  and  C_16
REMARK    9  A    between atoms: C_16  and  N_17
REMARK   10  A    between atoms: C_21  and  O_22
REMARK                            x       y       z     vdW  Elec       q    Type
REMARK                         _______ _______ _______ _____ _____    ______ ____
ROOT
ATOM      1  C   UNL     1      -0.144   9.762  20.137  0.00  0.00    +0.000 C 
ATOM      2  O   UNL     1      -0.595   9.314  21.182  0.00  0.00    +0.000 OA
ATOM      3  N   UNL     1       1.086   9.331  19.702  0.00  0.00    +0.000 N 
ATOM      4  C   UNL     1       1.834   8.339  20.466  0.00  0.00    +0.000 C 
ATOM      5  C   UNL     1       1.977   7.101  19.593  0.00  0.00    +0.000 C 
ATOM      6  N   UNL     1       2.624   7.491  18.341  0.00  0.00    +0.000 N 
ATOM      7  C   UNL     1       3.813   6.939  17.928  0.00  0.00    +0.000 C 
ATOM      8  O   UNL     1       4.319   7.299  16.872  0.00  0.00    +0.000 OA
ATOM      9  C   UNL     1       1.930   8.523  17.566  0.00  0.00    +0.000 C 
ATOM     10  C   UNL     1       1.709   9.760  18.449  0.00  0.00    +0.000 C 
ENDROOT
BRANCH   1  11
ATOM     11  C   UNL     1      -0.991  10.745  19.350  0.00  0.00    +0.000 C 
BRANCH  11  12
ATOM     12  C   UNL     1      -1.861  10.079  18.252  0.00  0.00    +0.000 C 
BRANCH  12  13
ATOM     13  C   UNL     1      -2.041  10.930  16.957  0.00  0.00    +0.000 C 
BRANCH  13  14
ATOM     14  N   UNL     1      -1.559  12.299  17.165  0.00  0.00    +0.000 NA
ATOM     15  H   UNL     1      -0.910  12.349  17.985  0.00  0.00    +0.000 HD
ATOM     16  H   UNL     1      -1.066  12.645  16.309  0.00  0.00    +0.000 HD
ENDBRANCH  13  14
BRANCH  13  17
ATOM     17  C   UNL     1      -3.505  10.975  16.497  0.00  0.00    +0.000 C 
BRANCH  17  18
ATOM     18  N   UNL     1      -3.645  10.318  15.201  0.00  0.00    +0.000 NA
ATOM     19  H   UNL     1      -2.725  10.368  14.705  0.00  0.00    +0.000 HD
ATOM     20  H   UNL     1      -4.341  10.851  14.629  0.00  0.00    +0.000 HD
ENDBRANCH  17  18
ENDBRANCH  13  17
ENDBRANCH  12  13
ENDBRANCH  11  12
ENDBRANCH   1  11
BRANCH   7  21
ATOM     21  C   UNL     1       4.516   5.872  18.753  0.00  0.00    +0.000 C 
BRANCH  21  22
ATOM     22  C   UNL     1       4.314   4.438  18.240  0.00  0.00    +0.000 C 
BRANCH  22  23
ATOM     23  N   UNL     1       3.232   3.758  18.991  0.00  0.00    +0.000 N 
ATOM     24  C   UNL     1       3.314   3.697  20.359  0.00  0.00    +0.000 A 
ATOM     25  C   UNL     1       2.318   3.070  21.109  0.00  0.00    +0.000 A 
ATOM     26  C   UNL     1       1.221   2.512  20.462  0.00  0.00    +0.000 A 
ATOM     27  C   UNL     1       1.124   2.573  19.067  0.00  0.00    +0.000 A 
ATOM     28  C   UNL     1       2.141   3.204  18.337  0.00  0.00    +0.000 A 
ATOM     29  O   UNL     1       2.048   3.256  17.124  0.00  0.00    +0.000 OA
BRANCH  27  30
ATOM     30  O   UNL     1       0.058   2.042  18.433  0.00  0.00    +0.000 OA
ATOM     31  H   UNL     1      -0.837   2.393  18.548  0.00  0.00    +0.000 HD
ENDBRANCH  27  30
ENDBRANCH  22  23
ENDBRANCH  21  22
ENDBRANCH   7  21
TORSDOF 10
ENDMDL
MODEL 2
REMARK VINA RESULT:      -6.8      3.290      8.197
REMARK  Name = 
REMARK  10 active torsions:
REMARK  status: ('A' for Active; 'I' for Inactive)
REMARK    1  A    between atoms: N_1  and  C_2
REMARK    2  A    between atoms: C_2  and  C_3
REMARK    3  A    between atoms: C_3  and  N_4
REMARK    4  A    between atoms: C_3  and  C_5
REMARK    5  A    between atoms: C_5  and  C_6
REMARK    6  A    between atoms: C_6  and  C_7
REMARK    7  A    between atoms: C_13  and  C_15
REMARK    8  A    between atoms: C_15  and  C_16
REMARK    9  A    between atoms: C_16  and  N_17
REMARK   10  A    between atoms: C_21  and  O_22
REMARK                            x       y       z     vdW  Elec       q    Type
REMARK                         _______ _______ _______ _____ _____    ______ ____
ROOT
ATOM      1  C   UNL     1       5.599   5.888  16.463  0.00  0.00    +0.000 C 
ATOM      2  O   UNL     1       5.384   6.706  15.580  0.00  0.00    +0.000 OA
ATOM      3  N   UNL     1       4.971   6.036  17.676  0.00  0.00    +0.000 N 
ATOM      4  C   UNL     1       4.046   7.141  17.900  0.00  0.00    +0.000 C 
ATOM      5  C   UNL     1       2.671   6.543  18.158  0.00  0.00    +0.000 C 
ATOM      6  N   UNL     1       2.773   5.622  19.289  0.00  0.00    +0.000 N 
ATOM      7  C   UNL     1       2.034   5.786  20.436  0.00  0.00    +0.000 C 
ATOM      8  O   UNL     1       2.155   4.990  21.359  0.00  0.00    +0.000 OA
ATOM      9  C   UNL     1       3.730   4.524  19.125  0.00  0.00    +0.000 C 
ATOM     10  C   UNL     1       5.114   5.100  18.792  0.00  0.00    +0.000 C 
ENDROOT
BRANCH   1  11
ATOM     11  C   UNL     1       6.522   4.722  16.157  0.00  0.00    +0.000 C 
BRANCH  11  12
ATOM     12  C   UNL     1       5.993   3.784  15.041  0.00  0.00    +0.000 C 
BRANCH  12  13
ATOM     13  C   UNL     1       6.736   3.909  13.676  0.00  0.00    +0.000 C 
BRANCH  13  14
ATOM     14  N   UNL     1       7.295   5.255  13.511  0.00  0.00    +0.000 NA
ATOM     15  H   UNL     1       7.870   5.527  14.342  0.00  0.00    +0.000 HD
ATOM     16  H   UNL     1       7.885   5.299  12.648  0.00  0.00    +0.000 HD
ENDBRANCH  13  14
BRANCH  13  17
ATOM     17  C   UNL     1       5.815   3.596  12.488  0.00  0.00    +0.000 C 
BRANCH  17  18
ATOM     18  N   UNL     1       6.147   2.292  11.924  0.00  0.00    +0.000 NA
ATOM     19  H   UNL     1       6.991   2.401  11.315  0.00  0.00    +0.000 HD
ATOM     20  H   UNL     1       5.356   1.980  11.314  0.00  0.00    +0.000 HD
ENDBRANCH  17  18
ENDBRANCH  13  17
ENDBRANCH  12  13
ENDBRANCH  11  12
ENDBRANCH   1  11
BRANCH   7  21
ATOM     21  C   UNL     1       1.052   6.937  20.583  0.00  0.00    +0.000 C 
BRANCH  21  22
ATOM     22  C   UNL     1       1.593   8.136  21.377  0.00  0.00    +0.000 C 
BRANCH  22  23
ATOM     23  N   UNL     1       0.692   9.305  21.240  0.00  0.00    +0.000 N 
ATOM     24  C   UNL     1       0.302   9.697  19.985  0.00  0.00    +0.000 A 
ATOM     25  C   UNL     1      -0.547  10.790  19.807  0.00  0.00    +0.000 A 
ATOM     26  C   UNL     1      -1.015  11.483  20.918  0.00  0.00    +0.000 A 
ATOM     27  C   UNL     1      -0.628  11.090  22.205  0.00  0.00    +0.000 A 
ATOM     28  C   UNL     1       0.230   9.991  22.355  0.00  0.00    +0.000 A 
ATOM     29  O   UNL     1       0.560   9.652  23.477  0.00  0.00    +0.000 OA
BRANCH  27  30
ATOM     30  O   UNL     1      -1.085  11.751  23.287  0.00  0.00    +0.000 OA
ATOM     31  H   UNL     1      -1.978  11.613  23.636  0.00  0.00    +0.000 HD
ENDBRANCH  27  30
ENDBRANCH  22  23
ENDBRANCH  21  22
ENDBRANCH   7  21
TORSDOF 10
ENDMDL
MODEL 3
REMARK VINA RESULT:      -6.7      3.395      4.126
REMARK  Name = 
REMARK  10 active torsions:
REMARK  status: ('A' for Active; 'I' for Inactive)
REMARK    1  A    between atoms: N_1  and  C_2
REMARK    2  A    between atoms: C_2  and  C_3
REMARK    3  A    between atoms: C_3  and  N_4
REMARK    4  A    between atoms: C_3  and  C_5
REMARK    5  A    between atoms: C_5  and  C_6
REMARK    6  A    between atoms: C_6  and  C_7
REMARK    7  A    between atoms: C_13  and  C_15
REMARK    8  A    between atoms: C_15  and  C_16
REMARK    9  A    between atoms: C_16  and  N_17
REMARK   10  A    between atoms: C_21  and  O_22
REMARK                            x       y       z     vdW  Elec       q    Type
REMARK                         _______ _______ _______ _____ _____    ______ ____
ROOT
ATOM      1  C   UNL     1      -0.669  11.263  22.488  0.00  0.00    +0.000 C 
ATOM      2  O   UNL     1      -0.818  10.657  23.539  0.00  0.00    +0.000 OA
ATOM      3  N   UNL     1       0.272  10.821  21.590  0.00  0.00    +0.000 N 
ATOM      4  C   UNL     1       1.067   9.632  21.878  0.00  0.00    +0.000 C 
ATOM      5  C   UNL     1       0.728   8.587  20.825  0.00  0.00    +0.000 C 
ATOM      6  N   UNL     1       0.984   9.162  19.506  0.00  0.00    +0.000 N 
ATOM      7  C   UNL     1       1.876   8.600  18.623  0.00  0.00    +0.000 C 
ATOM      8  O   UNL     1       2.059   9.118  17.528  0.00  0.00    +0.000 OA
ATOM      9  C   UNL     1       0.242  10.386  19.194  0.00  0.00    +0.000 C 
ATOM     10  C   UNL     1       0.512  11.436  20.284  0.00  0.00    +0.000 C 
ENDROOT
BRANCH   1  11
ATOM     11  C   UNL     1      -1.566  12.456  22.210  0.00  0.00    +0.000 C 
BRANCH  11  12
ATOM     12  C   UNL     1      -1.736  13.404  23.426  0.00  0.00    +0.000 C 
BRANCH  12  13
ATOM     13  C   UNL     1      -3.214  13.773  23.763  0.00  0.00    +0.000 C 
BRANCH  13  14
ATOM     14  N   UNL     1      -3.320  14.300  25.127  0.00  0.00    +0.000 NA
ATOM     15  H   UNL     1      -2.387  14.619  25.480  0.00  0.00    +0.000 HD
ATOM     16  H   UNL     1      -3.996  15.098  25.157  0.00  0.00    +0.000 HD
ENDBRANCH  13  14
BRANCH  13  17
ATOM     17  C   UNL     1      -4.157  12.570  23.612  0.00  0.00    +0.000 C 
BRANCH  17  18
ATOM     18  N   UNL     1      -4.811  12.282  24.885  0.00  0.00    +0.000 NA
ATOM     19  H   UNL     1      -5.246  11.333  24.824  0.00  0.00    +0.000 HD
ATOM     20  H   UNL     1      -5.582  12.975  25.028  0.00  0.00    +0.000 HD
ENDBRANCH  17  18
ENDBRANCH  13  17
ENDBRANCH  12  13
ENDBRANCH  11  12
ENDBRANCH   1  11
BRANCH   7  21
ATOM     21  C   UNL     1       2.637   7.331  18.971  0.00  0.00    +0.000 C 
BRANCH  21  22
ATOM     22  C   UNL     1       2.942   6.423  17.769  0.00  0.00    +0.000 C 
BRANCH  22  23
ATOM     23  N   UNL     1       3.217   5.037  18.215  0.00  0.00    +0.000 N 
ATOM     24  C   UNL     1       4.393   4.773  18.870  0.00  0.00    +0.000 A 
ATOM     25  C   UNL     1       4.695   3.485  19.310  0.00  0.00    +0.000 A 
ATOM     26  C   UNL     1       3.784   2.455  19.095  0.00  0.00    +0.000 A 
ATOM     27  C   UNL     1       2.579   2.712  18.432  0.00  0.00    +0.000 A 
ATOM     28  C   UNL     1       2.303   4.016  17.995  0.00  0.00    +0.000 A 
ATOM     29  O   UNL     1       1.251   4.234  17.422  0.00  0.00    +0.000 OA
BRANCH  27  30
ATOM     30  O   UNL     1       1.687   1.722  18.228  0.00  0.00    +0.000 OA
ATOM     31  H   UNL     1       1.770   1.098  17.492  0.00  0.00    +0.000 HD
ENDBRANCH  27  30
ENDBRANCH  22  23
ENDBRANCH  21  22
ENDBRANCH   7  21
TORSDOF 10
ENDMDL
MODEL 4
REMARK VINA RESULT:      -6.6      1.868      2.243
REMARK  Name = 
REMARK  10 active torsions:
REMARK  status: ('A' for Active; 'I' for Inactive)
REMARK    1  A    between atoms: N_1  and  C_2
REMARK    2  A    between atoms: C_2  and  C_3
REMARK    3  A    between atoms: C_3  and  N_4
REMARK    4  A    between atoms: C_3  and  C_5
REMARK    5  A    between atoms: C_5  and  C_6
REMARK    6  A    between atoms: C_6  and  C_7
REMARK    7  A    between atoms: C_13  and  C_15
REMARK    8  A    between atoms: C_15  and  C_16
REMARK    9  A    between atoms: C_16  and  N_17
REMARK   10  A    between atoms: C_21  and  O_22
REMARK                            x       y       z     vdW  Elec       q    Type
REMARK                         _______ _______ _______ _____ _____    ______ ____
ROOT
ATOM      1  C   UNL     1      -0.639  11.542  21.156  0.00  0.00    +0.000 C 
ATOM      2  O   UNL     1      -1.162  11.246  22.221  0.00  0.00    +0.000 OA
ATOM      3  N   UNL     1       0.438  10.811  20.716  0.00  0.00    +0.000 N 
ATOM      4  C   UNL     1       0.937   9.686  21.498  0.00  0.00    +0.000 C 
ATOM      5  C   UNL     1       0.752   8.428  20.663  0.00  0.00    +0.000 C 
ATOM      6  N   UNL     1       1.446   8.614  19.389  0.00  0.00    +0.000 N 
ATOM      7  C   UNL     1       2.454   7.776  18.975  0.00  0.00    +0.000 C 
ATOM      8  O   UNL     1       3.008   7.973  17.901  0.00  0.00    +0.000 OA
ATOM      9  C   UNL     1       1.009   9.764  18.593  0.00  0.00    +0.000 C 
ATOM     10  C   UNL     1       1.118  11.041  19.441  0.00  0.00    +0.000 C 
ENDROOT
BRANCH   1  11
ATOM     11  C   UNL     1      -1.237  12.682  20.352  0.00  0.00    +0.000 C 
BRANCH  11  12
ATOM     12  C   UNL     1      -2.508  12.285  19.557  0.00  0.00    +0.000 C 
BRANCH  12  13
ATOM     13  C   UNL     1      -2.232  11.675  18.149  0.00  0.00    +0.000 C 
BRANCH  13  14
ATOM     14  N   UNL     1      -1.299  12.516  17.391  0.00  0.00    +0.000 NA
ATOM     15  H   UNL     1      -1.443  13.529  17.613  0.00  0.00    +0.000 HD
ATOM     16  H   UNL     1      -0.311  12.248  17.608  0.00  0.00    +0.000 HD
ENDBRANCH  13  14
BRANCH  13  17
ATOM     17  C   UNL     1      -3.523  11.496  17.336  0.00  0.00    +0.000 C 
BRANCH  17  18
ATOM     18  N   UNL     1      -3.203  11.223  15.938  0.00  0.00    +0.000 NA
ATOM     19  H   UNL     1      -2.478  11.909  15.626  0.00  0.00    +0.000 HD
ATOM     20  H   UNL     1      -4.061  11.386  15.361  0.00  0.00    +0.000 HD
ENDBRANCH  17  18
ENDBRANCH  13  17
ENDBRANCH  12  13
ENDBRANCH  11  12
ENDBRANCH   1  11
BRANCH   7  21
ATOM     21  C   UNL     1       2.892   6.592  19.822  0.00  0.00    +0.000 C 
BRANCH  21  22
ATOM     22  C   UNL     1       3.949   5.694  19.159  0.00  0.00    +0.000 C 
BRANCH  22  23
ATOM     23  N   UNL     1       3.366   4.384  18.786  0.00  0.00    +0.000 N 
ATOM     24  C   UNL     1       2.077   4.341  18.318  0.00  0.00    +0.000 A 
ATOM     25  C   UNL     1       1.487   3.131  17.952  0.00  0.00    +0.000 A 
ATOM     26  C   UNL     1       2.220   1.953  18.050  0.00  0.00    +0.000 A 
ATOM     27  C   UNL     1       3.538   1.984  18.522  0.00  0.00    +0.000 A 
ATOM     28  C   UNL     1       4.104   3.213  18.888  0.00  0.00    +0.000 A 
ATOM     29  O   UNL     1       5.253   3.233  19.294  0.00  0.00    +0.000 OA
BRANCH  27  30
ATOM     30  O   UNL     1       4.257   0.847  18.611  0.00  0.00    +0.000 OA
ATOM     31  H   UNL     1       3.924  -0.000  18.283  0.00  0.00    +0.000 HD
ENDBRANCH  27  30
ENDBRANCH  22  23
ENDBRANCH  21  22
ENDBRANCH   7  21
TORSDOF 10
ENDMDL
MODEL 5
REMARK VINA RESULT:      -6.6      3.023      3.637
REMARK  Name = 
REMARK  10 active torsions:
REMARK  status: ('A' for Active; 'I' for Inactive)
REMARK    1  A    between atoms: N_1  and  C_2
REMARK    2  A    between atoms: C_2  and  C_3
REMARK    3  A    between atoms: C_3  and  N_4
REMARK    4  A    between atoms: C_3  and  C_5
REMARK    5  A    between atoms: C_5  and  C_6
REMARK    6  A    between atoms: C_6  and  C_7
REMARK    7  A    between atoms: C_13  and  C_15
REMARK    8  A    between atoms: C_15  and  C_16
REMARK    9  A    between atoms: C_16  and  N_17
REMARK   10  A    between atoms: C_21  and  O_22
REMARK                            x       y       z     vdW  Elec       q    Type
REMARK                         _______ _______ _______ _____ _____    ______ ____
ROOT
ATOM      1  C   UNL     1      -0.540  11.681  22.108  0.00  0.00    +0.000 C 
ATOM      2  O   UNL     1      -0.660  11.205  23.228  0.00  0.00    +0.000 OA
ATOM      3  N   UNL     1       0.386  11.140  21.249  0.00  0.00    +0.000 N 
ATOM      4  C   UNL     1       1.198  10.001  21.659  0.00  0.00    +0.000 C 
ATOM      5  C   UNL     1       0.847   8.834  20.748  0.00  0.00    +0.000 C 
ATOM      6  N   UNL     1       1.068   9.247  19.363  0.00  0.00    +0.000 N 
ATOM      7  C   UNL     1       1.945   8.589  18.534  0.00  0.00    +0.000 C 
ATOM      8  O   UNL     1       2.099   8.973  17.382  0.00  0.00    +0.000 OA
ATOM      9  C   UNL     1       0.307  10.420  18.924  0.00  0.00    +0.000 C 
ATOM     10  C   UNL     1       0.591  11.595  19.873  0.00  0.00    +0.000 C 
ENDROOT
BRANCH   1  11
ATOM     11  C   UNL     1      -1.454  12.826  21.710  0.00  0.00    +0.000 C 
BRANCH  11  12
ATOM     12  C   UNL     1      -2.434  13.259  22.830  0.00  0.00    +0.000 C 
BRANCH  12  13
ATOM     13  C   UNL     1      -3.941  13.013  22.510  0.00  0.00    +0.000 C 
BRANCH  13  14
ATOM     14  N   UNL     1      -4.130  12.746  21.080  0.00  0.00    +0.000 NA
ATOM     15  H   UNL     1      -4.949  12.113  20.922  0.00  0.00    +0.000 HD
ATOM     16  H   UNL     1      -4.275  13.642  20.559  0.00  0.00    +0.000 HD
ENDBRANCH  13  14
BRANCH  13  17
ATOM     17  C   UNL     1      -4.819  14.204  22.920  0.00  0.00    +0.000 C 
BRANCH  17  18
ATOM     18  N   UNL     1      -5.177  14.101  24.331  0.00  0.00    +0.000 NA
ATOM     19  H   UNL     1      -5.033  13.111  24.637  0.00  0.00    +0.000 HD
ATOM     20  H   UNL     1      -6.197  14.318  24.434  0.00  0.00    +0.000 HD
ENDBRANCH  17  18
ENDBRANCH  13  17
ENDBRANCH  12  13
ENDBRANCH  11  12
ENDBRANCH   1  11
BRANCH   7  21
ATOM     21  C   UNL     1       2.726   7.377  19.015  0.00  0.00    +0.000 C 
BRANCH  21  22
ATOM     22  C   UNL     1       2.540   6.119  18.153  0.00  0.00    +0.000 C 
BRANCH  22  23
ATOM     23  N   UNL     1       2.092   4.975  18.981  0.00  0.00    +0.000 N 
ATOM     24  C   UNL     1       2.324   5.005  20.333  0.00  0.00    +0.000 A 
ATOM     25  C   UNL     1       1.918   3.953  21.153  0.00  0.00    +0.000 A 
ATOM     26  C   UNL     1       1.256   2.864  20.596  0.00  0.00    +0.000 A 
ATOM     27  C   UNL     1       1.009   2.823  19.219  0.00  0.00    +0.000 A 
ATOM     28  C   UNL     1       1.433   3.892  18.416  0.00  0.00    +0.000 A 
ATOM     29  O   UNL     1       1.211   3.852  17.219  0.00  0.00    +0.000 OA
BRANCH  27  30
ATOM     30  O   UNL     1       0.360   1.776  18.672  0.00  0.00    +0.000 OA
ATOM     31  H   UNL     1      -0.012   1.062  19.211  0.00  0.00    +0.000 HD
ENDBRANCH  27  30
ENDBRANCH  22  23
ENDBRANCH  21  22
ENDBRANCH   7  21
TORSDOF 10
ENDMDL
MODEL 6
REMARK VINA RESULT:      -6.6      2.944      3.776
REMARK  Name = 
REMARK  10 active torsions:
REMARK  status: ('A' for Active; 'I' for Inactive)
REMARK    1  A    between atoms: N_1  and  C_2
REMARK    2  A    between atoms: C_2  and  C_3
REMARK    3  A    between atoms: C_3  and  N_4
REMARK    4  A    between atoms: C_3  and  C_5
REMARK    5  A    between atoms: C_5  and  C_6
REMARK    6  A    between atoms: C_6  and  C_7
REMARK    7  A    between atoms: C_13  and  C_15
REMARK    8  A    between atoms: C_15  and  C_16
REMARK    9  A    between atoms: C_16  and  N_17
REMARK   10  A    between atoms: C_21  and  O_22
REMARK                            x       y       z     vdW  Elec       q    Type
REMARK                         _______ _______ _______ _____ _____    ______ ____
ROOT
ATOM      1  C   UNL     1      -0.494  10.767  22.468  0.00  0.00    +0.000 C 
ATOM      2  O   UNL     1      -0.529  10.164  23.531  0.00  0.00    +0.000 OA
ATOM      3  N   UNL     1       0.460  10.427  21.539  0.00  0.00    +0.000 N 
ATOM      4  C   UNL     1       1.403   9.348  21.809  0.00  0.00    +0.000 C 
ATOM      5  C   UNL     1       1.155   8.252  20.784  0.00  0.00    +0.000 C 
ATOM      6  N   UNL     1       1.289   8.832  19.448  0.00  0.00    +0.000 N 
ATOM      7  C   UNL     1       2.208   8.367  18.537  0.00  0.00    +0.000 C 
ATOM      8  O   UNL     1       2.286   8.886  17.430  0.00  0.00    +0.000 OA
ATOM      9  C   UNL     1       0.392   9.952  19.152  0.00  0.00    +0.000 C 
ATOM     10  C   UNL     1       0.573  11.045  20.217  0.00  0.00    +0.000 C 
ENDROOT
BRANCH   1  11
ATOM     11  C   UNL     1      -1.539  11.838  22.212  0.00  0.00    +0.000 C 
BRANCH  11  12
ATOM     12  C   UNL     1      -1.867  12.699  23.459  0.00  0.00    +0.000 C 
BRANCH  12  13
ATOM     13  C   UNL     1      -2.754  13.949  23.173  0.00  0.00    +0.000 C 
BRANCH  13  14
ATOM     14  N   UNL     1      -3.106  14.023  21.751  0.00  0.00    +0.000 NA
ATOM     15  H   UNL     1      -2.485  14.698  21.246  0.00  0.00    +0.000 HD
ATOM     16  H   UNL     1      -3.028  13.078  21.309  0.00  0.00    +0.000 HD
ENDBRANCH  13  14
BRANCH  13  17
ATOM     17  C   UNL     1      -2.061  15.255  23.589  0.00  0.00    +0.000 C 
BRANCH  17  18
ATOM     18  N   UNL     1      -0.813  14.961  24.286  0.00  0.00    +0.000 NA
ATOM     19  H   UNL     1      -0.114  14.627  23.584  0.00  0.00    +0.000 HD
ATOM     20  H   UNL     1      -0.982  14.178  24.960  0.00  0.00    +0.000 HD
ENDBRANCH  17  18
ENDBRANCH  13  17
ENDBRANCH  12  13
ENDBRANCH  11  12
ENDBRANCH   1  11
BRANCH   7  21
ATOM     21  C   UNL     1       3.130   7.206  18.871  0.00  0.00    +0.000 C 
BRANCH  21  22
ATOM     22  C   UNL     1       2.882   5.939  18.038  0.00  0.00    +0.000 C 
BRANCH  22  23
ATOM     23  N   UNL     1       2.259   4.879  18.866  0.00  0.00    +0.000 N 
ATOM     24  C   UNL     1       2.383   4.948  20.230  0.00  0.00    +0.000 A 
ATOM     25  C   UNL     1       1.812   3.975  21.051  0.00  0.00    +0.000 A 
ATOM     26  C   UNL     1       1.096   2.928  20.479  0.00  0.00    +0.000 A 
ATOM     27  C   UNL     1       0.958   2.850  19.088  0.00  0.00    +0.000 A 
ATOM     28  C   UNL     1       1.547   3.839  18.287  0.00  0.00    +0.000 A 
ATOM     29  O   UNL     1       1.420   3.767  17.077  0.00  0.00    +0.000 OA
BRANCH  27  30
ATOM     30  O   UNL     1       0.258   1.844  18.527  0.00  0.00    +0.000 OA
ATOM     31  H   UNL     1      -0.710   1.850  18.488  0.00  0.00    +0.000 HD
ENDBRANCH  27  30
ENDBRANCH  22  23
ENDBRANCH  21  22
ENDBRANCH   7  21
TORSDOF 10
ENDMDL
MODEL 7
REMARK VINA RESULT:      -6.6      2.275      8.298
REMARK  Name = 
REMARK  10 active torsions:
REMARK  status: ('A' for Active; 'I' for Inactive)
REMARK    1  A    between atoms: N_1  and  C_2
REMARK    2  A    between atoms: C_2  and  C_3
REMARK    3  A    between atoms: C_3  and  N_4
REMARK    4  A    between atoms: C_3  and  C_5
REMARK    5  A    between atoms: C_5  and  C_6
REMARK    6  A    between atoms: C_6  and  C_7
REMARK    7  A    between atoms: C_13  and  C_15
REMARK    8  A    between atoms: C_15  and  C_16
REMARK    9  A    between atoms: C_16  and  N_17
REMARK   10  A    between atoms: C_21  and  O_22
REMARK                            x       y       z     vdW  Elec       q    Type
REMARK                         _______ _______ _______ _____ _____    ______ ____
ROOT
ATOM      1  C   UNL     1       4.608   5.274  17.112  0.00  0.00    +0.000 C 
ATOM      2  O   UNL     1       4.859   5.582  15.955  0.00  0.00    +0.000 OA
ATOM      3  N   UNL     1       4.142   6.238  17.973  0.00  0.00    +0.000 N 
ATOM      4  C   UNL     1       3.930   7.605  17.508  0.00  0.00    +0.000 C 
ATOM      5  C   UNL     1       2.444   7.906  17.630  0.00  0.00    +0.000 C 
ATOM      6  N   UNL     1       2.041   7.686  19.018  0.00  0.00    +0.000 N 
ATOM      7  C   UNL     1       1.489   8.684  19.787  0.00  0.00    +0.000 C 
ATOM      8  O   UNL     1       1.169   8.453  20.947  0.00  0.00    +0.000 OA
ATOM      9  C   UNL     1       2.282   6.339  19.541  0.00  0.00    +0.000 C 
ATOM     10  C   UNL     1       3.766   5.982  19.364  0.00  0.00    +0.000 C 
ENDROOT
BRANCH   1  11
ATOM     11  C   UNL     1       4.786   3.825  17.526  0.00  0.00    +0.000 C 
BRANCH  11  12
ATOM     12  C   UNL     1       3.482   2.990  17.451  0.00  0.00    +0.000 C 
BRANCH  12  13
ATOM     13  C   UNL     1       3.342   1.899  18.557  0.00  0.00    +0.000 C 
BRANCH  13  14
ATOM     14  N   UNL     1       1.936   1.529  18.746  0.00  0.00    +0.000 NA
ATOM     15  H   UNL     1       1.302   2.329  18.512  0.00  0.00    +0.000 HD
ATOM     16  H   UNL     1       1.693   0.705  18.149  0.00  0.00    +0.000 HD
ENDBRANCH  13  14
BRANCH  13  17
ATOM     17  C   UNL     1       3.927   2.361  19.899  0.00  0.00    +0.000 C 
BRANCH  17  18
ATOM     18  N   UNL     1       5.154   1.626  20.192  0.00  0.00    +0.000 NA
ATOM     19  H   UNL     1       5.831   2.283  20.644  0.00  0.00    +0.000 HD
ATOM     20  H   UNL     1       5.577   1.308  19.289  0.00  0.00    +0.000 HD
ENDBRANCH  17  18
ENDBRANCH  13  17
ENDBRANCH  12  13
ENDBRANCH  11  12
ENDBRANCH   1  11
BRANCH   7  21
ATOM     21  C   UNL     1       1.253  10.075  19.222  0.00  0.00    +0.000 C 
BRANCH  21  22
ATOM     22  C   UNL     1       0.026  10.796  19.802  0.00  0.00    +0.000 C 
BRANCH  22  23
ATOM     23  N   UNL     1      -1.093  10.792  18.831  0.00  0.00    +0.000 N 
ATOM     24  C   UNL     1      -1.011   9.979  17.729  0.00  0.00    +0.000 A 
ATOM     25  C   UNL     1      -2.041   9.939  16.790  0.00  0.00    +0.000 A 
ATOM     26  C   UNL     1      -3.173  10.725  16.978  0.00  0.00    +0.000 A 
ATOM     27  C   UNL     1      -3.271  11.555  18.101  0.00  0.00    +0.000 A 
ATOM     28  C   UNL     1      -2.219  11.579  19.028  0.00  0.00    +0.000 A 
ATOM     29  O   UNL     1      -2.312  12.301  20.004  0.00  0.00    +0.000 OA
BRANCH  27  30
ATOM     30  O   UNL     1      -4.370  12.312  18.296  0.00  0.00    +0.000 OA
ATOM     31  H   UNL     1      -5.144  12.255  17.718  0.00  0.00    +0.000 HD
ENDBRANCH  27  30
ENDBRANCH  22  23
ENDBRANCH  21  22
ENDBRANCH   7  21
TORSDOF 10
ENDMDL
MODEL 8
REMARK VINA RESULT:      -6.5      3.166      3.874
REMARK  Name = 
REMARK  10 active torsions:
REMARK  status: ('A' for Active; 'I' for Inactive)
REMARK    1  A    between atoms: N_1  and  C_2
REMARK    2  A    between atoms: C_2  and  C_3
REMARK    3  A    between atoms: C_3  and  N_4
REMARK    4  A    between atoms: C_3  and  C_5
REMARK    5  A    between atoms: C_5  and  C_6
REMARK    6  A    between atoms: C_6  and  C_7
REMARK    7  A    between atoms: C_13  and  C_15
REMARK    8  A    between atoms: C_15  and  C_16
REMARK    9  A    between atoms: C_16  and  N_17
REMARK   10  A    between atoms: C_21  and  O_22
REMARK                            x       y       z     vdW  Elec       q    Type
REMARK                         _______ _______ _______ _____ _____    ______ ____
ROOT
ATOM      1  C   UNL     1      -0.426  10.852  22.495  0.00  0.00    +0.000 C 
ATOM      2  O   UNL     1      -0.528  10.226  23.540  0.00  0.00    +0.000 OA
ATOM      3  N   UNL     1       0.506  10.454  21.567  0.00  0.00    +0.000 N 
ATOM      4  C   UNL     1       1.347   9.288  21.817  0.00  0.00    +0.000 C 
ATOM      5  C   UNL     1       1.016   8.248  20.758  0.00  0.00    +0.000 C 
ATOM      6  N   UNL     1       1.219   8.850  19.441  0.00  0.00    +0.000 N 
ATOM      7  C   UNL     1       2.106   8.330  18.527  0.00  0.00    +0.000 C 
ATOM      8  O   UNL     1       2.243   8.870  17.437  0.00  0.00    +0.000 OA
ATOM      9  C   UNL     1       0.429  10.053  19.167  0.00  0.00    +0.000 C 
ATOM     10  C   UNL     1       0.692  11.095  20.265  0.00  0.00    +0.000 C 
ENDROOT
BRANCH   1  11
ATOM     11  C   UNL     1      -1.368  12.018  22.258  0.00  0.00    +0.000 C 
BRANCH  11  12
ATOM     12  C   UNL     1      -2.605  12.020  23.194  0.00  0.00    +0.000 C 
BRANCH  12  13
ATOM     13  C   UNL     1      -3.880  12.682  22.587  0.00  0.00    +0.000 C 
BRANCH  13  14
ATOM     14  N   UNL     1      -3.515  13.704  21.600  0.00  0.00    +0.000 NA
ATOM     15  H   UNL     1      -3.166  14.572  22.071  0.00  0.00    +0.000 HD
ATOM     16  H   UNL     1      -2.780  13.337  20.953  0.00  0.00    +0.000 HD
ENDBRANCH  13  14
BRANCH  13  17
ATOM     17  C   UNL     1      -4.767  13.319  23.667  0.00  0.00    +0.000 C 
BRANCH  17  18
ATOM     18  N   UNL     1      -4.030  13.431  24.922  0.00  0.00    +0.000 NA
ATOM     19  H   UNL     1      -3.031  13.644  24.699  0.00  0.00    +0.000 HD
ATOM     20  H   UNL     1      -4.055  12.504  25.408  0.00  0.00    +0.000 HD
ENDBRANCH  17  18
ENDBRANCH  13  17
ENDBRANCH  12  13
ENDBRANCH  11  12
ENDBRANCH   1  11
BRANCH   7  21
ATOM     21  C   UNL     1       2.916   7.083  18.837  0.00  0.00    +0.000 C 
BRANCH  21  22
ATOM     22  C   UNL     1       2.291   5.775  18.326  0.00  0.00    +0.000 C 
BRANCH  22  23
ATOM     23  N   UNL     1       2.761   4.620  19.126  0.00  0.00    +0.000 N 
ATOM     24  C   UNL     1       3.932   4.000  18.769  0.00  0.00    +0.000 A 
ATOM     25  C   UNL     1       4.416   2.911  19.493  0.00  0.00    +0.000 A 
ATOM     26  C   UNL     1       3.709   2.455  20.601  0.00  0.00    +0.000 A 
ATOM     27  C   UNL     1       2.516   3.081  20.978  0.00  0.00    +0.000 A 
ATOM     28  C   UNL     1       2.049   4.171  20.229  0.00  0.00    +0.000 A 
ATOM     29  O   UNL     1       1.012   4.714  20.565  0.00  0.00    +0.000 OA
BRANCH  27  30
ATOM     30  O   UNL     1       1.830   2.651  22.056  0.00  0.00    +0.000 OA
ATOM     31  H   UNL     1       1.944   3.049  22.932  0.00  0.00    +0.000 HD
ENDBRANCH  27  30
ENDBRANCH  22  23
ENDBRANCH  21  22
ENDBRANCH   7  21
TORSDOF 10
ENDMDL
MODEL 9
REMARK VINA RESULT:      -6.4      3.305      4.120
REMARK  Name = 
REMARK  10 active torsions:
REMARK  status: ('A' for Active; 'I' for Inactive)
REMARK    1  A    between atoms: N_1  and  C_2
REMARK    2  A    between atoms: C_2  and  C_3
REMARK    3  A    between atoms: C_3  and  N_4
REMARK    4  A    between atoms: C_3  and  C_5
REMARK    5  A    between atoms: C_5  and  C_6
REMARK    6  A    between atoms: C_6  and  C_7
REMARK    7  A    between atoms: C_13  and  C_15
REMARK    8  A    between atoms: C_15  and  C_16
REMARK    9  A    between atoms: C_16  and  N_17
REMARK   10  A    between atoms: C_21  and  O_22
REMARK                            x       y       z     vdW  Elec       q    Type
REMARK                         _______ _______ _______ _____ _____    ______ ____
ROOT
ATOM      1  C   UNL     1      -1.024  11.587  22.401  0.00  0.00    +0.000 C 
ATOM      2  O   UNL     1      -1.250  10.986  23.441  0.00  0.00    +0.000 OA
ATOM      3  N   UNL     1      -0.035  11.126  21.565  0.00  0.00    +0.000 N 
ATOM      4  C   UNL     1       0.719   9.924  21.905  0.00  0.00    +0.000 C 
ATOM      5  C   UNL     1       0.429   8.883  20.834  0.00  0.00    +0.000 C 
ATOM      6  N   UNL     1       0.778   9.450  19.533  0.00  0.00    +0.000 N 
ATOM      7  C   UNL     1       1.714   8.870  18.709  0.00  0.00    +0.000 C 
ATOM      8  O   UNL     1       1.975   9.382  17.628  0.00  0.00    +0.000 OA
ATOM      9  C   UNL     1       0.079  10.686  19.173  0.00  0.00    +0.000 C 
ATOM     10  C   UNL     1       0.297  11.733  20.276  0.00  0.00    +0.000 C 
ENDROOT
BRANCH   1  11
ATOM     11  C   UNL     1      -1.880  12.795  22.066  0.00  0.00    +0.000 C 
BRANCH  11  12
ATOM     12  C   UNL     1      -2.370  13.577  23.312  0.00  0.00    +0.000 C 
BRANCH  12  13
ATOM     13  C   UNL     1      -3.883  13.397  23.641  0.00  0.00    +0.000 C 
BRANCH  13  14
ATOM     14  N   UNL     1      -4.139  12.066  24.201  0.00  0.00    +0.000 NA
ATOM     15  H   UNL     1      -3.362  11.405  23.966  0.00  0.00    +0.000 HD
ATOM     16  H   UNL     1      -4.246  12.125  25.240  0.00  0.00    +0.000 HD
ENDBRANCH  13  14
BRANCH  13  17
ATOM     17  C   UNL     1      -4.770  13.602  22.403  0.00  0.00    +0.000 C 
BRANCH  17  18
ATOM     18  N   UNL     1      -5.643  12.447  22.214  0.00  0.00    +0.000 NA
ATOM     19  H   UNL     1      -5.046  11.591  22.147  0.00  0.00    +0.000 HD
ATOM     20  H   UNL     1      -6.145  12.555  21.301  0.00  0.00    +0.000 HD
ENDBRANCH  17  18
ENDBRANCH  13  17
ENDBRANCH  12  13
ENDBRANCH  11  12
ENDBRANCH   1  11
BRANCH   7  21
ATOM     21  C   UNL     1       2.429   7.589  19.107  0.00  0.00    +0.000 C 
BRANCH  21  22
ATOM     22  C   UNL     1       2.679   6.614  17.945  0.00  0.00    +0.000 C 
BRANCH  22  23
ATOM     23  N   UNL     1       2.768   5.220  18.440  0.00  0.00    +0.000 N 
ATOM     24  C   UNL     1       1.627   4.460  18.489  0.00  0.00    +0.000 A 
ATOM     25  C   UNL     1       1.663   3.142  18.944  0.00  0.00    +0.000 A 
ATOM     26  C   UNL     1       2.874   2.586  19.341  0.00  0.00    +0.000 A 
ATOM     27  C   UNL     1       4.046   3.349  19.291  0.00  0.00    +0.000 A 
ATOM     28  C   UNL     1       3.981   4.673  18.834  0.00  0.00    +0.000 A 
ATOM     29  O   UNL     1       5.005   5.331  18.789  0.00  0.00    +0.000 OA
BRANCH  27  30
ATOM     30  O   UNL     1       5.226   2.814  19.665  0.00  0.00    +0.000 OA
ATOM     31  H   UNL     1       5.282   1.967  20.131  0.00  0.00    +0.000 HD
ENDBRANCH  27  30
ENDBRANCH  22  23
ENDBRANCH  21  22
ENDBRANCH   7  21
TORSDOF 10
ENDMDL
