MODEL 1
REMARK VINA RESULT:      -8.5      0.000      0.000
REMARK  Name = 
REMARK  4 active torsions:
REMARK  status: ('A' for Active; 'I' for Inactive)
REMARK    1  A    between atoms: C_1  and  N_2
REMARK    2  A    between atoms: C_3  and  C_4
REMARK    3  A    between atoms: C_14  and  C_15
REMARK    4  A    between atoms: N_23  and  C_24
REMARK                            x       y       z     vdW  Elec       q    Type
REMARK                         _______ _______ _______ _____ _____    ______ ____
ROOT
ATOM      1  C   UNL     1       4.431   2.266  19.709  0.00  0.00    +0.000 C 
ATOM      2  N   UNL     1       3.524   3.392  19.684  0.00  0.00    +0.000 N 
ATOM      3  C   UNL     1       3.650   4.623  19.048  0.00  0.00    +0.000 A 
ATOM      4  C   UNL     1       2.740   5.516  19.491  0.00  0.00    +0.000 A 
ATOM      5  C   UNL     1       1.993   4.801  20.574  0.00  0.00    +0.000 A 
ATOM      6  O   UNL     1       1.083   5.271  21.236  0.00  0.00    +0.000 OA
ATOM      7  N   UNL     1       2.548   3.538  20.672  0.00  0.00    +0.000 N 
ATOM      8  C   UNL     1       2.125   2.489  21.559  0.00  0.00    +0.000 C 
ENDROOT
BRANCH   3   9
ATOM      9  C   UNL     1       4.669   4.865  18.020  0.00  0.00    +0.000 A 
ATOM     10  C   UNL     1       5.800   5.629  18.312  0.00  0.00    +0.000 A 
ATOM     11  C   UNL     1       6.779   5.834  17.334  0.00  0.00    +0.000 A 
ATOM     12  C   UNL     1       6.655   5.292  16.062  0.00  0.00    +0.000 A 
ATOM     13  N   UNL     1       7.627   5.505  15.152  0.00  0.00    +0.000 NA
ATOM     14  C   UNL     1       7.443   4.949  13.933  0.00  0.00    +0.000 A 
ATOM     15  C   UNL     1       6.326   4.199  13.632  0.00  0.00    +0.000 A 
ATOM     16  N   UNL     1       5.344   3.969  14.531  0.00  0.00    +0.000 NA
ATOM     17  C   UNL     1       5.508   4.520  15.754  0.00  0.00    +0.000 A 
ATOM     18  C   UNL     1       4.538   4.323  16.737  0.00  0.00    +0.000 A 
ENDBRANCH   3   9
BRANCH   4  19
ATOM     19  C   UNL     1       2.461   6.894  19.114  0.00  0.00    +0.000 A 
ATOM     20  C   UNL     1       2.696   7.326  17.804  0.00  0.00    +0.000 A 
ATOM     21  C   UNL     1       2.329   8.616  17.412  0.00  0.00    +0.000 A 
ATOM     22  C   UNL     1       1.731   9.479  18.329  0.00  0.00    +0.000 A 
ATOM     23  C   UNL     1       1.500   9.056  19.637  0.00  0.00    +0.000 A 
ATOM     24  C   UNL     1       1.863   7.767  20.030  0.00  0.00    +0.000 A 
ENDBRANCH   4  19
TORSDOF 2
ENDMDL
MODEL 2
REMARK VINA RESULT:      -8.4      2.682      5.982
REMARK  Name = 
REMARK  4 active torsions:
REMARK  status: ('A' for Active; 'I' for Inactive)
REMARK    1  A    between atoms: C_1  and  N_2
REMARK    2  A    between atoms: C_3  and  C_4
REMARK    3  A    between atoms: C_14  and  C_15
REMARK    4  A    between atoms: N_23  and  C_24
REMARK                            x       y       z     vdW  Elec       q    Type
REMARK                         _______ _______ _______ _____ _____    ______ ____
ROOT
ATOM      1  C   UNL     1       0.744   4.234  20.086  0.00  0.00    +0.000 C 
ATOM      2  N   UNL     1       2.180   4.307  19.927  0.00  0.00    +0.000 N 
ATOM      3  C   UNL     1       2.971   5.350  19.457  0.00  0.00    +0.000 A 
ATOM      4  C   UNL     1       4.230   4.945  19.182  0.00  0.00    +0.000 A 
ATOM      5  C   UNL     1       4.226   3.471  19.443  0.00  0.00    +0.000 A 
ATOM      6  O   UNL     1       5.181   2.725  19.306  0.00  0.00    +0.000 OA
ATOM      7  N   UNL     1       2.943   3.141  19.844  0.00  0.00    +0.000 N 
ATOM      8  C   UNL     1       2.483   1.837  20.234  0.00  0.00    +0.000 C 
ENDROOT
BRANCH   3   9
ATOM      9  C   UNL     1       2.448   6.712  19.300  0.00  0.00    +0.000 A 
ATOM     10  C   UNL     1       2.359   7.294  18.034  0.00  0.00    +0.000 A 
ATOM     11  C   UNL     1       1.836   8.583  17.891  0.00  0.00    +0.000 A 
ATOM     12  C   UNL     1       1.396   9.311  18.989  0.00  0.00    +0.000 A 
ATOM     13  N   UNL     1       0.889  10.548  18.805  0.00  0.00    +0.000 NA
ATOM     14  C   UNL     1       0.480  11.201  19.915  0.00  0.00    +0.000 A 
ATOM     15  C   UNL     1       0.571  10.639  21.171  0.00  0.00    +0.000 A 
ATOM     16  N   UNL     1       1.071   9.400  21.375  0.00  0.00    +0.000 NA
ATOM     17  C   UNL     1       1.488   8.731  20.278  0.00  0.00    +0.000 A 
ATOM     18  C   UNL     1       2.012   7.446  20.409  0.00  0.00    +0.000 A 
ENDBRANCH   3   9
BRANCH   4  19
ATOM     19  C   UNL     1       5.404   5.662  18.708  0.00  0.00    +0.000 A 
ATOM     20  C   UNL     1       6.605   5.595  19.423  0.00  0.00    +0.000 A 
ATOM     21  C   UNL     1       7.760   6.193  18.914  0.00  0.00    +0.000 A 
ATOM     22  C   UNL     1       7.718   6.864  17.693  0.00  0.00    +0.000 A 
ATOM     23  C   UNL     1       6.523   6.939  16.979  0.00  0.00    +0.000 A 
ATOM     24  C   UNL     1       5.368   6.340  17.484  0.00  0.00    +0.000 A 
ENDBRANCH   4  19
TORSDOF 2
ENDMDL
MODEL 3
REMARK VINA RESULT:      -8.3      2.548      6.376
REMARK  Name = 
REMARK  4 active torsions:
REMARK  status: ('A' for Active; 'I' for Inactive)
REMARK    1  A    between atoms: C_1  and  N_2
REMARK    2  A    between atoms: C_3  and  C_4
REMARK    3  A    between atoms: C_14  and  C_15
REMARK    4  A    between atoms: N_23  and  C_24
REMARK                            x       y       z     vdW  Elec       q    Type
REMARK                         _______ _______ _______ _____ _____    ______ ____
ROOT
ATOM      1  C   UNL     1       5.071   7.015  16.101  0.00  0.00    +0.000 C 
ATOM      2  N   UNL     1       4.467   5.832  16.672  0.00  0.00    +0.000 N 
ATOM      3  C   UNL     1       3.570   5.712  17.728  0.00  0.00    +0.000 A 
ATOM      4  C   UNL     1       3.459   4.436  18.155  0.00  0.00    +0.000 A 
ATOM      5  C   UNL     1       4.439   3.666  17.326  0.00  0.00    +0.000 A 
ATOM      6  O   UNL     1       4.649   2.467  17.409  0.00  0.00    +0.000 OA
ATOM      7  N   UNL     1       5.049   4.577  16.482  0.00  0.00    +0.000 N 
ATOM      8  C   UNL     1       6.037   4.280  15.482  0.00  0.00    +0.000 C 
ENDROOT
BRANCH   3   9
ATOM      9  C   UNL     1       2.854   6.871  18.274  0.00  0.00    +0.000 A 
ATOM     10  C   UNL     1       2.491   7.933  17.445  0.00  0.00    +0.000 A 
ATOM     11  C   UNL     1       1.786   9.022  17.969  0.00  0.00    +0.000 A 
ATOM     12  C   UNL     1       1.433   9.077  19.310  0.00  0.00    +0.000 A 
ATOM     13  N   UNL     1       0.745  10.141  19.772  0.00  0.00    +0.000 NA
ATOM     14  C   UNL     1       0.433  10.131  21.088  0.00  0.00    +0.000 A 
ATOM     15  C   UNL     1       0.794   9.091  21.918  0.00  0.00    +0.000 A 
ATOM     16  N   UNL     1       1.479   8.014  21.473  0.00  0.00    +0.000 NA
ATOM     17  C   UNL     1       1.802   8.007  20.161  0.00  0.00    +0.000 A 
ATOM     18  C   UNL     1       2.505   6.927  19.628  0.00  0.00    +0.000 A 
ENDBRANCH   3   9
BRANCH   4  19
ATOM     19  C   UNL     1       2.641   3.821  19.190  0.00  0.00    +0.000 A 
ATOM     20  C   UNL     1       3.184   3.559  20.453  0.00  0.00    +0.000 A 
ATOM     21  C   UNL     1       2.373   3.068  21.479  0.00  0.00    +0.000 A 
ATOM     22  C   UNL     1       1.019   2.835  21.246  0.00  0.00    +0.000 A 
ATOM     23  C   UNL     1       0.473   3.089  19.989  0.00  0.00    +0.000 A 
ATOM     24  C   UNL     1       1.281   3.581  18.963  0.00  0.00    +0.000 A 
ENDBRANCH   4  19
TORSDOF 2
ENDMDL
MODEL 4
REMARK VINA RESULT:      -8.3      2.618      5.832
REMARK  Name = 
REMARK  4 active torsions:
REMARK  status: ('A' for Active; 'I' for Inactive)
REMARK    1  A    between atoms: C_1  and  N_2
REMARK    2  A    between atoms: C_3  and  C_4
REMARK    3  A    between atoms: C_14  and  C_15
REMARK    4  A    between atoms: N_23  and  C_24
REMARK                            x       y       z     vdW  Elec       q    Type
REMARK                         _______ _______ _______ _____ _____    ______ ____
ROOT
ATOM      1  C   UNL     1       0.755   4.345  20.443  0.00  0.00    +0.000 C 
ATOM      2  N   UNL     1       2.177   4.332  20.179  0.00  0.00    +0.000 N 
ATOM      3  C   UNL     1       2.975   5.285  19.557  0.00  0.00    +0.000 A 
ATOM      4  C   UNL     1       4.192   4.795  19.236  0.00  0.00    +0.000 A 
ATOM      5  C   UNL     1       4.144   3.353  19.638  0.00  0.00    +0.000 A 
ATOM      6  O   UNL     1       5.054   2.551  19.508  0.00  0.00    +0.000 OA
ATOM      7  N   UNL     1       2.882   3.127  20.157  0.00  0.00    +0.000 N 
ATOM      8  C   UNL     1       2.396   1.889  20.701  0.00  0.00    +0.000 C 
ENDROOT
BRANCH   3   9
ATOM      9  C   UNL     1       2.501   6.651  19.305  0.00  0.00    +0.000 A 
ATOM     10  C   UNL     1       2.504   7.174  18.011  0.00  0.00    +0.000 A 
ATOM     11  C   UNL     1       2.026   8.468  17.777  0.00  0.00    +0.000 A 
ATOM     12  C   UNL     1       1.543   9.259  18.810  0.00  0.00    +0.000 A 
ATOM     13  N   UNL     1       1.082  10.497  18.539  0.00  0.00    +0.000 NA
ATOM     14  C   UNL     1       0.627  11.213  19.591  0.00  0.00    +0.000 A 
ATOM     15  C   UNL     1       0.627  10.710  20.875  0.00  0.00    +0.000 A 
ATOM     16  N   UNL     1       1.079   9.470  21.166  0.00  0.00    +0.000 NA
ATOM     17  C   UNL     1       1.542   8.739  20.128  0.00  0.00    +0.000 A 
ATOM     18  C   UNL     1       2.021   7.449  20.350  0.00  0.00    +0.000 A 
ENDBRANCH   3   9
BRANCH   4  19
ATOM     19  C   UNL     1       5.358   5.406  18.615  0.00  0.00    +0.000 A 
ATOM     20  C   UNL     1       5.284   5.890  17.304  0.00  0.00    +0.000 A 
ATOM     21  C   UNL     1       6.367   6.572  16.744  0.00  0.00    +0.000 A 
ATOM     22  C   UNL     1       7.527   6.769  17.490  0.00  0.00    +0.000 A 
ATOM     23  C   UNL     1       7.609   6.285  18.795  0.00  0.00    +0.000 A 
ATOM     24  C   UNL     1       6.528   5.606  19.357  0.00  0.00    +0.000 A 
ENDBRANCH   4  19
TORSDOF 2
ENDMDL
MODEL 5
REMARK VINA RESULT:      -8.3      2.627      6.474
REMARK  Name = 
REMARK  4 active torsions:
REMARK  status: ('A' for Active; 'I' for Inactive)
REMARK    1  A    between atoms: C_1  and  N_2
REMARK    2  A    between atoms: C_3  and  C_4
REMARK    3  A    between atoms: C_14  and  C_15
REMARK    4  A    between atoms: N_23  and  C_24
REMARK                            x       y       z     vdW  Elec       q    Type
REMARK                         _______ _______ _______ _____ _____    ______ ____
ROOT
ATOM      1  C   UNL     1       4.939   7.325  16.261  0.00  0.00    +0.000 C 
ATOM      2  N   UNL     1       4.350   6.134  16.833  0.00  0.00    +0.000 N 
ATOM      3  C   UNL     1       3.438   6.005  17.875  0.00  0.00    +0.000 A 
ATOM      4  C   UNL     1       3.346   4.731  18.313  0.00  0.00    +0.000 A 
ATOM      5  C   UNL     1       4.356   3.974  17.507  0.00  0.00    +0.000 A 
ATOM      6  O   UNL     1       4.589   2.780  17.604  0.00  0.00    +0.000 OA
ATOM      7  N   UNL     1       4.961   4.890  16.665  0.00  0.00    +0.000 N 
ATOM      8  C   UNL     1       5.972   4.606  15.684  0.00  0.00    +0.000 C 
ENDROOT
BRANCH   3   9
ATOM      9  C   UNL     1       2.689   7.154  18.399  0.00  0.00    +0.000 A 
ATOM     10  C   UNL     1       2.273   8.176  17.544  0.00  0.00    +0.000 A 
ATOM     11  C   UNL     1       1.537   9.254  18.047  0.00  0.00    +0.000 A 
ATOM     12  C   UNL     1       1.205   9.338  19.393  0.00  0.00    +0.000 A 
ATOM     13  N   UNL     1       0.486  10.391  19.834  0.00  0.00    +0.000 NA
ATOM     14  C   UNL     1       0.198  10.410  21.155  0.00  0.00    +0.000 A 
ATOM     15  C   UNL     1       0.612   9.410  22.010  0.00  0.00    +0.000 A 
ATOM     16  N   UNL     1       1.328   8.346  21.586  0.00  0.00    +0.000 NA
ATOM     17  C   UNL     1       1.629   8.309  20.269  0.00  0.00    +0.000 A 
ATOM     18  C   UNL     1       2.362   7.240  19.757  0.00  0.00    +0.000 A 
ENDBRANCH   3   9
BRANCH   4  19
ATOM     19  C   UNL     1       2.524   4.108  19.339  0.00  0.00    +0.000 A 
ATOM     20  C   UNL     1       1.285   3.549  19.005  0.00  0.00    +0.000 A 
ATOM     21  C   UNL     1       0.544   2.857  19.966  0.00  0.00    +0.000 A 
ATOM     22  C   UNL     1       1.036   2.724  21.263  0.00  0.00    +0.000 A 
ATOM     23  C   UNL     1       2.267   3.283  21.603  0.00  0.00    +0.000 A 
ATOM     24  C   UNL     1       3.010   3.973  20.645  0.00  0.00    +0.000 A 
ENDBRANCH   4  19
TORSDOF 2
ENDMDL
MODEL 6
REMARK VINA RESULT:      -8.0      2.675      6.330
REMARK  Name = 
REMARK  4 active torsions:
REMARK  status: ('A' for Active; 'I' for Inactive)
REMARK    1  A    between atoms: C_1  and  N_2
REMARK    2  A    between atoms: C_3  and  C_4
REMARK    3  A    between atoms: C_14  and  C_15
REMARK    4  A    between atoms: N_23  and  C_24
REMARK                            x       y       z     vdW  Elec       q    Type
REMARK                         _______ _______ _______ _____ _____    ______ ____
ROOT
ATOM      1  C   UNL     1       5.995   7.431  17.443  0.00  0.00    +0.000 C 
ATOM      2  N   UNL     1       5.316   6.196  17.769  0.00  0.00    +0.000 N 
ATOM      3  C   UNL     1       4.089   5.992  18.392  0.00  0.00    +0.000 A 
ATOM      4  C   UNL     1       3.927   4.710  18.782  0.00  0.00    +0.000 A 
ATOM      5  C   UNL     1       5.216   4.034  18.429  0.00  0.00    +0.000 A 
ATOM      6  O   UNL     1       5.476   2.858  18.625  0.00  0.00    +0.000 OA
ATOM      7  N   UNL     1       6.029   5.000  17.863  0.00  0.00    +0.000 N 
ATOM      8  C   UNL     1       7.352   4.797  17.340  0.00  0.00    +0.000 C 
ENDROOT
BRANCH   3   9
ATOM      9  C   UNL     1       3.121   7.080  18.576  0.00  0.00    +0.000 A 
ATOM     10  C   UNL     1       2.812   7.938  17.519  0.00  0.00    +0.000 A 
ATOM     11  C   UNL     1       1.869   8.956  17.696  0.00  0.00    +0.000 A 
ATOM     12  C   UNL     1       1.224   9.141  18.912  0.00  0.00    +0.000 A 
ATOM     13  N   UNL     1       0.314  10.129  19.037  0.00  0.00    +0.000 NA
ATOM     14  C   UNL     1      -0.276  10.254  20.247  0.00  0.00    +0.000 A 
ATOM     15  C   UNL     1       0.028   9.417  21.300  0.00  0.00    +0.000 A 
ATOM     16  N   UNL     1       0.933   8.419  21.193  0.00  0.00    +0.000 NA
ATOM     17  C   UNL     1       1.536   8.279  19.992  0.00  0.00    +0.000 A 
ATOM     18  C   UNL     1       2.478   7.269  19.804  0.00  0.00    +0.000 A 
ENDBRANCH   3   9
BRANCH   4  19
ATOM     19  C   UNL     1       2.823   4.020  19.432  0.00  0.00    +0.000 A 
ATOM     20  C   UNL     1       2.821   3.847  20.820  0.00  0.00    +0.000 A 
ATOM     21  C   UNL     1       1.714   3.282  21.458  0.00  0.00    +0.000 A 
ATOM     22  C   UNL     1       0.608   2.884  20.710  0.00  0.00    +0.000 A 
ATOM     23  C   UNL     1       0.606   3.048  19.326  0.00  0.00    +0.000 A 
ATOM     24  C   UNL     1       1.709   3.615  18.687  0.00  0.00    +0.000 A 
ENDBRANCH   4  19
TORSDOF 2
ENDMDL
MODEL 7
REMARK VINA RESULT:      -7.9      2.732      6.130
REMARK  Name = 
REMARK  4 active torsions:
REMARK  status: ('A' for Active; 'I' for Inactive)
REMARK    1  A    between atoms: C_1  and  N_2
REMARK    2  A    between atoms: C_3  and  C_4
REMARK    3  A    between atoms: C_14  and  C_15
REMARK    4  A    between atoms: N_23  and  C_24
REMARK                            x       y       z     vdW  Elec       q    Type
REMARK                         _______ _______ _______ _____ _____    ______ ____
ROOT
ATOM      1  C   UNL     1       0.884   4.048  18.407  0.00  0.00    +0.000 C 
ATOM      2  N   UNL     1       2.324   4.176  18.434  0.00  0.00    +0.000 N 
ATOM      3  C   UNL     1       3.115   5.319  18.492  0.00  0.00    +0.000 A 
ATOM      4  C   UNL     1       4.408   5.054  18.208  0.00  0.00    +0.000 A 
ATOM      5  C   UNL     1       4.437   3.596  17.868  0.00  0.00    +0.000 A 
ATOM      6  O   UNL     1       5.429   2.963  17.546  0.00  0.00    +0.000 OA
ATOM      7  N   UNL     1       3.136   3.136  17.978  0.00  0.00    +0.000 N 
ATOM      8  C   UNL     1       2.693   1.784  17.778  0.00  0.00    +0.000 C 
ENDROOT
BRANCH   3   9
ATOM      9  C   UNL     1       2.556   6.633  18.829  0.00  0.00    +0.000 A 
ATOM     10  C   UNL     1       2.372   7.599  17.838  0.00  0.00    +0.000 A 
ATOM     11  C   UNL     1       1.815   8.840  18.164  0.00  0.00    +0.000 A 
ATOM     12  C   UNL     1       1.437   9.144  19.465  0.00  0.00    +0.000 A 
ATOM     13  N   UNL     1       0.895  10.349  19.734  0.00  0.00    +0.000 NA
ATOM     14  C   UNL     1       0.549  10.579  21.021  0.00  0.00    +0.000 A 
ATOM     15  C   UNL     1       0.733   9.636  22.009  0.00  0.00    +0.000 A 
ATOM     16  N   UNL     1       1.270   8.421  21.758  0.00  0.00    +0.000 NA
ATOM     17  C   UNL     1       1.625   8.172  20.479  0.00  0.00    +0.000 A 
ATOM     18  C   UNL     1       2.181   6.939  20.142  0.00  0.00    +0.000 A 
ENDBRANCH   3   9
BRANCH   4  19
ATOM     19  C   UNL     1       5.592   5.898  18.172  0.00  0.00    +0.000 A 
ATOM     20  C   UNL     1       6.657   5.654  19.047  0.00  0.00    +0.000 A 
ATOM     21  C   UNL     1       7.837   6.395  18.942  0.00  0.00    +0.000 A 
ATOM     22  C   UNL     1       7.956   7.383  17.967  0.00  0.00    +0.000 A 
ATOM     23  C   UNL     1       6.897   7.634  17.097  0.00  0.00    +0.000 A 
ATOM     24  C   UNL     1       5.717   6.895  17.197  0.00  0.00    +0.000 A 
ENDBRANCH   4  19
TORSDOF 2
ENDMDL
MODEL 8
REMARK VINA RESULT:      -7.8      2.814      6.421
REMARK  Name = 
REMARK  4 active torsions:
REMARK  status: ('A' for Active; 'I' for Inactive)
REMARK    1  A    between atoms: C_1  and  N_2
REMARK    2  A    between atoms: C_3  and  C_4
REMARK    3  A    between atoms: C_14  and  C_15
REMARK    4  A    between atoms: N_23  and  C_24
REMARK                            x       y       z     vdW  Elec       q    Type
REMARK                         _______ _______ _______ _____ _____    ______ ____
ROOT
ATOM      1  C   UNL     1       4.708   7.508  16.437  0.00  0.00    +0.000 C 
ATOM      2  N   UNL     1       4.200   6.235  16.902  0.00  0.00    +0.000 N 
ATOM      3  C   UNL     1       3.373   5.948  17.981  0.00  0.00    +0.000 A 
ATOM      4  C   UNL     1       3.354   4.628  18.268  0.00  0.00    +0.000 A 
ATOM      5  C   UNL     1       4.326   4.013  17.309  0.00  0.00    +0.000 A 
ATOM      6  O   UNL     1       4.604   2.826  17.246  0.00  0.00    +0.000 OA
ATOM      7  N   UNL     1       4.837   5.045  16.543  0.00  0.00    +0.000 N 
ATOM      8  C   UNL     1       5.782   4.919  15.467  0.00  0.00    +0.000 C 
ENDROOT
BRANCH   3   9
ATOM      9  C   UNL     1       2.628   6.995  18.690  0.00  0.00    +0.000 A 
ATOM     10  C   UNL     1       2.344   6.866  20.050  0.00  0.00    +0.000 A 
ATOM     11  C   UNL     1       1.656   7.881  20.722  0.00  0.00    +0.000 A 
ATOM     12  C   UNL     1       1.239   9.031  20.065  0.00  0.00    +0.000 A 
ATOM     13  N   UNL     1       0.587   9.990  20.753  0.00  0.00    +0.000 NA
ATOM     14  C   UNL     1       0.210  11.082  20.052  0.00  0.00    +0.000 A 
ATOM     15  C   UNL     1       0.477  11.218  18.707  0.00  0.00    +0.000 A 
ATOM     16  N   UNL     1       1.134  10.270  18.001  0.00  0.00    +0.000 NA
ATOM     17  C   UNL     1       1.517   9.169  18.683  0.00  0.00    +0.000 A 
ATOM     18  C   UNL     1       2.203   8.150  18.023  0.00  0.00    +0.000 A 
ENDBRANCH   3   9
BRANCH   4  19
ATOM     19  C   UNL     1       2.630   3.856  19.266  0.00  0.00    +0.000 A 
ATOM     20  C   UNL     1       3.276   3.438  20.435  0.00  0.00    +0.000 A 
ATOM     21  C   UNL     1       2.556   2.791  21.443  0.00  0.00    +0.000 A 
ATOM     22  C   UNL     1       1.192   2.556  21.284  0.00  0.00    +0.000 A 
ATOM     23  C   UNL     1       0.544   2.966  20.120  0.00  0.00    +0.000 A 
ATOM     24  C   UNL     1       1.260   3.614  19.113  0.00  0.00    +0.000 A 
ENDBRANCH   4  19
TORSDOF 2
ENDMDL
MODEL 9
REMARK VINA RESULT:      -7.6      2.764      5.857
REMARK  Name = 
REMARK  4 active torsions:
REMARK  status: ('A' for Active; 'I' for Inactive)
REMARK    1  A    between atoms: C_1  and  N_2
REMARK    2  A    between atoms: C_3  and  C_4
REMARK    3  A    between atoms: C_14  and  C_15
REMARK    4  A    between atoms: N_23  and  C_24
REMARK                            x       y       z     vdW  Elec       q    Type
REMARK                         _______ _______ _______ _____ _____    ______ ____
ROOT
ATOM      1  C   UNL     1       0.891   3.865  18.391  0.00  0.00    +0.000 C 
ATOM      2  N   UNL     1       2.327   4.031  18.347  0.00  0.00    +0.000 N 
ATOM      3  C   UNL     1       3.095   5.179  18.507  0.00  0.00    +0.000 A 
ATOM      4  C   UNL     1       4.373   4.992  18.112  0.00  0.00    +0.000 A 
ATOM      5  C   UNL     1       4.411   3.592  17.582  0.00  0.00    +0.000 A 
ATOM      6  O   UNL     1       5.393   3.036  17.119  0.00  0.00    +0.000 OA
ATOM      7  N   UNL     1       3.130   3.083  17.709  0.00  0.00    +0.000 N 
ATOM      8  C   UNL     1       2.703   1.757  17.359  0.00  0.00    +0.000 C 
ENDROOT
BRANCH   3   9
ATOM      9  C   UNL     1       2.532   6.421  19.048  0.00  0.00    +0.000 A 
ATOM     10  C   UNL     1       2.137   6.496  20.384  0.00  0.00    +0.000 A 
ATOM     11  C   UNL     1       1.625   7.692  20.898  0.00  0.00    +0.000 A 
ATOM     12  C   UNL     1       1.495   8.824  20.104  0.00  0.00    +0.000 A 
ATOM     13  N   UNL     1       1.006   9.959  20.643  0.00  0.00    +0.000 NA
ATOM     14  C   UNL     1       0.906  11.023  19.814  0.00  0.00    +0.000 A 
ATOM     15  C   UNL     1       1.286  10.959  18.490  0.00  0.00    +0.000 A 
ATOM     16  N   UNL     1       1.784   9.832  17.934  0.00  0.00    +0.000 NA
ATOM     17  C   UNL     1       1.888   8.756  18.745  0.00  0.00    +0.000 A 
ATOM     18  C   UNL     1       2.396   7.559  18.244  0.00  0.00    +0.000 A 
ENDBRANCH   3   9
BRANCH   4  19
ATOM     19  C   UNL     1       5.534   5.868  18.117  0.00  0.00    +0.000 A 
ATOM     20  C   UNL     1       6.599   5.621  18.990  0.00  0.00    +0.000 A 
ATOM     21  C   UNL     1       7.759   6.395  18.922  0.00  0.00    +0.000 A 
ATOM     22  C   UNL     1       7.858   7.422  17.984  0.00  0.00    +0.000 A 
ATOM     23  C   UNL     1       6.799   7.676  17.115  0.00  0.00    +0.000 A 
ATOM     24  C   UNL     1       5.640   6.902  17.179  0.00  0.00    +0.000 A 
ENDBRANCH   4  19
TORSDOF 2
ENDMDL
