MODEL 1
REMARK VINA RESULT:      -6.6      0.000      0.000
REMARK  Name = 
REMARK  4 active torsions:
REMARK  status: ('A' for Active; 'I' for Inactive)
REMARK    1  A    between atoms: C_1  and  N_2
REMARK    2  A    between atoms: N_2  and  C_3
REMARK    3  A    between atoms: N_2  and  S_15
REMARK    4  A    between atoms: S_15  and  C_18
REMARK                            x       y       z     vdW  Elec       q    Type
REMARK                         _______ _______ _______ _____ _____    ______ ____
ROOT
ATOM      1  C   UNL     1       3.971   5.164  17.273  0.00  0.00    +0.000 C 
ATOM      2  C   UNL     1       4.345   3.737  16.863  0.00  0.00    +0.000 C 
ATOM      3  C   UNL     1       5.789   3.514  16.426  0.00  0.00    +0.000 C 
ATOM      4  N   UNL     1       6.348   4.638  15.689  0.00  0.00    +0.000 N 
ATOM      5  C   UNL     1       6.621   4.526  14.335  0.00  0.00    +0.000 A 
ATOM      6  C   UNL     1       7.641   5.296  13.764  0.00  0.00    +0.000 A 
ATOM      7  C   UNL     1       7.942   5.193  12.409  0.00  0.00    +0.000 A 
ATOM      8  C   UNL     1       7.206   4.315  11.630  0.00  0.00    +0.000 A 
ATOM      9  C   UNL     1       6.220   3.576  12.254  0.00  0.00    +0.000 A 
ATOM     10  N   UNL     1       5.923   3.653  13.578  0.00  0.00    +0.000 NA
ATOM     11  C   UNL     1       6.190   5.965  16.266  0.00  0.00    +0.000 C 
ATOM     12  C   UNL     1       4.720   6.262  16.515  0.00  0.00    +0.000 C 
ENDROOT
BRANCH   1  14
ATOM     13  C   UNL     1       5.192   5.276  19.536  0.00  0.00    +0.000 C 
ATOM     14  N   UNL     1       3.970   5.427  18.745  0.00  0.00    +0.000 NA
BRANCH  14  15
ATOM     15  S   UNL     1       2.490   5.403  19.586  0.00  0.00    +0.000 S 
ATOM     16  O   UNL     1       1.483   4.786  18.751  0.00  0.00    +0.000 OA
ATOM     17  O   UNL     1       2.743   4.925  20.929  0.00  0.00    +0.000 OA
BRANCH  15  18
ATOM     18  C   UNL     1       1.925   7.080  19.832  0.00  0.00    +0.000 A 
ATOM     19  C   UNL     1       1.354   7.702  20.926  0.00  0.00    +0.000 A 
ATOM     20  C   UNL     1       1.020   9.063  20.666  0.00  0.00    +0.000 A 
ATOM     21  C   UNL     1       1.352   9.436  19.383  0.00  0.00    +0.000 A 
ATOM     22  S   UNL     1       2.047   8.146  18.500  0.00  0.00    +0.000 S 
ENDBRANCH  15  18
ENDBRANCH  14  15
ENDBRANCH   1  14
TORSDOF 3
ENDMDL
MODEL 2
REMARK VINA RESULT:      -6.4      3.387      7.335
REMARK  Name = 
REMARK  4 active torsions:
REMARK  status: ('A' for Active; 'I' for Inactive)
REMARK    1  A    between atoms: C_1  and  N_2
REMARK    2  A    between atoms: N_2  and  C_3
REMARK    3  A    between atoms: N_2  and  S_15
REMARK    4  A    between atoms: S_15  and  C_18
REMARK                            x       y       z     vdW  Elec       q    Type
REMARK                         _______ _______ _______ _____ _____    ______ ____
ROOT
ATOM      1  C   UNL     1       1.588   4.489  18.978  0.00  0.00    +0.000 C 
ATOM      2  C   UNL     1       2.243   5.630  18.195  0.00  0.00    +0.000 C 
ATOM      3  C   UNL     1       2.868   6.748  19.022  0.00  0.00    +0.000 C 
ATOM      4  N   UNL     1       2.126   7.051  20.237  0.00  0.00    +0.000 N 
ATOM      5  C   UNL     1       1.439   8.248  20.362  0.00  0.00    +0.000 A 
ATOM      6  C   UNL     1       1.241   8.807  21.629  0.00  0.00    +0.000 A 
ATOM      7  C   UNL     1       0.563  10.014  21.780  0.00  0.00    +0.000 A 
ATOM      8  C   UNL     1       0.080  10.651  20.648  0.00  0.00    +0.000 A 
ATOM      9  C   UNL     1       0.317  10.052  19.426  0.00  0.00    +0.000 A 
ATOM     10  N   UNL     1       0.989   8.883  19.260  0.00  0.00    +0.000 NA
ATOM     11  C   UNL     1       1.752   5.933  21.091  0.00  0.00    +0.000 C 
ATOM     12  C   UNL     1       0.950   4.909  20.303  0.00  0.00    +0.000 C 
ENDROOT
BRANCH   1  14
ATOM     13  C   UNL     1       2.854   2.821  20.475  0.00  0.00    +0.000 C 
ATOM     14  N   UNL     1       2.429   3.265  19.147  0.00  0.00    +0.000 NA
BRANCH  14  15
ATOM     15  S   UNL     1       3.309   2.679  17.812  0.00  0.00    +0.000 S 
ATOM     16  O   UNL     1       3.772   1.340  18.103  0.00  0.00    +0.000 OA
ATOM     17  O   UNL     1       2.548   2.962  16.612  0.00  0.00    +0.000 OA
BRANCH  15  18
ATOM     18  C   UNL     1       4.794   3.650  17.613  0.00  0.00    +0.000 A 
ATOM     19  C   UNL     1       5.623   4.256  18.538  0.00  0.00    +0.000 A 
ATOM     20  C   UNL     1       6.692   4.973  17.926  0.00  0.00    +0.000 A 
ATOM     21  C   UNL     1       6.646   4.887  16.553  0.00  0.00    +0.000 A 
ATOM     22  S   UNL     1       5.314   3.960  16.013  0.00  0.00    +0.000 S 
ENDBRANCH  15  18
ENDBRANCH  14  15
ENDBRANCH   1  14
TORSDOF 3
ENDMDL
MODEL 3
REMARK VINA RESULT:      -6.3      1.890      2.689
REMARK  Name = 
REMARK  4 active torsions:
REMARK  status: ('A' for Active; 'I' for Inactive)
REMARK    1  A    between atoms: C_1  and  N_2
REMARK    2  A    between atoms: N_2  and  C_3
REMARK    3  A    between atoms: N_2  and  S_15
REMARK    4  A    between atoms: S_15  and  C_18
REMARK                            x       y       z     vdW  Elec       q    Type
REMARK                         _______ _______ _______ _____ _____    ______ ____
ROOT
ATOM      1  C   UNL     1       4.042   5.443  17.085  0.00  0.00    +0.000 C 
ATOM      2  C   UNL     1       4.403   3.991  16.763  0.00  0.00    +0.000 C 
ATOM      3  C   UNL     1       5.848   3.728  16.351  0.00  0.00    +0.000 C 
ATOM      4  N   UNL     1       6.425   4.800  15.554  0.00  0.00    +0.000 N 
ATOM      5  C   UNL     1       6.707   4.605  14.211  0.00  0.00    +0.000 A 
ATOM      6  C   UNL     1       7.739   5.329  13.604  0.00  0.00    +0.000 A 
ATOM      7  C   UNL     1       8.049   5.143  12.260  0.00  0.00    +0.000 A 
ATOM      8  C   UNL     1       7.309   4.228  11.528  0.00  0.00    +0.000 A 
ATOM      9  C   UNL     1       6.311   3.538  12.187  0.00  0.00    +0.000 A 
ATOM     10  N   UNL     1       6.005   3.696  13.501  0.00  0.00    +0.000 NA
ATOM     11  C   UNL     1       6.277   6.160  16.050  0.00  0.00    +0.000 C 
ATOM     12  C   UNL     1       4.808   6.487  16.270  0.00  0.00    +0.000 C 
ENDROOT
BRANCH   1  14
ATOM     13  C   UNL     1       5.193   5.515  19.386  0.00  0.00    +0.000 C 
ATOM     14  N   UNL     1       4.033   5.793  18.538  0.00  0.00    +0.000 NA
BRANCH  14  15
ATOM     15  S   UNL     1       2.539   6.035  19.319  0.00  0.00    +0.000 S 
ATOM     16  O   UNL     1       2.715   6.995  20.387  0.00  0.00    +0.000 OA
ATOM     17  O   UNL     1       1.526   6.226  18.302  0.00  0.00    +0.000 OA
BRANCH  15  18
ATOM     18  C   UNL     1       2.047   4.523  20.131  0.00  0.00    +0.000 A 
ATOM     19  C   UNL     1       2.189   4.097  21.438  0.00  0.00    +0.000 A 
ATOM     20  C   UNL     1       1.674   2.784  21.643  0.00  0.00    +0.000 A 
ATOM     21  C   UNL     1       1.151   2.253  20.486  0.00  0.00    +0.000 A 
ATOM     22  S   UNL     1       1.296   3.328  19.164  0.00  0.00    +0.000 S 
ENDBRANCH  15  18
ENDBRANCH  14  15
ENDBRANCH   1  14
TORSDOF 3
ENDMDL
MODEL 4
REMARK VINA RESULT:      -6.2      3.195      7.645
REMARK  Name = 
REMARK  4 active torsions:
REMARK  status: ('A' for Active; 'I' for Inactive)
REMARK    1  A    between atoms: C_1  and  N_2
REMARK    2  A    between atoms: N_2  and  C_3
REMARK    3  A    between atoms: N_2  and  S_15
REMARK    4  A    between atoms: S_15  and  C_18
REMARK                            x       y       z     vdW  Elec       q    Type
REMARK                         _______ _______ _______ _____ _____    ______ ____
ROOT
ATOM      1  C   UNL     1       4.994   5.705  18.123  0.00  0.00    +0.000 C 
ATOM      2  C   UNL     1       3.887   5.157  19.029  0.00  0.00    +0.000 C 
ATOM      3  C   UNL     1       2.473   5.652  18.745  0.00  0.00    +0.000 C 
ATOM      4  N   UNL     1       2.423   7.043  18.319  0.00  0.00    +0.000 N 
ATOM      5  C   UNL     1       1.881   8.013  19.148  0.00  0.00    +0.000 A 
ATOM      6  C   UNL     1       1.296   9.156  18.591  0.00  0.00    +0.000 A 
ATOM      7  C   UNL     1       0.736  10.139  19.400  0.00  0.00    +0.000 A 
ATOM      8  C   UNL     1       0.773   9.970  20.775  0.00  0.00    +0.000 A 
ATOM      9  C   UNL     1       1.355   8.815  21.262  0.00  0.00    +0.000 A 
ATOM     10  N   UNL     1       1.893   7.839  20.486  0.00  0.00    +0.000 NA
ATOM     11  C   UNL     1       3.328   7.452  17.256  0.00  0.00    +0.000 C 
ATOM     12  C   UNL     1       4.767   7.137  17.634  0.00  0.00    +0.000 C 
ENDROOT
BRANCH   1  14
ATOM     13  C   UNL     1       4.809   3.480  16.843  0.00  0.00    +0.000 C 
ATOM     14  N   UNL     1       5.402   4.808  16.999  0.00  0.00    +0.000 NA
BRANCH  14  15
ATOM     15  S   UNL     1       6.884   5.096  16.212  0.00  0.00    +0.000 S 
ATOM     16  O   UNL     1       7.125   6.521  16.165  0.00  0.00    +0.000 OA
ATOM     17  O   UNL     1       7.870   4.189  16.763  0.00  0.00    +0.000 OA
BRANCH  15  18
ATOM     18  C   UNL     1       6.752   4.591  14.504  0.00  0.00    +0.000 A 
ATOM     19  C   UNL     1       5.899   3.703  13.875  0.00  0.00    +0.000 A 
ATOM     20  C   UNL     1       6.175   3.576  12.482  0.00  0.00    +0.000 A 
ATOM     21  C   UNL     1       7.227   4.375  12.094  0.00  0.00    +0.000 A 
ATOM     22  S   UNL     1       7.881   5.257  13.404  0.00  0.00    +0.000 S 
ENDBRANCH  15  18
ENDBRANCH  14  15
ENDBRANCH   1  14
TORSDOF 3
ENDMDL
MODEL 5
REMARK VINA RESULT:      -6.1      2.802      7.500
REMARK  Name = 
REMARK  4 active torsions:
REMARK  status: ('A' for Active; 'I' for Inactive)
REMARK    1  A    between atoms: C_1  and  N_2
REMARK    2  A    between atoms: N_2  and  C_3
REMARK    3  A    between atoms: N_2  and  S_15
REMARK    4  A    between atoms: S_15  and  C_18
REMARK                            x       y       z     vdW  Elec       q    Type
REMARK                         _______ _______ _______ _____ _____    ______ ____
ROOT
ATOM      1  C   UNL     1       1.949   4.784  18.686  0.00  0.00    +0.000 C 
ATOM      2  C   UNL     1       2.460   6.063  18.016  0.00  0.00    +0.000 C 
ATOM      3  C   UNL     1       2.939   7.171  18.948  0.00  0.00    +0.000 C 
ATOM      4  N   UNL     1       2.163   7.269  20.175  0.00  0.00    +0.000 N 
ATOM      5  C   UNL     1       1.331   8.356  20.397  0.00  0.00    +0.000 A 
ATOM      6  C   UNL     1       1.062   8.771  21.706  0.00  0.00    +0.000 A 
ATOM      7  C   UNL     1       0.240   9.866  21.954  0.00  0.00    +0.000 A 
ATOM      8  C   UNL     1      -0.316  10.538  20.877  0.00  0.00    +0.000 A 
ATOM      9  C   UNL     1      -0.004  10.085  19.610  0.00  0.00    +0.000 A 
ATOM     10  N   UNL     1       0.809   9.028  19.349  0.00  0.00    +0.000 NA
ATOM     11  C   UNL     1       1.928   6.042  20.921  0.00  0.00    +0.000 C 
ATOM     12  C   UNL     1       1.262   5.002  20.035  0.00  0.00    +0.000 C 
ENDROOT
BRANCH   1  14
ATOM     13  C   UNL     1       2.505   2.300  19.069  0.00  0.00    +0.000 C 
ATOM     14  N   UNL     1       2.936   3.663  18.756  0.00  0.00    +0.000 NA
BRANCH  14  15
ATOM     15  S   UNL     1       4.585   4.029  18.977  0.00  0.00    +0.000 S 
ATOM     16  O   UNL     1       4.699   5.312  19.635  0.00  0.00    +0.000 OA
ATOM     17  O   UNL     1       5.238   2.852  19.514  0.00  0.00    +0.000 OA
BRANCH  15  18
ATOM     18  C   UNL     1       5.357   4.254  17.383  0.00  0.00    +0.000 A 
ATOM     19  C   UNL     1       4.886   4.048  16.100  0.00  0.00    +0.000 A 
ATOM     20  C   UNL     1       5.870   4.326  15.107  0.00  0.00    +0.000 A 
ATOM     21  C   UNL     1       7.059   4.738  15.665  0.00  0.00    +0.000 A 
ATOM     22  S   UNL     1       6.986   4.775  17.374  0.00  0.00    +0.000 S 
ENDBRANCH  15  18
ENDBRANCH  14  15
ENDBRANCH   1  14
TORSDOF 3
ENDMDL
MODEL 6
REMARK VINA RESULT:      -6.0      3.722      7.175
REMARK  Name = 
REMARK  4 active torsions:
REMARK  status: ('A' for Active; 'I' for Inactive)
REMARK    1  A    between atoms: C_1  and  N_2
REMARK    2  A    between atoms: N_2  and  C_3
REMARK    3  A    between atoms: N_2  and  S_15
REMARK    4  A    between atoms: S_15  and  C_18
REMARK                            x       y       z     vdW  Elec       q    Type
REMARK                         _______ _______ _______ _____ _____    ______ ____
ROOT
ATOM      1  C   UNL     1       2.913   6.235  18.006  0.00  0.00    +0.000 C 
ATOM      2  C   UNL     1       2.897   7.467  17.097  0.00  0.00    +0.000 C 
ATOM      3  C   UNL     1       2.835   8.822  17.794  0.00  0.00    +0.000 C 
ATOM      4  N   UNL     1       2.020   8.814  19.000  0.00  0.00    +0.000 N 
ATOM      5  C   UNL     1       0.809   9.487  19.035  0.00  0.00    +0.000 A 
ATOM      6  C   UNL     1       0.324   9.985  20.250  0.00  0.00    +0.000 A 
ATOM      7  C   UNL     1      -0.883  10.674  20.310  0.00  0.00    +0.000 A 
ATOM      8  C   UNL     1      -1.605  10.855  19.140  0.00  0.00    +0.000 A 
ATOM      9  C   UNL     1      -1.067  10.349  17.972  0.00  0.00    +0.000 A 
ATOM     10  N   UNL     1       0.117   9.687  17.894  0.00  0.00    +0.000 NA
ATOM     11  C   UNL     1       2.262   7.754  19.967  0.00  0.00    +0.000 C 
ATOM     12  C   UNL     1       2.123   6.392  19.307  0.00  0.00    +0.000 C 
ENDROOT
BRANCH   1  14
ATOM     13  C   UNL     1       5.479   6.430  18.039  0.00  0.00    +0.000 C 
ATOM     14  N   UNL     1       4.263   5.646  18.260  0.00  0.00    +0.000 NA
BRANCH  14  15
ATOM     15  S   UNL     1       4.428   3.952  18.312  0.00  0.00    +0.000 S 
ATOM     16  O   UNL     1       4.591   3.452  16.965  0.00  0.00    +0.000 OA
ATOM     17  O   UNL     1       5.381   3.625  19.353  0.00  0.00    +0.000 OA
BRANCH  15  18
ATOM     18  C   UNL     1       2.901   3.230  18.893  0.00  0.00    +0.000 A 
ATOM     19  C   UNL     1       1.768   2.816  18.218  0.00  0.00    +0.000 A 
ATOM     20  C   UNL     1       0.759   2.325  19.096  0.00  0.00    +0.000 A 
ATOM     21  C   UNL     1       1.157   2.376  20.413  0.00  0.00    +0.000 A 
ATOM     22  S   UNL     1       2.730   3.025  20.583  0.00  0.00    +0.000 S 
ENDBRANCH  15  18
ENDBRANCH  14  15
ENDBRANCH   1  14
TORSDOF 3
ENDMDL
MODEL 7
REMARK VINA RESULT:      -5.8      5.057      7.284
REMARK  Name = 
REMARK  4 active torsions:
REMARK  status: ('A' for Active; 'I' for Inactive)
REMARK    1  A    between atoms: C_1  and  N_2
REMARK    2  A    between atoms: N_2  and  C_3
REMARK    3  A    between atoms: N_2  and  S_15
REMARK    4  A    between atoms: S_15  and  C_18
REMARK                            x       y       z     vdW  Elec       q    Type
REMARK                         _______ _______ _______ _____ _____    ______ ____
ROOT
ATOM      1  C   UNL     1      -0.127   9.986  19.375  0.00  0.00    +0.000 C 
ATOM      2  C   UNL     1       0.333   9.169  20.586  0.00  0.00    +0.000 C 
ATOM      3  C   UNL     1       1.766   8.647  20.545  0.00  0.00    +0.000 C 
ATOM      4  N   UNL     1       2.199   8.253  19.213  0.00  0.00    +0.000 N 
ATOM      5  C   UNL     1       2.409   6.918  18.907  0.00  0.00    +0.000 A 
ATOM      6  C   UNL     1       3.337   6.568  17.919  0.00  0.00    +0.000 A 
ATOM      7  C   UNL     1       3.574   5.234  17.601  0.00  0.00    +0.000 A 
ATOM      8  C   UNL     1       2.868   4.253  18.279  0.00  0.00    +0.000 A 
ATOM      9  C   UNL     1       1.974   4.663  19.250  0.00  0.00    +0.000 A 
ATOM     10  N   UNL     1       1.742   5.959  19.582  0.00  0.00    +0.000 NA
ATOM     11  C   UNL     1       1.970   9.195  18.127  0.00  0.00    +0.000 C 
ATOM     12  C   UNL     1       0.496   9.560  18.045  0.00  0.00    +0.000 C 
ENDROOT
BRANCH   1  14
ATOM     13  C   UNL     1       1.174  12.137  19.933  0.00  0.00    +0.000 C 
ATOM     14  N   UNL     1      -0.071  11.470  19.548  0.00  0.00    +0.000 NA
BRANCH  14  15
ATOM     15  S   UNL     1      -1.522  12.326  19.797  0.00  0.00    +0.000 S 
ATOM     16  O   UNL     1      -2.108  11.905  21.051  0.00  0.00    +0.000 OA
ATOM     17  O   UNL     1      -1.271  13.726  19.521  0.00  0.00    +0.000 OA
BRANCH  15  18
ATOM     18  C   UNL     1      -2.707  11.853  18.548  0.00  0.00    +0.000 A 
ATOM     19  C   UNL     1      -2.541  11.397  17.254  0.00  0.00    +0.000 A 
ATOM     20  C   UNL     1      -3.782  11.171  16.592  0.00  0.00    +0.000 A 
ATOM     21  C   UNL     1      -4.856  11.458  17.404  0.00  0.00    +0.000 A 
ATOM     22  S   UNL     1      -4.363  12.009  18.947  0.00  0.00    +0.000 S 
ENDBRANCH  15  18
ENDBRANCH  14  15
ENDBRANCH   1  14
TORSDOF 3
ENDMDL
MODEL 8
REMARK VINA RESULT:      -5.8      6.864      9.749
REMARK  Name = 
REMARK  4 active torsions:
REMARK  status: ('A' for Active; 'I' for Inactive)
REMARK    1  A    between atoms: C_1  and  N_2
REMARK    2  A    between atoms: N_2  and  C_3
REMARK    3  A    between atoms: N_2  and  S_15
REMARK    4  A    between atoms: S_15  and  C_18
REMARK                            x       y       z     vdW  Elec       q    Type
REMARK                         _______ _______ _______ _____ _____    ______ ____
ROOT
ATOM      1  C   UNL     1      -1.943  12.047  20.556  0.00  0.00    +0.000 C 
ATOM      2  C   UNL     1      -0.763  11.770  21.492  0.00  0.00    +0.000 C 
ATOM      3  C   UNL     1       0.617  11.721  20.844  0.00  0.00    +0.000 C 
ATOM      4  N   UNL     1       0.609  11.134  19.513  0.00  0.00    +0.000 N 
ATOM      5  C   UNL     1       1.191   9.897  19.285  0.00  0.00    +0.000 A 
ATOM      6  C   UNL     1       1.712   9.594  18.022  0.00  0.00    +0.000 A 
ATOM      7  C   UNL     1       2.311   8.363  17.772  0.00  0.00    +0.000 A 
ATOM      8  C   UNL     1       2.378   7.435  18.798  0.00  0.00    +0.000 A 
ATOM      9  C   UNL     1       1.856   7.798  20.025  0.00  0.00    +0.000 A 
ATOM     10  N   UNL     1       1.281   9.000  20.290  0.00  0.00    +0.000 NA
ATOM     11  C   UNL     1      -0.380  11.629  18.567  0.00  0.00    +0.000 C 
ATOM     12  C   UNL     1      -1.780  11.489  19.142  0.00  0.00    +0.000 C 
ENDROOT
BRANCH   1  14
ATOM     13  C   UNL     1      -1.473  14.575  20.670  0.00  0.00    +0.000 C 
ATOM     14  N   UNL     1      -2.416  13.465  20.527  0.00  0.00    +0.000 NA
BRANCH  14  15
ATOM     15  S   UNL     1      -4.058  13.794  20.836  0.00  0.00    +0.000 S 
ATOM     16  O   UNL     1      -4.257  15.226  20.855  0.00  0.00    +0.000 OA
ATOM     17  O   UNL     1      -4.856  12.939  19.980  0.00  0.00    +0.000 OA
BRANCH  15  18
ATOM     18  C   UNL     1      -4.468  13.245  22.485  0.00  0.00    +0.000 A 
ATOM     19  C   UNL     1      -3.671  12.890  23.557  0.00  0.00    +0.000 A 
ATOM     20  C   UNL     1      -4.432  12.473  24.687  0.00  0.00    +0.000 A 
ATOM     21  C   UNL     1      -5.786  12.529  24.443  0.00  0.00    +0.000 A 
ATOM     22  S   UNL     1      -6.129  13.066  22.856  0.00  0.00    +0.000 S 
ENDBRANCH  15  18
ENDBRANCH  14  15
ENDBRANCH   1  14
TORSDOF 3
ENDMDL
MODEL 9
REMARK VINA RESULT:      -5.7      9.243     11.460
REMARK  Name = 
REMARK  4 active torsions:
REMARK  status: ('A' for Active; 'I' for Inactive)
REMARK    1  A    between atoms: C_1  and  N_2
REMARK    2  A    between atoms: N_2  and  C_3
REMARK    3  A    between atoms: N_2  and  S_15
REMARK    4  A    between atoms: S_15  and  C_18
REMARK                            x       y       z     vdW  Elec       q    Type
REMARK                         _______ _______ _______ _____ _____    ______ ____
ROOT
ATOM      1  C   UNL     1       1.155  14.692  19.279  0.00  0.00    +0.000 C 
ATOM      2  C   UNL     1       0.234  13.705  18.556  0.00  0.00    +0.000 C 
ATOM      3  C   UNL     1      -0.937  13.155  19.365  0.00  0.00    +0.000 C 
ATOM      4  N   UNL     1      -0.617  12.938  20.768  0.00  0.00    +0.000 N 
ATOM      5  C   UNL     1      -0.526  11.652  21.277  0.00  0.00    +0.000 A 
ATOM      6  C   UNL     1      -0.809  11.417  22.628  0.00  0.00    +0.000 A 
ATOM      7  C   UNL     1      -0.735  10.133  23.161  0.00  0.00    +0.000 A 
ATOM      8  C   UNL     1      -0.369   9.088  22.329  0.00  0.00    +0.000 A 
ATOM      9  C   UNL     1      -0.113   9.383  21.004  0.00  0.00    +0.000 A 
ATOM     10  N   UNL     1      -0.195  10.627  20.464  0.00  0.00    +0.000 NA
ATOM     11  C   UNL     1       0.030  14.025  21.485  0.00  0.00    +0.000 C 
ATOM     12  C   UNL     1       1.312  14.437  20.779  0.00  0.00    +0.000 C 
ENDROOT
BRANCH   1  14
ATOM     13  C   UNL     1      -0.451  16.593  18.620  0.00  0.00    +0.000 C 
ATOM     14  N   UNL     1       0.886  16.137  19.001  0.00  0.00    +0.000 NA
BRANCH  14  15
ATOM     15  S   UNL     1       2.194  17.163  18.631  0.00  0.00    +0.000 S 
ATOM     16  O   UNL     1       2.003  17.710  17.306  0.00  0.00    +0.000 OA
ATOM     17  O   UNL     1       2.425  18.026  19.771  0.00  0.00    +0.000 OA
BRANCH  15  18
ATOM     18  C   UNL     1       3.690  16.194  18.523  0.00  0.00    +0.000 A 
ATOM     19  C   UNL     1       4.169  15.356  17.533  0.00  0.00    +0.000 A 
ATOM     20  C   UNL     1       5.409  14.748  17.886  0.00  0.00    +0.000 A 
ATOM     21  C   UNL     1       5.838  15.146  19.132  0.00  0.00    +0.000 A 
ATOM     22  S   UNL     1       4.742  16.232  19.871  0.00  0.00    +0.000 S 
ENDBRANCH  15  18
ENDBRANCH  14  15
ENDBRANCH   1  14
TORSDOF 3
ENDMDL
