MODEL 1
REMARK VINA RESULT:      -8.0      0.000      0.000
REMARK  Name = 
REMARK  6 active torsions:
REMARK  status: ('A' for Active; 'I' for Inactive)
REMARK    1  A    between atoms: N_3  and  C_4
REMARK    2  A    between atoms: N_10  and  C_11
REMARK    3  A    between atoms: C_14  and  C_15
REMARK    4  A    between atoms: C_15  and  C_16
REMARK    5  A    between atoms: C_25  and  C_26
REMARK    6  A    between atoms: C_26  and  O_27
REMARK                            x       y       z     vdW  Elec       q    Type
REMARK                         _______ _______ _______ _____ _____    ______ ____
ROOT
ATOM      1  C   UNL     1       6.961   5.420  16.953  0.00  0.00    +0.000 C 
ATOM      2  C   UNL     1       6.253   6.667  16.508  0.00  0.00    +0.000 C 
ATOM      3  C   UNL     1       5.202   7.145  17.191  0.00  0.00    +0.000 C 
ATOM      4  C   UNL     1       4.643   6.457  18.410  0.00  0.00    +0.000 C 
ATOM      5  O   UNL     1       5.255   5.196  18.719  0.00  0.00    +0.000 OA
ATOM      6  C   UNL     1       6.662   5.106  18.440  0.00  0.00    +0.000 C 
ENDROOT
BRANCH   1  10
ATOM      7  O   UNL     1       7.701   5.225  14.313  0.00  0.00    +0.000 OA
ATOM      8  C   UNL     1       6.888   4.408  14.738  0.00  0.00    +0.000 C 
ATOM      9  N   UNL     1       6.293   3.455  13.939  0.00  0.00    +0.000 N 
ATOM     10  N   UNL     1       6.520   4.356  16.056  0.00  0.00    +0.000 N 
ATOM     11  H   UNL     1       5.451   3.035  14.306  0.00  0.00    +0.000 HD
ATOM     12  H   UNL     1       5.623   3.939  16.291  0.00  0.00    +0.000 HD
BRANCH   9  13
ATOM     13  C   UNL     1       6.419   3.616  12.486  0.00  0.00    +0.000 C 
ATOM     14  C   UNL     1       6.924   2.372  11.731  0.00  0.00    +0.000 C 
ATOM     15  C   UNL     1       5.870   1.409  11.177  0.00  0.00    +0.000 C 
ATOM     16  C   UNL     1       4.616   2.099  10.653  0.00  0.00    +0.000 C 
ATOM     17  C   UNL     1       4.079   3.081  11.680  0.00  0.00    +0.000 C 
ATOM     18  C   UNL     1       5.111   4.179  11.912  0.00  0.00    +0.000 C 
ENDBRANCH   9  13
ENDBRANCH   1  10
BRANCH   4  19
ATOM     19  C   UNL     1       3.139   6.213  18.312  0.00  0.00    +0.000 C 
BRANCH  19  20
ATOM     20  C   UNL     1       2.747   4.765  18.023  0.00  0.00    +0.000 C 
ATOM     21  O   UNL     1       3.037   4.185  16.977  0.00  0.00    +0.000 OA
ATOM     22  N   UNL     1       2.028   4.130  19.025  0.00  0.00    +0.000 N 
ATOM     23  C   UNL     1       1.635   4.703  20.318  0.00  0.00    +0.000 C 
ATOM     24  C   UNL     1       2.003   3.751  21.460  0.00  0.00    +0.000 C 
ATOM     25  O   UNL     1       1.443   2.446  21.247  0.00  0.00    +0.000 OA
ATOM     26  C   UNL     1       1.925   1.881  20.017  0.00  0.00    +0.000 C 
ATOM     27  C   UNL     1       1.551   2.758  18.822  0.00  0.00    +0.000 C 
ENDBRANCH  19  20
ENDBRANCH   4  19
BRANCH   6  28
ATOM     28  C   UNL     1       7.493   5.986  19.400  0.00  0.00    +0.000 C 
BRANCH  28  29
ATOM     29  O   UNL     1       7.968   5.239  20.523  0.00  0.00    +0.000 OA
ATOM     30  H   UNL     1       8.533   4.525  20.182  0.00  0.00    +0.000 HD
ENDBRANCH  28  29
ENDBRANCH   6  28
TORSDOF 6
ENDMDL
MODEL 2
REMARK VINA RESULT:      -7.6      1.052      1.526
REMARK  Name = 
REMARK  6 active torsions:
REMARK  status: ('A' for Active; 'I' for Inactive)
REMARK    1  A    between atoms: N_3  and  C_4
REMARK    2  A    between atoms: N_10  and  C_11
REMARK    3  A    between atoms: C_14  and  C_15
REMARK    4  A    between atoms: C_15  and  C_16
REMARK    5  A    between atoms: C_25  and  C_26
REMARK    6  A    between atoms: C_26  and  O_27
REMARK                            x       y       z     vdW  Elec       q    Type
REMARK                         _______ _______ _______ _____ _____    ______ ____
ROOT
ATOM      1  C   UNL     1       7.087   5.463  16.792  0.00  0.00    +0.000 C 
ATOM      2  C   UNL     1       6.287   6.672  16.400  0.00  0.00    +0.000 C 
ATOM      3  C   UNL     1       5.245   7.078  17.139  0.00  0.00    +0.000 C 
ATOM      4  C   UNL     1       4.787   6.344  18.374  0.00  0.00    +0.000 C 
ATOM      5  O   UNL     1       5.485   5.117  18.633  0.00  0.00    +0.000 OA
ATOM      6  C   UNL     1       6.880   5.114  18.287  0.00  0.00    +0.000 C 
ENDROOT
BRANCH   1  10
ATOM      7  O   UNL     1       7.656   5.375  14.105  0.00  0.00    +0.000 OA
ATOM      8  C   UNL     1       6.937   4.490  14.563  0.00  0.00    +0.000 C 
ATOM      9  N   UNL     1       6.361   3.510  13.783  0.00  0.00    +0.000 N 
ATOM     10  N   UNL     1       6.666   4.386  15.901  0.00  0.00    +0.000 N 
ATOM     11  H   UNL     1       5.581   3.021  14.196  0.00  0.00    +0.000 HD
ATOM     12  H   UNL     1       5.821   3.897  16.187  0.00  0.00    +0.000 HD
BRANCH   9  13
ATOM     13  C   UNL     1       6.374   3.708  12.330  0.00  0.00    +0.000 C 
ATOM     14  C   UNL     1       7.652   3.228  11.615  0.00  0.00    +0.000 C 
ATOM     15  C   UNL     1       7.655   1.799  11.065  0.00  0.00    +0.000 C 
ATOM     16  C   UNL     1       6.314   1.350  10.500  0.00  0.00    +0.000 C 
ATOM     17  C   UNL     1       5.197   1.628  11.493  0.00  0.00    +0.000 C 
ATOM     18  C   UNL     1       5.089   3.132  11.718  0.00  0.00    +0.000 C 
ENDBRANCH   9  13
ENDBRANCH   1  10
BRANCH   4  19
ATOM     19  C   UNL     1       3.296   6.013  18.343  0.00  0.00    +0.000 C 
BRANCH  19  20
ATOM     20  C   UNL     1       2.680   5.726  19.712  0.00  0.00    +0.000 C 
ATOM     21  O   UNL     1       2.238   6.606  20.449  0.00  0.00    +0.000 OA
ATOM     22  N   UNL     1       2.651   4.390  20.084  0.00  0.00    +0.000 N 
ATOM     23  C   UNL     1       3.129   3.250  19.293  0.00  0.00    +0.000 C 
ATOM     24  C   UNL     1       2.066   2.148  19.244  0.00  0.00    +0.000 C 
ATOM     25  O   UNL     1       1.658   1.764  20.566  0.00  0.00    +0.000 OA
ATOM     26  C   UNL     1       1.109   2.887  21.275  0.00  0.00    +0.000 C 
ATOM     27  C   UNL     1       2.136   4.013  21.405  0.00  0.00    +0.000 C 
ENDBRANCH  19  20
ENDBRANCH   4  19
BRANCH   6  28
ATOM     28  C   UNL     1       7.703   6.029  19.219  0.00  0.00    +0.000 C 
BRANCH  28  29
ATOM     29  O   UNL     1       7.939   5.415  20.488  0.00  0.00    +0.000 OA
ATOM     30  H   UNL     1       8.900   5.411  20.638  0.00  0.00    +0.000 HD
ENDBRANCH  28  29
ENDBRANCH   6  28
TORSDOF 6
ENDMDL
MODEL 3
REMARK VINA RESULT:      -7.5      1.433      1.565
REMARK  Name = 
REMARK  6 active torsions:
REMARK  status: ('A' for Active; 'I' for Inactive)
REMARK    1  A    between atoms: N_3  and  C_4
REMARK    2  A    between atoms: N_10  and  C_11
REMARK    3  A    between atoms: C_14  and  C_15
REMARK    4  A    between atoms: C_15  and  C_16
REMARK    5  A    between atoms: C_25  and  C_26
REMARK    6  A    between atoms: C_26  and  O_27
REMARK                            x       y       z     vdW  Elec       q    Type
REMARK                         _______ _______ _______ _____ _____    ______ ____
ROOT
ATOM      1  C   UNL     1       6.549   5.895  16.460  0.00  0.00    +0.000 C 
ATOM      2  C   UNL     1       5.161   6.307  16.860  0.00  0.00    +0.000 C 
ATOM      3  C   UNL     1       4.717   6.113  18.110  0.00  0.00    +0.000 C 
ATOM      4  C   UNL     1       5.550   5.447  19.175  0.00  0.00    +0.000 C 
ATOM      5  O   UNL     1       6.812   4.939  18.718  0.00  0.00    +0.000 OA
ATOM      6  C   UNL     1       7.461   5.721  17.700  0.00  0.00    +0.000 C 
ENDROOT
BRANCH   1  10
ATOM      7  O   UNL     1       7.360   5.602  13.851  0.00  0.00    +0.000 OA
ATOM      8  C   UNL     1       6.771   4.658  14.373  0.00  0.00    +0.000 C 
ATOM      9  N   UNL     1       6.449   3.504  13.692  0.00  0.00    +0.000 N 
ATOM     10  N   UNL     1       6.405   4.662  15.692  0.00  0.00    +0.000 N 
ATOM     11  H   UNL     1       5.734   2.929  14.112  0.00  0.00    +0.000 HD
ATOM     12  H   UNL     1       5.638   4.061  15.983  0.00  0.00    +0.000 HD
BRANCH   9  13
ATOM     13  C   UNL     1       6.556   3.529  12.229  0.00  0.00    +0.000 C 
ATOM     14  C   UNL     1       7.072   2.227  11.587  0.00  0.00    +0.000 C 
ATOM     15  C   UNL     1       6.026   1.202  11.140  0.00  0.00    +0.000 C 
ATOM     16  C   UNL     1       4.756   1.821  10.569  0.00  0.00    +0.000 C 
ATOM     17  C   UNL     1       4.216   2.888  11.507  0.00  0.00    +0.000 C 
ATOM     18  C   UNL     1       5.233   4.017  11.621  0.00  0.00    +0.000 C 
ENDBRANCH   9  13
ENDBRANCH   1  10
BRANCH   4  19
ATOM     19  C   UNL     1       4.822   4.288  19.854  0.00  0.00    +0.000 C 
BRANCH  19  20
ATOM     20  C   UNL     1       4.046   3.379  18.902  0.00  0.00    +0.000 C 
ATOM     21  O   UNL     1       4.590   2.582  18.140  0.00  0.00    +0.000 OA
ATOM     22  N   UNL     1       2.666   3.511  18.945  0.00  0.00    +0.000 N 
ATOM     23  C   UNL     1       1.898   4.409  19.815  0.00  0.00    +0.000 C 
ATOM     24  C   UNL     1       0.771   3.644  20.515  0.00  0.00    +0.000 C 
ATOM     25  O   UNL     1      -0.060   2.962  19.564  0.00  0.00    +0.000 OA
ATOM     26  C   UNL     1       0.711   2.024  18.796  0.00  0.00    +0.000 C 
ATOM     27  C   UNL     1       1.831   2.728  18.027  0.00  0.00    +0.000 C 
ENDBRANCH  19  20
ENDBRANCH   4  19
BRANCH   6  28
ATOM     28  C   UNL     1       7.962   7.074  18.250  0.00  0.00    +0.000 C 
BRANCH  28  29
ATOM     29  O   UNL     1       7.888   8.105  17.261  0.00  0.00    +0.000 OA
ATOM     30  H   UNL     1       8.766   8.520  17.205  0.00  0.00    +0.000 HD
ENDBRANCH  28  29
ENDBRANCH   6  28
TORSDOF 6
ENDMDL
MODEL 4
REMARK VINA RESULT:      -7.3      1.814      2.702
REMARK  Name = 
REMARK  6 active torsions:
REMARK  status: ('A' for Active; 'I' for Inactive)
REMARK    1  A    between atoms: N_3  and  C_4
REMARK    2  A    between atoms: N_10  and  C_11
REMARK    3  A    between atoms: C_14  and  C_15
REMARK    4  A    between atoms: C_15  and  C_16
REMARK    5  A    between atoms: C_25  and  C_26
REMARK    6  A    between atoms: C_26  and  O_27
REMARK                            x       y       z     vdW  Elec       q    Type
REMARK                         _______ _______ _______ _____ _____    ______ ____
ROOT
ATOM      1  C   UNL     1       7.051   5.326  16.921  0.00  0.00    +0.000 C 
ATOM      2  C   UNL     1       5.951   6.334  16.757  0.00  0.00    +0.000 C 
ATOM      3  C   UNL     1       4.971   6.440  17.666  0.00  0.00    +0.000 C 
ATOM      4  C   UNL     1       4.885   5.547  18.877  0.00  0.00    +0.000 C 
ATOM      5  O   UNL     1       5.870   4.505  18.924  0.00  0.00    +0.000 OA
ATOM      6  C   UNL     1       7.160   4.849  18.390  0.00  0.00    +0.000 C 
ENDROOT
BRANCH   1  10
ATOM      7  O   UNL     1       7.627   5.374  14.234  0.00  0.00    +0.000 OA
ATOM      8  C   UNL     1       7.007   4.405  14.666  0.00  0.00    +0.000 C 
ATOM      9  N   UNL     1       6.540   3.391  13.857  0.00  0.00    +0.000 N 
ATOM     10  N   UNL     1       6.749   4.235  15.999  0.00  0.00    +0.000 N 
ATOM     11  H   UNL     1       5.817   2.809  14.253  0.00  0.00    +0.000 HD
ATOM     12  H   UNL     1       5.960   3.651  16.268  0.00  0.00    +0.000 HD
BRANCH   9  13
ATOM     13  C   UNL     1       6.533   3.629  12.409  0.00  0.00    +0.000 C 
ATOM     14  C   UNL     1       6.972   2.431  11.547  0.00  0.00    +0.000 C 
ATOM     15  C   UNL     1       5.875   1.489  11.040  0.00  0.00    +0.000 C 
ATOM     16  C   UNL     1       4.577   2.195  10.669  0.00  0.00    +0.000 C 
ATOM     17  C   UNL     1       4.131   3.117  11.792  0.00  0.00    +0.000 C 
ATOM     18  C   UNL     1       5.175   4.210  11.987  0.00  0.00    +0.000 C 
ENDBRANCH   9  13
ENDBRANCH   1  10
BRANCH   4  19
ATOM     19  C   UNL     1       3.519   4.878  19.020  0.00  0.00    +0.000 C 
BRANCH  19  20
ATOM     20  C   UNL     1       2.674   5.400  20.181  0.00  0.00    +0.000 C 
ATOM     21  O   UNL     1       2.645   4.862  21.287  0.00  0.00    +0.000 OA
ATOM     22  N   UNL     1       1.923   6.534  19.910  0.00  0.00    +0.000 N 
ATOM     23  C   UNL     1       1.882   7.275  18.643  0.00  0.00    +0.000 C 
ATOM     24  C   UNL     1       2.079   8.773  18.891  0.00  0.00    +0.000 C 
ATOM     25  O   UNL     1       1.127   9.269  19.846  0.00  0.00    +0.000 OA
ATOM     26  C   UNL     1       1.262   8.583  21.101  0.00  0.00    +0.000 C 
ATOM     27  C   UNL     1       1.030   7.080  20.937  0.00  0.00    +0.000 C 
ENDBRANCH  19  20
ENDBRANCH   4  19
BRANCH   6  28
ATOM     28  C   UNL     1       7.893   5.875  19.283  0.00  0.00    +0.000 C 
BRANCH  28  29
ATOM     29  O   UNL     1       8.092   5.375  20.608  0.00  0.00    +0.000 OA
ATOM     30  H   UNL     1       8.219   6.141  21.194  0.00  0.00    +0.000 HD
ENDBRANCH  28  29
ENDBRANCH   6  28
TORSDOF 6
ENDMDL
MODEL 5
REMARK VINA RESULT:      -7.1      1.556      2.012
REMARK  Name = 
REMARK  6 active torsions:
REMARK  status: ('A' for Active; 'I' for Inactive)
REMARK    1  A    between atoms: N_3  and  C_4
REMARK    2  A    between atoms: N_10  and  C_11
REMARK    3  A    between atoms: C_14  and  C_15
REMARK    4  A    between atoms: C_15  and  C_16
REMARK    5  A    between atoms: C_25  and  C_26
REMARK    6  A    between atoms: C_26  and  O_27
REMARK                            x       y       z     vdW  Elec       q    Type
REMARK                         _______ _______ _______ _____ _____    ______ ____
ROOT
ATOM      1  C   UNL     1       6.476   5.887  16.466  0.00  0.00    +0.000 C 
ATOM      2  C   UNL     1       5.083   6.261  16.883  0.00  0.00    +0.000 C 
ATOM      3  C   UNL     1       4.661   6.058  18.139  0.00  0.00    +0.000 C 
ATOM      4  C   UNL     1       5.525   5.417  19.195  0.00  0.00    +0.000 C 
ATOM      5  O   UNL     1       6.795   4.944  18.722  0.00  0.00    +0.000 OA
ATOM      6  C   UNL     1       7.408   5.741  17.694  0.00  0.00    +0.000 C 
ENDROOT
BRANCH   1  10
ATOM      7  O   UNL     1       7.305   5.597  13.861  0.00  0.00    +0.000 OA
ATOM      8  C   UNL     1       6.729   4.645  14.385  0.00  0.00    +0.000 C 
ATOM      9  N   UNL     1       6.429   3.484  13.707  0.00  0.00    +0.000 N 
ATOM     10  N   UNL     1       6.356   4.649  15.702  0.00  0.00    +0.000 N 
ATOM     11  H   UNL     1       5.721   2.899  14.126  0.00  0.00    +0.000 HD
ATOM     12  H   UNL     1       5.597   4.036  15.991  0.00  0.00    +0.000 HD
BRANCH   9  13
ATOM     13  C   UNL     1       6.542   3.505  12.244  0.00  0.00    +0.000 C 
ATOM     14  C   UNL     1       7.029   2.191  11.606  0.00  0.00    +0.000 C 
ATOM     15  C   UNL     1       5.962   1.190  11.155  0.00  0.00    +0.000 C 
ATOM     16  C   UNL     1       4.709   1.838  10.578  0.00  0.00    +0.000 C 
ATOM     17  C   UNL     1       4.190   2.918  11.513  0.00  0.00    +0.000 C 
ATOM     18  C   UNL     1       5.233   4.023  11.631  0.00  0.00    +0.000 C 
ENDBRANCH   9  13
ENDBRANCH   1  10
BRANCH   4  19
ATOM     19  C   UNL     1       4.838   4.241  19.885  0.00  0.00    +0.000 C 
BRANCH  19  20
ATOM     20  C   UNL     1       3.348   4.444  20.155  0.00  0.00    +0.000 C 
ATOM     21  O   UNL     1       2.891   5.462  20.675  0.00  0.00    +0.000 OA
ATOM     22  N   UNL     1       2.525   3.394  19.778  0.00  0.00    +0.000 N 
ATOM     23  C   UNL     1       2.942   2.141  19.138  0.00  0.00    +0.000 C 
ATOM     24  C   UNL     1       2.073   1.850  17.911  0.00  0.00    +0.000 C 
ATOM     25  O   UNL     1       0.679   1.852  18.252  0.00  0.00    +0.000 OA
ATOM     26  C   UNL     1       0.288   3.127  18.787  0.00  0.00    +0.000 C 
ATOM     27  C   UNL     1       1.085   3.463  20.049  0.00  0.00    +0.000 C 
ENDBRANCH  19  20
ENDBRANCH   4  19
BRANCH   6  28
ATOM     28  C   UNL     1       7.879   7.109  18.235  0.00  0.00    +0.000 C 
BRANCH  28  29
ATOM     29  O   UNL     1       7.912   8.100  17.205  0.00  0.00    +0.000 OA
ATOM     30  H   UNL     1       7.033   8.512  17.166  0.00  0.00    +0.000 HD
ENDBRANCH  28  29
ENDBRANCH   6  28
TORSDOF 6
ENDMDL
MODEL 6
REMARK VINA RESULT:      -7.0      7.541      9.547
REMARK  Name = 
REMARK  6 active torsions:
REMARK  status: ('A' for Active; 'I' for Inactive)
REMARK    1  A    between atoms: N_3  and  C_4
REMARK    2  A    between atoms: N_10  and  C_11
REMARK    3  A    between atoms: C_14  and  C_15
REMARK    4  A    between atoms: C_15  and  C_16
REMARK    5  A    between atoms: C_25  and  C_26
REMARK    6  A    between atoms: C_26  and  O_27
REMARK                            x       y       z     vdW  Elec       q    Type
REMARK                         _______ _______ _______ _____ _____    ______ ____
ROOT
ATOM      1  C   UNL     1       0.920  10.517  18.579  0.00  0.00    +0.000 C 
ATOM      2  C   UNL     1      -0.581  10.471  18.577  0.00  0.00    +0.000 C 
ATOM      3  C   UNL     1      -1.293  11.157  19.482  0.00  0.00    +0.000 C 
ATOM      4  C   UNL     1      -0.651  11.981  20.568  0.00  0.00    +0.000 C 
ATOM      5  O   UNL     1       0.780  11.885  20.625  0.00  0.00    +0.000 OA
ATOM      6  C   UNL     1       1.442  11.751  19.356  0.00  0.00    +0.000 C 
ENDROOT
BRANCH   1  10
ATOM      7  O   UNL     1       2.533   8.707  17.284  0.00  0.00    +0.000 OA
ATOM      8  C   UNL     1       2.103   8.396  18.392  0.00  0.00    +0.000 C 
ATOM      9  N   UNL     1       2.341   7.168  18.972  0.00  0.00    +0.000 N 
ATOM     10  N   UNL     1       1.369   9.257  19.162  0.00  0.00    +0.000 N 
ATOM     11  H   UNL     1       1.724   6.910  19.728  0.00  0.00    +0.000 HD
ATOM     12  H   UNL     1       0.751   8.866  19.869  0.00  0.00    +0.000 HD
BRANCH   9  13
ATOM     13  C   UNL     1       2.875   6.106  18.112  0.00  0.00    +0.000 C 
ATOM     14  C   UNL     1       4.401   5.914  18.179  0.00  0.00    +0.000 C 
ATOM     15  C   UNL     1       4.938   4.887  19.180  0.00  0.00    +0.000 C 
ATOM     16  C   UNL     1       4.060   3.651  19.330  0.00  0.00    +0.000 C 
ATOM     17  C   UNL     1       2.613   4.051  19.569  0.00  0.00    +0.000 C 
ATOM     18  C   UNL     1       2.094   4.805  18.351  0.00  0.00    +0.000 C 
ENDBRANCH   9  13
ENDBRANCH   1  10
BRANCH   4  19
ATOM     19  C   UNL     1      -1.178  11.636  21.959  0.00  0.00    +0.000 C 
BRANCH  19  20
ATOM     20  C   UNL     1      -1.350  12.835  22.891  0.00  0.00    +0.000 C 
ATOM     21  O   UNL     1      -0.403  13.423  23.412  0.00  0.00    +0.000 OA
ATOM     22  N   UNL     1      -2.660  13.228  23.122  0.00  0.00    +0.000 N 
ATOM     23  C   UNL     1      -3.869  12.623  22.551  0.00  0.00    +0.000 C 
ATOM     24  C   UNL     1      -4.782  13.702  21.964  0.00  0.00    +0.000 C 
ATOM     25  O   UNL     1      -5.084  14.712  22.939  0.00  0.00    +0.000 OA
ATOM     26  C   UNL     1      -3.881  15.345  23.404  0.00  0.00    +0.000 C 
ATOM     27  C   UNL     1      -2.937  14.329  24.050  0.00  0.00    +0.000 C 
ENDBRANCH  19  20
ENDBRANCH   4  19
BRANCH   6  28
ATOM     28  C   UNL     1       1.347  13.048  18.522  0.00  0.00    +0.000 C 
BRANCH  28  29
ATOM     29  O   UNL     1       2.216  13.009  17.386  0.00  0.00    +0.000 OA
ATOM     30  H   UNL     1       2.900  13.687  17.518  0.00  0.00    +0.000 HD
ENDBRANCH  28  29
ENDBRANCH   6  28
TORSDOF 6
ENDMDL
MODEL 7
REMARK VINA RESULT:      -7.0      2.291      3.355
REMARK  Name = 
REMARK  6 active torsions:
REMARK  status: ('A' for Active; 'I' for Inactive)
REMARK    1  A    between atoms: N_3  and  C_4
REMARK    2  A    between atoms: N_10  and  C_11
REMARK    3  A    between atoms: C_14  and  C_15
REMARK    4  A    between atoms: C_15  and  C_16
REMARK    5  A    between atoms: C_25  and  C_26
REMARK    6  A    between atoms: C_26  and  O_27
REMARK                            x       y       z     vdW  Elec       q    Type
REMARK                         _______ _______ _______ _____ _____    ______ ____
ROOT
ATOM      1  C   UNL     1       7.022   5.413  16.922  0.00  0.00    +0.000 C 
ATOM      2  C   UNL     1       6.268   6.656  16.545  0.00  0.00    +0.000 C 
ATOM      3  C   UNL     1       5.235   7.087  17.281  0.00  0.00    +0.000 C 
ATOM      4  C   UNL     1       4.739   6.349  18.499  0.00  0.00    +0.000 C 
ATOM      5  O   UNL     1       5.391   5.094  18.744  0.00  0.00    +0.000 OA
ATOM      6  C   UNL     1       6.788   5.046  18.409  0.00  0.00    +0.000 C 
ENDROOT
BRANCH   1  10
ATOM      7  O   UNL     1       7.604   5.355  14.237  0.00  0.00    +0.000 OA
ATOM      8  C   UNL     1       6.853   4.486  14.675  0.00  0.00    +0.000 C 
ATOM      9  N   UNL     1       6.250   3.541  13.874  0.00  0.00    +0.000 N 
ATOM     10  N   UNL     1       6.571   4.367  16.009  0.00  0.00    +0.000 N 
ATOM     11  H   UNL     1       5.451   3.070  14.273  0.00  0.00    +0.000 HD
ATOM     12  H   UNL     1       5.708   3.902  16.281  0.00  0.00    +0.000 HD
BRANCH   9  13
ATOM     13  C   UNL     1       6.279   3.764  12.425  0.00  0.00    +0.000 C 
ATOM     14  C   UNL     1       7.608   3.408  11.733  0.00  0.00    +0.000 C 
ATOM     15  C   UNL     1       7.748   1.995  11.161  0.00  0.00    +0.000 C 
ATOM     16  C   UNL     1       6.462   1.442  10.558  0.00  0.00    +0.000 C 
ATOM     17  C   UNL     1       5.304   1.606  11.528  0.00  0.00    +0.000 C 
ATOM     18  C   UNL     1       5.062   3.090  11.773  0.00  0.00    +0.000 C 
ENDBRANCH   9  13
ENDBRANCH   1  10
BRANCH   4  19
ATOM     19  C   UNL     1       3.238   6.072  18.450  0.00  0.00    +0.000 C 
BRANCH  19  20
ATOM     20  C   UNL     1       2.431   6.745  19.559  0.00  0.00    +0.000 C 
ATOM     21  O   UNL     1       2.355   6.297  20.703  0.00  0.00    +0.000 OA
ATOM     22  N   UNL     1       1.772   7.910  19.195  0.00  0.00    +0.000 N 
ATOM     23  C   UNL     1       1.795   8.553  17.875  0.00  0.00    +0.000 C 
ATOM     24  C   UNL     1       2.107  10.046  18.012  0.00  0.00    +0.000 C 
ATOM     25  O   UNL     1       1.193  10.685  18.916  0.00  0.00    +0.000 OA
ATOM     26  C   UNL     1       1.269  10.089  20.221  0.00  0.00    +0.000 C 
ATOM     27  C   UNL     1       0.920   8.600  20.169  0.00  0.00    +0.000 C 
ENDBRANCH  19  20
ENDBRANCH   4  19
BRANCH   6  28
ATOM     28  C   UNL     1       7.635   5.916  19.364  0.00  0.00    +0.000 C 
BRANCH  28  29
ATOM     29  O   UNL     1       7.963   5.215  20.566  0.00  0.00    +0.000 OA
ATOM     30  H   UNL     1       7.693   5.773  21.314  0.00  0.00    +0.000 HD
ENDBRANCH  28  29
ENDBRANCH   6  28
TORSDOF 6
ENDMDL
MODEL 8
REMARK VINA RESULT:      -7.0      3.732      6.862
REMARK  Name = 
REMARK  6 active torsions:
REMARK  status: ('A' for Active; 'I' for Inactive)
REMARK    1  A    between atoms: N_3  and  C_4
REMARK    2  A    between atoms: N_10  and  C_11
REMARK    3  A    between atoms: C_14  and  C_15
REMARK    4  A    between atoms: C_15  and  C_16
REMARK    5  A    between atoms: C_25  and  C_26
REMARK    6  A    between atoms: C_26  and  O_27
REMARK                            x       y       z     vdW  Elec       q    Type
REMARK                         _______ _______ _______ _____ _____    ______ ____
ROOT
ATOM      1  C   UNL     1       7.492   6.549  17.226  0.00  0.00    +0.000 C 
ATOM      2  C   UNL     1       7.508   5.139  17.742  0.00  0.00    +0.000 C 
ATOM      3  C   UNL     1       6.407   4.584  18.268  0.00  0.00    +0.000 C 
ATOM      4  C   UNL     1       5.106   5.333  18.410  0.00  0.00    +0.000 C 
ATOM      5  O   UNL     1       5.170   6.718  18.039  0.00  0.00    +0.000 OA
ATOM      6  C   UNL     1       6.046   7.025  16.940  0.00  0.00    +0.000 C 
ENDROOT
BRANCH   1  10
ATOM      7  O   UNL     1       7.367   9.293  17.323  0.00  0.00    +0.000 OA
ATOM      8  C   UNL     1       8.094   8.727  18.136  0.00  0.00    +0.000 C 
ATOM      9  N   UNL     1       8.887   9.407  19.036  0.00  0.00    +0.000 N 
ATOM     10  N   UNL     1       8.160   7.363  18.236  0.00  0.00    +0.000 N 
ATOM     11  H   UNL     1       9.640   8.877  19.448  0.00  0.00    +0.000 HD
ATOM     12  H   UNL     1       8.997   6.948  18.639  0.00  0.00    +0.000 HD
BRANCH   9  13
ATOM     13  C   UNL     1       9.083  10.844  18.814  0.00  0.00    +0.000 C 
ATOM     14  C   UNL     1       9.170  11.698  20.092  0.00  0.00    +0.000 C 
ATOM     15  C   UNL     1      10.564  11.958  20.671  0.00  0.00    +0.000 C 
ATOM     16  C   UNL     1      11.647  12.145  19.616  0.00  0.00    +0.000 C 
ATOM     17  C   UNL     1      11.599  11.018  18.597  0.00  0.00    +0.000 C 
ATOM     18  C   UNL     1      10.266  11.064  17.860  0.00  0.00    +0.000 C 
ENDBRANCH   9  13
ENDBRANCH   1  10
BRANCH   4  19
ATOM     19  C   UNL     1       4.545   5.275  19.829  0.00  0.00    +0.000 C 
BRANCH  19  20
ATOM     20  C   UNL     1       3.025   5.135  19.906  0.00  0.00    +0.000 C 
ATOM     21  O   UNL     1       2.266   6.097  20.018  0.00  0.00    +0.000 OA
ATOM     22  N   UNL     1       2.541   3.836  19.845  0.00  0.00    +0.000 N 
ATOM     23  C   UNL     1       3.337   2.612  19.696  0.00  0.00    +0.000 C 
ATOM     24  C   UNL     1       2.766   1.734  18.579  0.00  0.00    +0.000 C 
ATOM     25  O   UNL     1       1.374   1.458  18.798  0.00  0.00    +0.000 OA
ATOM     26  C   UNL     1       0.616   2.678  18.843  0.00  0.00    +0.000 C 
ATOM     27  C   UNL     1       1.102   3.588  19.973  0.00  0.00    +0.000 C 
ENDBRANCH  19  20
ENDBRANCH   4  19
BRANCH   6  28
ATOM     28  C   UNL     1       5.503   6.470  15.605  0.00  0.00    +0.000 C 
BRANCH  28  29
ATOM     29  O   UNL     1       6.533   5.843  14.836  0.00  0.00    +0.000 OA
ATOM     30  H   UNL     1       7.170   5.456  15.461  0.00  0.00    +0.000 HD
ENDBRANCH  28  29
ENDBRANCH   6  28
TORSDOF 6
ENDMDL
MODEL 9
REMARK VINA RESULT:      -6.9      3.273      8.219
REMARK  Name = 
REMARK  6 active torsions:
REMARK  status: ('A' for Active; 'I' for Inactive)
REMARK    1  A    between atoms: N_3  and  C_4
REMARK    2  A    between atoms: N_10  and  C_11
REMARK    3  A    between atoms: C_14  and  C_15
REMARK    4  A    between atoms: C_15  and  C_16
REMARK    5  A    between atoms: C_25  and  C_26
REMARK    6  A    between atoms: C_26  and  O_27
REMARK                            x       y       z     vdW  Elec       q    Type
REMARK                         _______ _______ _______ _____ _____    ______ ____
ROOT
ATOM      1  C   UNL     1       1.733   4.935  20.970  0.00  0.00    +0.000 C 
ATOM      2  C   UNL     1       0.821   4.575  19.833  0.00  0.00    +0.000 C 
ATOM      3  C   UNL     1       1.265   3.854  18.794  0.00  0.00    +0.000 C 
ATOM      4  C   UNL     1       2.695   3.392  18.676  0.00  0.00    +0.000 C 
ATOM      5  O   UNL     1       3.567   3.875  19.708  0.00  0.00    +0.000 OA
ATOM      6  C   UNL     1       2.972   4.006  21.010  0.00  0.00    +0.000 C 
ENDROOT
BRANCH   1  10
ATOM      7  O   UNL     1      -0.031   7.024  21.245  0.00  0.00    +0.000 OA
ATOM      8  C   UNL     1       1.108   7.287  20.865  0.00  0.00    +0.000 C 
ATOM      9  N   UNL     1       1.508   8.559  20.514  0.00  0.00    +0.000 N 
ATOM     10  N   UNL     1       2.090   6.337  20.782  0.00  0.00    +0.000 N 
ATOM     11  H   UNL     1       2.347   8.618  19.956  0.00  0.00    +0.000 HD
ATOM     12  H   UNL     1       2.869   6.502  20.149  0.00  0.00    +0.000 HD
BRANCH   9  13
ATOM     13  C   UNL     1       0.461   9.566  20.312  0.00  0.00    +0.000 C 
ATOM     14  C   UNL     1       0.540  10.789  21.245  0.00  0.00    +0.000 C 
ATOM     15  C   UNL     1       1.316  12.008  20.741  0.00  0.00    +0.000 C 
ATOM     16  C   UNL     1       1.167  12.264  19.247  0.00  0.00    +0.000 C 
ATOM     17  C   UNL     1       1.434  10.991  18.459  0.00  0.00    +0.000 C 
ATOM     18  C   UNL     1       0.388   9.946  18.826  0.00  0.00    +0.000 C 
ENDBRANCH   9  13
ENDBRANCH   1  10
BRANCH   4  19
ATOM     19  C   UNL     1       3.329   3.771  17.340  0.00  0.00    +0.000 C 
BRANCH  19  20
ATOM     20  C   UNL     1       3.800   5.222  17.249  0.00  0.00    +0.000 C 
ATOM     21  O   UNL     1       3.079   6.182  17.517  0.00  0.00    +0.000 OA
ATOM     22  N   UNL     1       5.112   5.399  16.834  0.00  0.00    +0.000 N 
ATOM     23  C   UNL     1       6.075   4.342  16.501  0.00  0.00    +0.000 C 
ATOM     24  C   UNL     1       7.403   4.580  17.225  0.00  0.00    +0.000 C 
ATOM     25  O   UNL     1       7.915   5.893  16.949  0.00  0.00    +0.000 OA
ATOM     26  C   UNL     1       6.984   6.901  17.376  0.00  0.00    +0.000 C 
ATOM     27  C   UNL     1       5.643   6.754  16.654  0.00  0.00    +0.000 C 
ENDBRANCH  19  20
ENDBRANCH   4  19
BRANCH   6  28
ATOM     28  C   UNL     1       2.648   2.629  21.632  0.00  0.00    +0.000 C 
BRANCH  28  29
ATOM     29  O   UNL     1       1.453   2.672  22.416  0.00  0.00    +0.000 OA
ATOM     30  H   UNL     1       0.772   3.122  21.887  0.00  0.00    +0.000 HD
ENDBRANCH  28  29
ENDBRANCH   6  28
TORSDOF 6
ENDMDL
