MODEL 1
REMARK VINA RESULT:      -9.1      0.000      0.000
REMARK  Name = 
REMARK  9 active torsions:
REMARK  status: ('A' for Active; 'I' for Inactive)
REMARK    1  A    between atoms: C_1  and  N_2
REMARK    2  A    between atoms: N_2  and  C_3
REMARK    3  A    between atoms: N_2  and  C_4
REMARK    4  A    between atoms: C_4  and  C_5
REMARK    5  A    between atoms: C_7  and  C_8
REMARK    6  A    between atoms: C_14  and  C_15
REMARK    7  A    between atoms: C_15  and  O_16
REMARK    8  A    between atoms: C_15  and  C_17
REMARK    9  A    between atoms: C_15  and  C_23
REMARK                            x       y       z     vdW  Elec       q    Type
REMARK                         _______ _______ _______ _____ _____    ______ ____
ROOT
ATOM      1  C   UNL     1       5.356   5.727  16.172  0.00  0.00    +0.000 C 
ENDROOT
BRANCH   1   7
ATOM      2  C   UNL     1       3.302   5.710  17.864  0.00  0.00    +0.000 A 
ATOM      3  C   UNL     1       2.271   4.974  18.504  0.00  0.00    +0.000 A 
ATOM      4  C   UNL     1       2.169   3.583  18.407  0.00  0.00    +0.000 A 
ATOM      5  C   UNL     1       3.094   2.910  17.613  0.00  0.00    +0.000 A 
ATOM      6  C   UNL     1       4.098   3.614  16.941  0.00  0.00    +0.000 A 
ATOM      7  C   UNL     1       4.227   5.025  17.014  0.00  0.00    +0.000 A 
BRANCH   4   8
ATOM      8  C   UNL     1       1.116   2.814  19.166  0.00  0.00    +0.000 C 
ATOM      9  F   UNL     1       0.227   2.160  18.368  0.00  0.00    +0.000 F 
ATOM     10  F   UNL     1       1.650   1.866  19.985  0.00  0.00    +0.000 F 
ATOM     11  F   UNL     1       0.366   3.620  19.970  0.00  0.00    +0.000 F 
ENDBRANCH   4   8
BRANCH   2  12
ATOM     12  C   UNL     1       3.327   7.216  18.103  0.00  0.00    +0.000 C 
BRANCH  12  14
ATOM     13  C   UNL     1       1.902   8.086  19.896  0.00  0.00    +0.000 C 
ATOM     14  N   UNL     1       2.032   7.848  18.454  0.00  0.00    +0.000 NA
ATOM     15  C   UNL     1       1.924   9.137  17.756  0.00  0.00    +0.000 C 
ENDBRANCH  12  14
ENDBRANCH   2  12
ENDBRANCH   1   7
BRANCH   1  16
ATOM     16  C   UNL     1       6.503   6.234  17.098  0.00  0.00    +0.000 A 
ATOM     17  C   UNL     1       7.059   5.431  18.114  0.00  0.00    +0.000 A 
ATOM     18  C   UNL     1       7.986   5.944  19.030  0.00  0.00    +0.000 A 
ATOM     19  C   UNL     1       8.435   7.253  18.913  0.00  0.00    +0.000 A 
ATOM     20  C   UNL     1       7.962   8.051  17.879  0.00  0.00    +0.000 A 
ATOM     21  C   UNL     1       6.997   7.553  16.997  0.00  0.00    +0.000 A 
ENDBRANCH   1  16
BRANCH   1  22
ATOM     22  C   UNL     1       5.812   4.969  14.902  0.00  0.00    +0.000 A 
ATOM     23  C   UNL     1       4.954   4.179  14.118  0.00  0.00    +0.000 A 
ATOM     24  C   UNL     1       5.396   3.567  12.939  0.00  0.00    +0.000 A 
ATOM     25  C   UNL     1       6.696   3.773  12.487  0.00  0.00    +0.000 A 
ATOM     26  C   UNL     1       7.560   4.575  13.223  0.00  0.00    +0.000 A 
ATOM     27  C   UNL     1       7.127   5.156  14.418  0.00  0.00    +0.000 A 
ENDBRANCH   1  22
BRANCH   1  28
ATOM     28  O   UNL     1       4.800   6.915  15.548  0.00  0.00    +0.000 OA
ATOM     29  H   UNL     1       5.498   7.577  15.495  0.00  0.00    +0.000 HD
ENDBRANCH   1  28
TORSDOF 7
ENDMDL
MODEL 2
REMARK VINA RESULT:      -8.7      0.125      1.155
REMARK  Name = 
REMARK  9 active torsions:
REMARK  status: ('A' for Active; 'I' for Inactive)
REMARK    1  A    between atoms: C_1  and  N_2
REMARK    2  A    between atoms: N_2  and  C_3
REMARK    3  A    between atoms: N_2  and  C_4
REMARK    4  A    between atoms: C_4  and  C_5
REMARK    5  A    between atoms: C_7  and  C_8
REMARK    6  A    between atoms: C_14  and  C_15
REMARK    7  A    between atoms: C_15  and  O_16
REMARK    8  A    between atoms: C_15  and  C_17
REMARK    9  A    between atoms: C_15  and  C_23
REMARK                            x       y       z     vdW  Elec       q    Type
REMARK                         _______ _______ _______ _____ _____    ______ ____
ROOT
ATOM      1  C   UNL     1       5.321   5.823  16.222  0.00  0.00    +0.000 C 
ENDROOT
BRANCH   1   7
ATOM      2  C   UNL     1       3.287   5.743  17.936  0.00  0.00    +0.000 A 
ATOM      3  C   UNL     1       2.270   4.982  18.568  0.00  0.00    +0.000 A 
ATOM      4  C   UNL     1       2.178   3.594  18.436  0.00  0.00    +0.000 A 
ATOM      5  C   UNL     1       3.099   2.950  17.613  0.00  0.00    +0.000 A 
ATOM      6  C   UNL     1       4.090   3.679  16.949  0.00  0.00    +0.000 A 
ATOM      7  C   UNL     1       4.207   5.089  17.058  0.00  0.00    +0.000 A 
BRANCH   4   8
ATOM      8  C   UNL     1       1.141   2.795  19.185  0.00  0.00    +0.000 C 
ATOM      9  F   UNL     1       1.661   1.806  19.964  0.00  0.00    +0.000 F 
ATOM     10  F   UNL     1       0.385   3.566  20.015  0.00  0.00    +0.000 F 
ATOM     11  F   UNL     1       0.259   2.178  18.347  0.00  0.00    +0.000 F 
ENDBRANCH   4   8
BRANCH   2  12
ATOM     12  C   UNL     1       3.302   7.243  18.215  0.00  0.00    +0.000 C 
BRANCH  12  14
ATOM     13  C   UNL     1       1.835   8.150  19.955  0.00  0.00    +0.000 C 
ATOM     14  N   UNL     1       1.993   7.868  18.524  0.00  0.00    +0.000 NA
ATOM     15  C   UNL     1       1.880   9.132  17.783  0.00  0.00    +0.000 C 
ENDBRANCH  12  14
ENDBRANCH   2  12
ENDBRANCH   1   7
BRANCH   1  16
ATOM     16  C   UNL     1       6.486   6.295  17.145  0.00  0.00    +0.000 A 
ATOM     17  C   UNL     1       7.033   5.468  18.147  0.00  0.00    +0.000 A 
ATOM     18  C   UNL     1       7.977   5.950  19.061  0.00  0.00    +0.000 A 
ATOM     19  C   UNL     1       8.452   7.252  18.957  0.00  0.00    +0.000 A 
ATOM     20  C   UNL     1       7.987   8.072  17.937  0.00  0.00    +0.000 A 
ATOM     21  C   UNL     1       7.005   7.605  17.056  0.00  0.00    +0.000 A 
ENDBRANCH   1  16
BRANCH   1  22
ATOM     22  C   UNL     1       5.754   5.114  14.916  0.00  0.00    +0.000 A 
ATOM     23  C   UNL     1       7.080   5.085  14.450  0.00  0.00    +0.000 A 
ATOM     24  C   UNL     1       7.435   4.374  13.298  0.00  0.00    +0.000 A 
ATOM     25  C   UNL     1       6.481   3.630  12.611  0.00  0.00    +0.000 A 
ATOM     26  C   UNL     1       5.167   3.612  13.064  0.00  0.00    +0.000 A 
ATOM     27  C   UNL     1       4.807   4.351  14.194  0.00  0.00    +0.000 A 
ENDBRANCH   1  22
BRANCH   1  28
ATOM     28  O   UNL     1       4.754   7.034  15.655  0.00  0.00    +0.000 OA
ATOM     29  H   UNL     1       3.940   7.232  16.130  0.00  0.00    +0.000 HD
ENDBRANCH   1  28
TORSDOF 7
ENDMDL
MODEL 3
REMARK VINA RESULT:      -8.5      0.236      1.486
REMARK  Name = 
REMARK  9 active torsions:
REMARK  status: ('A' for Active; 'I' for Inactive)
REMARK    1  A    between atoms: C_1  and  N_2
REMARK    2  A    between atoms: N_2  and  C_3
REMARK    3  A    between atoms: N_2  and  C_4
REMARK    4  A    between atoms: C_4  and  C_5
REMARK    5  A    between atoms: C_7  and  C_8
REMARK    6  A    between atoms: C_14  and  C_15
REMARK    7  A    between atoms: C_15  and  O_16
REMARK    8  A    between atoms: C_15  and  C_17
REMARK    9  A    between atoms: C_15  and  C_23
REMARK                            x       y       z     vdW  Elec       q    Type
REMARK                         _______ _______ _______ _____ _____    ______ ____
ROOT
ATOM      1  C   UNL     1       5.214   5.887  16.335  0.00  0.00    +0.000 C 
ENDROOT
BRANCH   1   7
ATOM      2  C   UNL     1       3.196   5.732  18.062  0.00  0.00    +0.000 A 
ATOM      3  C   UNL     1       2.184   4.944  18.669  0.00  0.00    +0.000 A 
ATOM      4  C   UNL     1       2.091   3.562  18.478  0.00  0.00    +0.000 A 
ATOM      5  C   UNL     1       3.005   2.955  17.620  0.00  0.00    +0.000 A 
ATOM      6  C   UNL     1       3.990   3.713  16.978  0.00  0.00    +0.000 A 
ATOM      7  C   UNL     1       4.108   5.117  17.148  0.00  0.00    +0.000 A 
BRANCH   4   8
ATOM      8  C   UNL     1       1.061   2.731  19.201  0.00  0.00    +0.000 C 
ATOM      9  F   UNL     1       0.283   3.443  20.063  0.00  0.00    +0.000 F 
ATOM     10  F   UNL     1       0.201   2.106  18.351  0.00  0.00    +0.000 F 
ATOM     11  F   UNL     1       1.628   1.742  19.949  0.00  0.00    +0.000 F 
ENDBRANCH   4   8
BRANCH   2  12
ATOM     12  C   UNL     1       3.213   7.218  18.404  0.00  0.00    +0.000 C 
BRANCH  12  14
ATOM     13  C   UNL     1       1.689   8.235  20.032  0.00  0.00    +0.000 C 
ATOM     14  N   UNL     1       1.893   7.857  18.629  0.00  0.00    +0.000 NA
ATOM     15  C   UNL     1       1.801   9.067  17.801  0.00  0.00    +0.000 C 
ENDBRANCH  12  14
ENDBRANCH   2  12
ENDBRANCH   1   7
BRANCH   1  16
ATOM     16  C   UNL     1       6.330   6.419  17.284  0.00  0.00    +0.000 A 
ATOM     17  C   UNL     1       6.876   7.711  17.150  0.00  0.00    +0.000 A 
ATOM     18  C   UNL     1       7.975   8.127  17.912  0.00  0.00    +0.000 A 
ATOM     19  C   UNL     1       8.514   7.287  18.879  0.00  0.00    +0.000 A 
ATOM     20  C   UNL     1       7.954   6.033  19.087  0.00  0.00    +0.000 A 
ATOM     21  C   UNL     1       6.891   5.600  18.288  0.00  0.00    +0.000 A 
ENDBRANCH   1  16
BRANCH   1  22
ATOM     22  C   UNL     1       5.714   5.181  15.051  0.00  0.00    +0.000 A 
ATOM     23  C   UNL     1       7.067   5.121  14.673  0.00  0.00    +0.000 A 
ATOM     24  C   UNL     1       7.479   4.413  13.538  0.00  0.00    +0.000 A 
ATOM     25  C   UNL     1       6.553   3.703  12.781  0.00  0.00    +0.000 A 
ATOM     26  C   UNL     1       5.212   3.716  13.145  0.00  0.00    +0.000 A 
ATOM     27  C   UNL     1       4.798   4.452  14.258  0.00  0.00    +0.000 A 
ENDBRANCH   1  22
BRANCH   1  28
ATOM     28  O   UNL     1       4.614   7.066  15.735  0.00  0.00    +0.000 OA
ATOM     29  H   UNL     1       5.208   7.384  15.046  0.00  0.00    +0.000 HD
ENDBRANCH   1  28
TORSDOF 7
ENDMDL
MODEL 4
REMARK VINA RESULT:      -8.1      3.293      4.799
REMARK  Name = 
REMARK  9 active torsions:
REMARK  status: ('A' for Active; 'I' for Inactive)
REMARK    1  A    between atoms: C_1  and  N_2
REMARK    2  A    between atoms: N_2  and  C_3
REMARK    3  A    between atoms: N_2  and  C_4
REMARK    4  A    between atoms: C_4  and  C_5
REMARK    5  A    between atoms: C_7  and  C_8
REMARK    6  A    between atoms: C_14  and  C_15
REMARK    7  A    between atoms: C_15  and  O_16
REMARK    8  A    between atoms: C_15  and  C_17
REMARK    9  A    between atoms: C_15  and  C_23
REMARK                            x       y       z     vdW  Elec       q    Type
REMARK                         _______ _______ _______ _____ _____    ______ ____
ROOT
ATOM      1  C   UNL     1       4.315   5.570  17.733  0.00  0.00    +0.000 C 
ENDROOT
BRANCH   1   7
ATOM      2  C   UNL     1       2.675   6.436  19.641  0.00  0.00    +0.000 A 
ATOM      3  C   UNL     1       1.830   7.465  20.131  0.00  0.00    +0.000 A 
ATOM      4  C   UNL     1       1.496   8.589  19.371  0.00  0.00    +0.000 A 
ATOM      5  C   UNL     1       2.057   8.715  18.102  0.00  0.00    +0.000 A 
ATOM      6  C   UNL     1       2.924   7.735  17.609  0.00  0.00    +0.000 A 
ATOM      7  C   UNL     1       3.286   6.584  18.357  0.00  0.00    +0.000 A 
BRANCH   4   8
ATOM      8  C   UNL     1       0.526   9.627  19.878  0.00  0.00    +0.000 C 
ATOM      9  F   UNL     1       1.124  10.733  20.402  0.00  0.00    +0.000 F 
ATOM     10  F   UNL     1      -0.312  10.081  18.906  0.00  0.00    +0.000 F 
ATOM     11  F   UNL     1      -0.279   9.142  20.866  0.00  0.00    +0.000 F 
ENDBRANCH   4   8
BRANCH   2  12
ATOM     12  C   UNL     1       2.908   5.238  20.557  0.00  0.00    +0.000 C 
BRANCH  12  14
ATOM     13  C   UNL     1       0.836   4.084  19.942  0.00  0.00    +0.000 C 
ATOM     14  N   UNL     1       1.696   4.534  21.042  0.00  0.00    +0.000 NA
ATOM     15  C   UNL     1       2.105   3.361  21.825  0.00  0.00    +0.000 C 
ENDBRANCH  12  14
ENDBRANCH   2  12
ENDBRANCH   1   7
BRANCH   1  16
ATOM     16  C   UNL     1       5.780   6.009  18.036  0.00  0.00    +0.000 A 
ATOM     17  C   UNL     1       6.530   5.447  19.089  0.00  0.00    +0.000 A 
ATOM     18  C   UNL     1       7.789   5.948  19.442  0.00  0.00    +0.000 A 
ATOM     19  C   UNL     1       8.363   6.980  18.709  0.00  0.00    +0.000 A 
ATOM     20  C   UNL     1       7.682   7.508  17.620  0.00  0.00    +0.000 A 
ATOM     21  C   UNL     1       6.402   7.042  17.301  0.00  0.00    +0.000 A 
ENDBRANCH   1  16
BRANCH   1  22
ATOM     22  C   UNL     1       4.007   4.072  17.972  0.00  0.00    +0.000 A 
ATOM     23  C   UNL     1       4.615   3.305  18.983  0.00  0.00    +0.000 A 
ATOM     24  C   UNL     1       4.255   1.971  19.206  0.00  0.00    +0.000 A 
ATOM     25  C   UNL     1       3.240   1.384  18.455  0.00  0.00    +0.000 A 
ATOM     26  C   UNL     1       2.599   2.125  17.469  0.00  0.00    +0.000 A 
ATOM     27  C   UNL     1       2.984   3.446  17.226  0.00  0.00    +0.000 A 
ENDBRANCH   1  22
BRANCH   1  28
ATOM     28  O   UNL     1       4.185   5.607  16.287  0.00  0.00    +0.000 OA
ATOM     29  H   UNL     1       5.037   5.365  15.906  0.00  0.00    +0.000 HD
ENDBRANCH   1  28
TORSDOF 7
ENDMDL
MODEL 5
REMARK VINA RESULT:      -8.1      3.180      6.311
REMARK  Name = 
REMARK  9 active torsions:
REMARK  status: ('A' for Active; 'I' for Inactive)
REMARK    1  A    between atoms: C_1  and  N_2
REMARK    2  A    between atoms: N_2  and  C_3
REMARK    3  A    between atoms: N_2  and  C_4
REMARK    4  A    between atoms: C_4  and  C_5
REMARK    5  A    between atoms: C_7  and  C_8
REMARK    6  A    between atoms: C_14  and  C_15
REMARK    7  A    between atoms: C_15  and  O_16
REMARK    8  A    between atoms: C_15  and  C_17
REMARK    9  A    between atoms: C_15  and  C_23
REMARK                            x       y       z     vdW  Elec       q    Type
REMARK                         _______ _______ _______ _____ _____    ______ ____
ROOT
ATOM      1  C   UNL     1       3.560   5.627  18.976  0.00  0.00    +0.000 C 
ENDROOT
BRANCH   1   7
ATOM      2  C   UNL     1       5.322   5.991  17.016  0.00  0.00    +0.000 A 
ATOM      3  C   UNL     1       5.886   5.529  15.798  0.00  0.00    +0.000 A 
ATOM      4  C   UNL     1       5.353   4.452  15.084  0.00  0.00    +0.000 A 
ATOM      5  C   UNL     1       4.253   3.787  15.621  0.00  0.00    +0.000 A 
ATOM      6  C   UNL     1       3.700   4.197  16.838  0.00  0.00    +0.000 A 
ATOM      7  C   UNL     1       4.220   5.283  17.590  0.00  0.00    +0.000 A 
BRANCH   4   8
ATOM      8  C   UNL     1       5.916   4.033  13.748  0.00  0.00    +0.000 C 
ATOM      9  F   UNL     1       6.915   4.839  13.292  0.00  0.00    +0.000 F 
ATOM     10  F   UNL     1       6.433   2.773  13.770  0.00  0.00    +0.000 F 
ATOM     11  F   UNL     1       4.969   4.029  12.767  0.00  0.00    +0.000 F 
ENDBRANCH   4   8
BRANCH   2  12
ATOM     12  C   UNL     1       5.971   7.212  17.658  0.00  0.00    +0.000 C 
BRANCH  12  14
ATOM     13  C   UNL     1       7.986   8.591  17.861  0.00  0.00    +0.000 C 
ATOM     14  N   UNL     1       7.454   7.236  17.678  0.00  0.00    +0.000 NA
ATOM     15  C   UNL     1       7.931   6.394  18.784  0.00  0.00    +0.000 C 
ENDBRANCH  12  14
ENDBRANCH   2  12
ENDBRANCH   1   7
BRANCH   1  16
ATOM     16  C   UNL     1       2.724   6.940  18.882  0.00  0.00    +0.000 A 
ATOM     17  C   UNL     1       2.600   7.666  17.681  0.00  0.00    +0.000 A 
ATOM     18  C   UNL     1       1.969   8.915  17.641  0.00  0.00    +0.000 A 
ATOM     19  C   UNL     1       1.384   9.442  18.786  0.00  0.00    +0.000 A 
ATOM     20  C   UNL     1       1.425   8.719  19.971  0.00  0.00    +0.000 A 
ATOM     21  C   UNL     1       2.102   7.495  20.021  0.00  0.00    +0.000 A 
ENDBRANCH   1  16
BRANCH   1  22
ATOM     22  C   UNL     1       2.866   4.447  19.698  0.00  0.00    +0.000 A 
ATOM     23  C   UNL     1       3.529   3.579  20.583  0.00  0.00    +0.000 A 
ATOM     24  C   UNL     1       2.844   2.567  21.266  0.00  0.00    +0.000 A 
ATOM     25  C   UNL     1       1.467   2.431  21.120  0.00  0.00    +0.000 A 
ATOM     26  C   UNL     1       0.777   3.293  20.276  0.00  0.00    +0.000 A 
ATOM     27  C   UNL     1       1.468   4.280  19.569  0.00  0.00    +0.000 A 
ENDBRANCH   1  22
BRANCH   1  28
ATOM     28  O   UNL     1       4.615   5.901  19.937  0.00  0.00    +0.000 OA
ATOM     29  H   UNL     1       4.280   5.685  20.815  0.00  0.00    +0.000 HD
ENDBRANCH   1  28
TORSDOF 7
ENDMDL
MODEL 6
REMARK VINA RESULT:      -7.9      3.342      4.871
REMARK  Name = 
REMARK  9 active torsions:
REMARK  status: ('A' for Active; 'I' for Inactive)
REMARK    1  A    between atoms: C_1  and  N_2
REMARK    2  A    between atoms: N_2  and  C_3
REMARK    3  A    between atoms: N_2  and  C_4
REMARK    4  A    between atoms: C_4  and  C_5
REMARK    5  A    between atoms: C_7  and  C_8
REMARK    6  A    between atoms: C_14  and  C_15
REMARK    7  A    between atoms: C_15  and  O_16
REMARK    8  A    between atoms: C_15  and  C_17
REMARK    9  A    between atoms: C_15  and  C_23
REMARK                            x       y       z     vdW  Elec       q    Type
REMARK                         _______ _______ _______ _____ _____    ______ ____
ROOT
ATOM      1  C   UNL     1       4.205   5.676  17.842  0.00  0.00    +0.000 C 
ENDROOT
BRANCH   1   7
ATOM      2  C   UNL     1       2.556   6.443  19.784  0.00  0.00    +0.000 A 
ATOM      3  C   UNL     1       1.689   7.436  20.310  0.00  0.00    +0.000 A 
ATOM      4  C   UNL     1       1.325   8.575  19.587  0.00  0.00    +0.000 A 
ATOM      5  C   UNL     1       1.877   8.754  18.321  0.00  0.00    +0.000 A 
ATOM      6  C   UNL     1       2.763   7.811  17.792  0.00  0.00    +0.000 A 
ATOM      7  C   UNL     1       3.156   6.646  18.502  0.00  0.00    +0.000 A 
BRANCH   4   8
ATOM      8  C   UNL     1       0.334   9.574  20.132  0.00  0.00    +0.000 C 
ATOM      9  F   UNL     1      -0.522  10.069  19.196  0.00  0.00    +0.000 F 
ATOM     10  F   UNL     1      -0.448   9.052  21.117  0.00  0.00    +0.000 F 
ATOM     11  F   UNL     1       0.947  10.662  20.682  0.00  0.00    +0.000 F 
ENDBRANCH   4   8
BRANCH   2  12
ATOM     12  C   UNL     1       2.822   5.223  20.660  0.00  0.00    +0.000 C 
BRANCH  12  14
ATOM     13  C   UNL     1       0.786   4.037  19.987  0.00  0.00    +0.000 C 
ATOM     14  N   UNL     1       1.630   4.462  21.109  0.00  0.00    +0.000 NA
ATOM     15  C   UNL     1       2.073   3.267  21.840  0.00  0.00    +0.000 C 
ENDBRANCH  12  14
ENDBRANCH   2  12
ENDBRANCH   1   7
BRANCH   1  16
ATOM     16  C   UNL     1       5.661   6.124  18.175  0.00  0.00    +0.000 A 
ATOM     17  C   UNL     1       6.334   7.109  17.426  0.00  0.00    +0.000 A 
ATOM     18  C   UNL     1       7.686   7.400  17.643  0.00  0.00    +0.000 A 
ATOM     19  C   UNL     1       8.385   6.763  18.661  0.00  0.00    +0.000 A 
ATOM     20  C   UNL     1       7.732   5.838  19.466  0.00  0.00    +0.000 A 
ATOM     21  C   UNL     1       6.396   5.511  19.213  0.00  0.00    +0.000 A 
ENDBRANCH   1  16
BRANCH   1  22
ATOM     22  C   UNL     1       3.919   4.165  18.012  0.00  0.00    +0.000 A 
ATOM     23  C   UNL     1       4.546   3.359  18.978  0.00  0.00    +0.000 A 
ATOM     24  C   UNL     1       4.205   2.010  19.140  0.00  0.00    +0.000 A 
ATOM     25  C   UNL     1       3.191   1.447  18.372  0.00  0.00    +0.000 A 
ATOM     26  C   UNL     1       2.530   2.225  17.429  0.00  0.00    +0.000 A 
ATOM     27  C   UNL     1       2.896   3.561  17.245  0.00  0.00    +0.000 A 
ENDBRANCH   1  22
BRANCH   1  28
ATOM     28  O   UNL     1       4.085   5.776  16.397  0.00  0.00    +0.000 OA
ATOM     29  H   UNL     1       4.282   4.910  16.022  0.00  0.00    +0.000 HD
ENDBRANCH   1  28
TORSDOF 7
ENDMDL
MODEL 7
REMARK VINA RESULT:      -7.8      3.147      6.176
REMARK  Name = 
REMARK  9 active torsions:
REMARK  status: ('A' for Active; 'I' for Inactive)
REMARK    1  A    between atoms: C_1  and  N_2
REMARK    2  A    between atoms: N_2  and  C_3
REMARK    3  A    between atoms: N_2  and  C_4
REMARK    4  A    between atoms: C_4  and  C_5
REMARK    5  A    between atoms: C_7  and  C_8
REMARK    6  A    between atoms: C_14  and  C_15
REMARK    7  A    between atoms: C_15  and  O_16
REMARK    8  A    between atoms: C_15  and  C_17
REMARK    9  A    between atoms: C_15  and  C_23
REMARK                            x       y       z     vdW  Elec       q    Type
REMARK                         _______ _______ _______ _____ _____    ______ ____
ROOT
ATOM      1  C   UNL     1       3.565   5.688  18.867  0.00  0.00    +0.000 C 
ENDROOT
BRANCH   1   7
ATOM      2  C   UNL     1       5.310   6.005  16.884  0.00  0.00    +0.000 A 
ATOM      3  C   UNL     1       5.859   5.516  15.670  0.00  0.00    +0.000 A 
ATOM      4  C   UNL     1       5.314   4.430  14.981  0.00  0.00    +0.000 A 
ATOM      5  C   UNL     1       4.216   3.781  15.541  0.00  0.00    +0.000 A 
ATOM      6  C   UNL     1       3.676   4.217  16.755  0.00  0.00    +0.000 A 
ATOM      7  C   UNL     1       4.209   5.314  17.481  0.00  0.00    +0.000 A 
BRANCH   4   8
ATOM      8  C   UNL     1       5.862   3.982  13.649  0.00  0.00    +0.000 C 
ATOM      9  F   UNL     1       6.887   4.750  13.187  0.00  0.00    +0.000 F 
ATOM     10  F   UNL     1       6.335   2.706  13.679  0.00  0.00    +0.000 F 
ATOM     11  F   UNL     1       4.914   4.004  12.667  0.00  0.00    +0.000 F 
ENDBRANCH   4   8
BRANCH   2  12
ATOM     12  C   UNL     1       5.972   7.234  17.497  0.00  0.00    +0.000 C 
BRANCH  12  14
ATOM     13  C   UNL     1       8.018   8.541  17.826  0.00  0.00    +0.000 C 
ATOM     14  N   UNL     1       7.452   7.209  17.587  0.00  0.00    +0.000 NA
ATOM     15  C   UNL     1       7.849   6.327  18.693  0.00  0.00    +0.000 C 
ENDBRANCH  12  14
ENDBRANCH   2  12
ENDBRANCH   1   7
BRANCH   1  16
ATOM     16  C   UNL     1       2.826   7.058  18.784  0.00  0.00    +0.000 A 
ATOM     17  C   UNL     1       2.209   7.649  19.905  0.00  0.00    +0.000 A 
ATOM     18  C   UNL     1       1.428   8.805  19.789  0.00  0.00    +0.000 A 
ATOM     19  C   UNL     1       1.298   9.442  18.561  0.00  0.00    +0.000 A 
ATOM     20  C   UNL     1       1.952   8.928  17.449  0.00  0.00    +0.000 A 
ATOM     21  C   UNL     1       2.689   7.743  17.557  0.00  0.00    +0.000 A 
ENDBRANCH   1  16
BRANCH   1  22
ATOM     22  C   UNL     1       2.782   4.553  19.570  0.00  0.00    +0.000 A 
ATOM     23  C   UNL     1       1.427   4.272  19.319  0.00  0.00    +0.000 A 
ATOM     24  C   UNL     1       0.779   3.191  19.928  0.00  0.00    +0.000 A 
ATOM     25  C   UNL     1       1.484   2.333  20.766  0.00  0.00    +0.000 A 
ATOM     26  C   UNL     1       2.832   2.565  21.010  0.00  0.00    +0.000 A 
ATOM     27  C   UNL     1       3.469   3.665  20.429  0.00  0.00    +0.000 A 
ENDBRANCH   1  22
BRANCH   1  28
ATOM     28  O   UNL     1       4.629   5.875  19.839  0.00  0.00    +0.000 OA
ATOM     29  H   UNL     1       4.249   5.774  20.719  0.00  0.00    +0.000 HD
ENDBRANCH   1  28
TORSDOF 7
ENDMDL
MODEL 8
REMARK VINA RESULT:      -7.8      0.520      1.432
REMARK  Name = 
REMARK  9 active torsions:
REMARK  status: ('A' for Active; 'I' for Inactive)
REMARK    1  A    between atoms: C_1  and  N_2
REMARK    2  A    between atoms: N_2  and  C_3
REMARK    3  A    between atoms: N_2  and  C_4
REMARK    4  A    between atoms: C_4  and  C_5
REMARK    5  A    between atoms: C_7  and  C_8
REMARK    6  A    between atoms: C_14  and  C_15
REMARK    7  A    between atoms: C_15  and  O_16
REMARK    8  A    between atoms: C_15  and  C_17
REMARK    9  A    between atoms: C_15  and  C_23
REMARK                            x       y       z     vdW  Elec       q    Type
REMARK                         _______ _______ _______ _____ _____    ______ ____
ROOT
ATOM      1  C   UNL     1       5.211   5.692  16.383  0.00  0.00    +0.000 C 
ENDROOT
BRANCH   1   7
ATOM      2  C   UNL     1       2.863   5.416  17.603  0.00  0.00    +0.000 A 
ATOM      3  C   UNL     1       1.926   4.560  18.240  0.00  0.00    +0.000 A 
ATOM      4  C   UNL     1       2.215   3.229  18.552  0.00  0.00    +0.000 A 
ATOM      5  C   UNL     1       3.457   2.721  18.177  0.00  0.00    +0.000 A 
ATOM      6  C   UNL     1       4.385   3.531  17.515  0.00  0.00    +0.000 A 
ATOM      7  C   UNL     1       4.121   4.884  17.181  0.00  0.00    +0.000 A 
BRANCH   4   8
ATOM      8  C   UNL     1       1.237   2.363  19.306  0.00  0.00    +0.000 C 
ATOM      9  F   UNL     1       0.794   2.914  20.470  0.00  0.00    +0.000 F 
ATOM     10  F   UNL     1       0.121   2.078  18.579  0.00  0.00    +0.000 F 
ATOM     11  F   UNL     1       1.773   1.157  19.650  0.00  0.00    +0.000 F 
ENDBRANCH   4   8
BRANCH   2  12
ATOM     12  C   UNL     1       2.434   6.862  17.376  0.00  0.00    +0.000 C 
BRANCH  12  14
ATOM     13  C   UNL     1       2.444   9.211  18.073  0.00  0.00    +0.000 C 
ATOM     14  N   UNL     1       2.852   7.842  18.408  0.00  0.00    +0.000 NA
ATOM     15  C   UNL     1       2.241   7.474  19.693  0.00  0.00    +0.000 C 
ENDBRANCH  12  14
ENDBRANCH   2  12
ENDBRANCH   1   7
BRANCH   1  16
ATOM     16  C   UNL     1       6.303   6.250  17.345  0.00  0.00    +0.000 A 
ATOM     17  C   UNL     1       6.838   7.546  17.204  0.00  0.00    +0.000 A 
ATOM     18  C   UNL     1       7.917   7.984  17.981  0.00  0.00    +0.000 A 
ATOM     19  C   UNL     1       8.447   7.163  18.970  0.00  0.00    +0.000 A 
ATOM     20  C   UNL     1       7.896   5.906  19.185  0.00  0.00    +0.000 A 
ATOM     21  C   UNL     1       6.852   5.451  18.372  0.00  0.00    +0.000 A 
ENDBRANCH   1  16
BRANCH   1  22
ATOM     22  C   UNL     1       5.742   5.012  15.098  0.00  0.00    +0.000 A 
ATOM     23  C   UNL     1       4.942   4.231  14.245  0.00  0.00    +0.000 A 
ATOM     24  C   UNL     1       5.450   3.691  13.057  0.00  0.00    +0.000 A 
ATOM     25  C   UNL     1       6.758   3.962  12.667  0.00  0.00    +0.000 A 
ATOM     26  C   UNL     1       7.564   4.757  13.473  0.00  0.00    +0.000 A 
ATOM     27  C   UNL     1       7.066   5.266  14.675  0.00  0.00    +0.000 A 
ENDBRANCH   1  22
BRANCH   1  28
ATOM     28  O   UNL     1       4.581   6.858  15.787  0.00  0.00    +0.000 OA
ATOM     29  H   UNL     1       3.661   6.879  16.074  0.00  0.00    +0.000 HD
ENDBRANCH   1  28
TORSDOF 7
ENDMDL
MODEL 9
REMARK VINA RESULT:      -7.5      0.638      1.738
REMARK  Name = 
REMARK  9 active torsions:
REMARK  status: ('A' for Active; 'I' for Inactive)
REMARK    1  A    between atoms: C_1  and  N_2
REMARK    2  A    between atoms: N_2  and  C_3
REMARK    3  A    between atoms: N_2  and  C_4
REMARK    4  A    between atoms: C_4  and  C_5
REMARK    5  A    between atoms: C_7  and  C_8
REMARK    6  A    between atoms: C_14  and  C_15
REMARK    7  A    between atoms: C_15  and  O_16
REMARK    8  A    between atoms: C_15  and  C_17
REMARK    9  A    between atoms: C_15  and  C_23
REMARK                            x       y       z     vdW  Elec       q    Type
REMARK                         _______ _______ _______ _____ _____    ______ ____
ROOT
ATOM      1  C   UNL     1       5.225   5.892  16.505  0.00  0.00    +0.000 C 
ENDROOT
BRANCH   1   7
ATOM      2  C   UNL     1       2.918   5.527  17.780  0.00  0.00    +0.000 A 
ATOM      3  C   UNL     1       2.053   4.649  18.483  0.00  0.00    +0.000 A 
ATOM      4  C   UNL     1       2.440   3.363  18.870  0.00  0.00    +0.000 A 
ATOM      5  C   UNL     1       3.710   2.922  18.507  0.00  0.00    +0.000 A 
ATOM      6  C   UNL     1       4.570   3.752  17.781  0.00  0.00    +0.000 A 
ATOM      7  C   UNL     1       4.206   5.061  17.369  0.00  0.00    +0.000 A 
BRANCH   4   8
ATOM      8  C   UNL     1       1.535   2.479  19.692  0.00  0.00    +0.000 C 
ATOM      9  F   UNL     1       2.076   2.085  20.878  0.00  0.00    +0.000 F 
ATOM     10  F   UNL     1       0.355   3.082  20.002  0.00  0.00    +0.000 F 
ATOM     11  F   UNL     1       1.204   1.329  19.038  0.00  0.00    +0.000 F 
ENDBRANCH   4   8
BRANCH   2  12
ATOM     12  C   UNL     1       2.385   6.923  17.472  0.00  0.00    +0.000 C 
BRANCH  12  14
ATOM     13  C   UNL     1       2.253   9.308  18.016  0.00  0.00    +0.000 C 
ATOM     14  N   UNL     1       2.723   7.987  18.448  0.00  0.00    +0.000 NA
ATOM     15  C   UNL     1       2.100   7.668  19.739  0.00  0.00    +0.000 C 
ENDBRANCH  12  14
ENDBRANCH   2  12
ENDBRANCH   1   7
BRANCH   1  16
ATOM     16  C   UNL     1       6.347   6.497  17.401  0.00  0.00    +0.000 A 
ATOM     17  C   UNL     1       6.858   7.794  17.192  0.00  0.00    +0.000 A 
ATOM     18  C   UNL     1       7.962   8.272  17.909  0.00  0.00    +0.000 A 
ATOM     19  C   UNL     1       8.543   7.494  18.903  0.00  0.00    +0.000 A 
ATOM     20  C   UNL     1       8.019   6.239  19.184  0.00  0.00    +0.000 A 
ATOM     21  C   UNL     1       6.949   5.742  18.432  0.00  0.00    +0.000 A 
ENDBRANCH   1  16
BRANCH   1  22
ATOM     22  C   UNL     1       5.709   5.212  15.202  0.00  0.00    +0.000 A 
ATOM     23  C   UNL     1       7.041   5.252  14.753  0.00  0.00    +0.000 A 
ATOM     24  C   UNL     1       7.447   4.564  13.603  0.00  0.00    +0.000 A 
ATOM     25  C   UNL     1       6.540   3.777  12.901  0.00  0.00    +0.000 A 
ATOM     26  C   UNL     1       5.222   3.692  13.336  0.00  0.00    +0.000 A 
ATOM     27  C   UNL     1       4.812   4.407  14.464  0.00  0.00    +0.000 A 
ENDBRANCH   1  22
BRANCH   1  28
ATOM     28  O   UNL     1       4.527   7.029  15.930  0.00  0.00    +0.000 OA
ATOM     29  H   UNL     1       5.179   7.587  15.491  0.00  0.00    +0.000 HD
ENDBRANCH   1  28
TORSDOF 7
ENDMDL
