MODEL 1
REMARK VINA RESULT:      -7.8      0.000      0.000
REMARK  Name = 
REMARK  5 active torsions:
REMARK  status: ('A' for Active; 'I' for Inactive)
REMARK    1  A    between atoms: C_1  and  C_2
REMARK    2  A    between atoms: C_7  and  C_8
REMARK    3  A    between atoms: C_11  and  C_12
REMARK    4  A    between atoms: N_14  and  C_15
REMARK    5  A    between atoms: C_22  and  C_23
REMARK                            x       y       z     vdW  Elec       q    Type
REMARK                         _______ _______ _______ _____ _____    ______ ____
ROOT
ATOM      1  C   UNL     1      -0.789  12.214  22.460  0.00  0.00    +0.000 C 
ATOM      2  C   UNL     1      -0.131  11.314  21.483  0.00  0.00    +0.000 A 
ATOM      3  N   UNL     1       0.340  11.774  20.281  0.00  0.00    +0.000 N 
ATOM      4  C   UNL     1       0.927  10.760  19.566  0.00  0.00    +0.000 A 
ATOM      5  C   UNL     1       1.538  10.780  18.306  0.00  0.00    +0.000 A 
ATOM      6  C   UNL     1       2.083   9.583  17.830  0.00  0.00    +0.000 A 
ATOM      7  C   UNL     1       2.023   8.407  18.586  0.00  0.00    +0.000 A 
ATOM      8  C   UNL     1       1.381   8.416  19.838  0.00  0.00    +0.000 A 
ATOM      9  C   UNL     1       0.825   9.607  20.340  0.00  0.00    +0.000 A 
ATOM     10  C   UNL     1       0.141   9.955  21.551  0.00  0.00    +0.000 A 
ATOM     11  C   UNL     1      -0.202   9.046  22.675  0.00  0.00    +0.000 C 
ATOM     12  H   UNL     1       0.279  12.729  19.960  0.00  0.00    +0.000 HD
ENDROOT
BRANCH   7  13
ATOM     13  C   UNL     1       2.659   7.180  18.130  0.00  0.00    +0.000 A 
ATOM     14  N   UNL     1       3.906   7.097  17.635  0.00  0.00    +0.000 NA
ATOM     15  O   UNL     1       4.089   5.729  17.435  0.00  0.00    +0.000 OA
ATOM     16  C   UNL     1       2.932   5.117  17.824  0.00  0.00    +0.000 A 
ATOM     17  N   UNL     1       2.025   5.965  18.251  0.00  0.00    +0.000 NA
BRANCH  16  18
ATOM     18  C   UNL     1       2.874   3.624  17.769  0.00  0.00    +0.000 C 
ATOM     19  C   UNL     1       1.899   2.982  18.772  0.00  0.00    +0.000 C 
ATOM     20  N   UNL     1       2.328   3.203  20.168  0.00  0.00    +0.000 NA
ATOM     21  C   UNL     1       1.400   2.581  21.107  0.00  0.00    +0.000 C 
ATOM     22  C   UNL     1       3.700   2.687  20.344  0.00  0.00    +0.000 C 
ATOM     23  C   UNL     1       4.678   3.236  19.289  0.00  0.00    +0.000 C 
ATOM     24  O   UNL     1       4.197   3.064  17.948  0.00  0.00    +0.000 OA
ENDBRANCH  16  18
ENDBRANCH   7  13
TORSDOF 2
ENDMDL
MODEL 2
REMARK VINA RESULT:      -7.7      3.065      7.760
REMARK  Name = 
REMARK  5 active torsions:
REMARK  status: ('A' for Active; 'I' for Inactive)
REMARK    1  A    between atoms: C_1  and  C_2
REMARK    2  A    between atoms: C_7  and  C_8
REMARK    3  A    between atoms: C_11  and  C_12
REMARK    4  A    between atoms: N_14  and  C_15
REMARK    5  A    between atoms: C_22  and  C_23
REMARK                            x       y       z     vdW  Elec       q    Type
REMARK                         _______ _______ _______ _____ _____    ______ ____
ROOT
ATOM      1  C   UNL     1       3.187   1.758  18.684  0.00  0.00    +0.000 C 
ATOM      2  C   UNL     1       2.885   3.164  19.043  0.00  0.00    +0.000 A 
ATOM      3  N   UNL     1       3.037   4.187  18.143  0.00  0.00    +0.000 N 
ATOM      4  C   UNL     1       2.672   5.387  18.702  0.00  0.00    +0.000 A 
ATOM      5  C   UNL     1       2.662   6.674  18.149  0.00  0.00    +0.000 A 
ATOM      6  C   UNL     1       2.207   7.722  18.955  0.00  0.00    +0.000 A 
ATOM      7  C   UNL     1       1.775   7.495  20.266  0.00  0.00    +0.000 A 
ATOM      8  C   UNL     1       1.821   6.193  20.799  0.00  0.00    +0.000 A 
ATOM      9  C   UNL     1       2.274   5.121  20.009  0.00  0.00    +0.000 A 
ATOM     10  C   UNL     1       2.422   3.713  20.231  0.00  0.00    +0.000 A 
ATOM     11  C   UNL     1       2.125   2.970  21.483  0.00  0.00    +0.000 C 
ATOM     12  H   UNL     1       3.363   4.083  17.194  0.00  0.00    +0.000 HD
ENDROOT
BRANCH   7  13
ATOM     13  C   UNL     1       1.226   8.570  21.081  0.00  0.00    +0.000 A 
ATOM     14  N   UNL     1       1.600   8.848  22.341  0.00  0.00    +0.000 NA
ATOM     15  O   UNL     1       0.875   9.999  22.652  0.00  0.00    +0.000 OA
ATOM     16  C   UNL     1       0.129  10.302  21.550  0.00  0.00    +0.000 A 
ATOM     17  N   UNL     1       0.305   9.452  20.565  0.00  0.00    +0.000 NA
BRANCH  16  18
ATOM     18  C   UNL     1      -0.711  11.539  21.588  0.00  0.00    +0.000 C 
ATOM     19  C   UNL     1      -1.443  11.858  20.273  0.00  0.00    +0.000 C 
ATOM     20  N   UNL     1      -0.497  12.184  19.187  0.00  0.00    +0.000 NA
ATOM     21  C   UNL     1      -1.205  12.494  17.949  0.00  0.00    +0.000 C 
ATOM     22  C   UNL     1       0.365  13.306  19.609  0.00  0.00    +0.000 C 
ATOM     23  C   UNL     1       1.033  13.055  20.974  0.00  0.00    +0.000 C 
ATOM     24  O   UNL     1       0.091  12.676  21.989  0.00  0.00    +0.000 OA
ENDBRANCH  16  18
ENDBRANCH   7  13
TORSDOF 2
ENDMDL
MODEL 3
REMARK VINA RESULT:      -7.7      1.856      2.990
REMARK  Name = 
REMARK  5 active torsions:
REMARK  status: ('A' for Active; 'I' for Inactive)
REMARK    1  A    between atoms: C_1  and  C_2
REMARK    2  A    between atoms: C_7  and  C_8
REMARK    3  A    between atoms: C_11  and  C_12
REMARK    4  A    between atoms: N_14  and  C_15
REMARK    5  A    between atoms: C_22  and  C_23
REMARK                            x       y       z     vdW  Elec       q    Type
REMARK                         _______ _______ _______ _____ _____    ______ ____
ROOT
ATOM      1  C   UNL     1      -0.822  12.558  22.206  0.00  0.00    +0.000 C 
ATOM      2  C   UNL     1      -0.196  11.380  21.558  0.00  0.00    +0.000 A 
ATOM      3  N   UNL     1       0.236  11.417  20.258  0.00  0.00    +0.000 N 
ATOM      4  C   UNL     1       0.799  10.218  19.896  0.00  0.00    +0.000 A 
ATOM      5  C   UNL     1       1.368   9.818  18.681  0.00  0.00    +0.000 A 
ATOM      6  C   UNL     1       1.897   8.525  18.607  0.00  0.00    +0.000 A 
ATOM      7  C   UNL     1       1.862   7.663  19.707  0.00  0.00    +0.000 A 
ATOM      8  C   UNL     1       1.261   8.088  20.907  0.00  0.00    +0.000 A 
ATOM      9  C   UNL     1       0.722   9.383  21.007  0.00  0.00    +0.000 A 
ATOM     10  C   UNL     1       0.078  10.115  22.058  0.00  0.00    +0.000 A 
ATOM     11  C   UNL     1      -0.229   9.628  23.428  0.00  0.00    +0.000 C 
ATOM     12  H   UNL     1       0.164  12.214  19.643  0.00  0.00    +0.000 HD
ENDROOT
BRANCH   7  13
ATOM     13  C   UNL     1       2.483   6.346  19.659  0.00  0.00    +0.000 A 
ATOM     14  N   UNL     1       1.876   5.196  19.997  0.00  0.00    +0.000 NA
ATOM     15  O   UNL     1       2.827   4.222  19.695  0.00  0.00    +0.000 OA
ATOM     16  C   UNL     1       3.920   4.878  19.207  0.00  0.00    +0.000 A 
ATOM     17  N   UNL     1       3.759   6.181  19.173  0.00  0.00    +0.000 NA
BRANCH  16  18
ATOM     18  C   UNL     1       5.083   4.060  18.745  0.00  0.00    +0.000 C 
ATOM     19  C   UNL     1       6.380   4.858  18.521  0.00  0.00    +0.000 C 
ATOM     20  N   UNL     1       6.244   5.821  17.410  0.00  0.00    +0.000 NA
ATOM     21  C   UNL     1       7.484   6.562  17.203  0.00  0.00    +0.000 C 
ATOM     22  C   UNL     1       5.836   5.101  16.187  0.00  0.00    +0.000 C 
ATOM     23  C   UNL     1       4.597   4.215  16.409  0.00  0.00    +0.000 C 
ATOM     24  O   UNL     1       4.739   3.339  17.537  0.00  0.00    +0.000 OA
ENDBRANCH  16  18
ENDBRANCH   7  13
TORSDOF 2
ENDMDL
MODEL 4
REMARK VINA RESULT:      -7.6      2.952      7.828
REMARK  Name = 
REMARK  5 active torsions:
REMARK  status: ('A' for Active; 'I' for Inactive)
REMARK    1  A    between atoms: C_1  and  C_2
REMARK    2  A    between atoms: C_7  and  C_8
REMARK    3  A    between atoms: C_11  and  C_12
REMARK    4  A    between atoms: N_14  and  C_15
REMARK    5  A    between atoms: C_22  and  C_23
REMARK                            x       y       z     vdW  Elec       q    Type
REMARK                         _______ _______ _______ _____ _____    ______ ____
ROOT
ATOM      1  C   UNL     1       2.789   1.768  18.882  0.00  0.00    +0.000 C 
ATOM      2  C   UNL     1       2.585   3.209  19.163  0.00  0.00    +0.000 A 
ATOM      3  N   UNL     1       2.871   4.174  18.232  0.00  0.00    +0.000 N 
ATOM      4  C   UNL     1       2.576   5.424  18.718  0.00  0.00    +0.000 A 
ATOM      5  C   UNL     1       2.703   6.680  18.112  0.00  0.00    +0.000 A 
ATOM      6  C   UNL     1       2.293   7.798  18.846  0.00  0.00    +0.000 A 
ATOM      7  C   UNL     1       1.772   7.667  20.138  0.00  0.00    +0.000 A 
ATOM      8  C   UNL     1       1.681   6.392  20.726  0.00  0.00    +0.000 A 
ATOM      9  C   UNL     1       2.086   5.252  20.009  0.00  0.00    +0.000 A 
ATOM     10  C   UNL     1       2.104   3.848  20.298  0.00  0.00    +0.000 A 
ATOM     11  C   UNL     1       1.679   3.191  21.561  0.00  0.00    +0.000 C 
ATOM     12  H   UNL     1       3.238   4.000  17.308  0.00  0.00    +0.000 HD
ENDROOT
BRANCH   7  13
ATOM     13  C   UNL     1       1.270   8.819  20.873  0.00  0.00    +0.000 A 
ATOM     14  N   UNL     1       1.139   8.882  22.209  0.00  0.00    +0.000 NA
ATOM     15  O   UNL     1       0.722  10.193  22.437  0.00  0.00    +0.000 OA
ATOM     16  C   UNL     1       0.636  10.796  21.215  0.00  0.00    +0.000 A 
ATOM     17  N   UNL     1       0.956   9.992  20.226  0.00  0.00    +0.000 NA
BRANCH  16  18
ATOM     18  C   UNL     1       0.262  12.242  21.168  0.00  0.00    +0.000 C 
ATOM     19  C   UNL     1      -0.672  12.700  22.302  0.00  0.00    +0.000 C 
ATOM     20  N   UNL     1      -1.997  12.055  22.213  0.00  0.00    +0.000 NA
ATOM     21  C   UNL     1      -2.874  12.506  23.289  0.00  0.00    +0.000 C 
ATOM     22  C   UNL     1      -2.586  12.330  20.887  0.00  0.00    +0.000 C 
ATOM     23  C   UNL     1      -1.631  11.974  19.732  0.00  0.00    +0.000 C 
ATOM     24  O   UNL     1      -0.332  12.565  19.887  0.00  0.00    +0.000 OA
ENDBRANCH  16  18
ENDBRANCH   7  13
TORSDOF 2
ENDMDL
MODEL 5
REMARK VINA RESULT:      -7.3      1.700      2.430
REMARK  Name = 
REMARK  5 active torsions:
REMARK  status: ('A' for Active; 'I' for Inactive)
REMARK    1  A    between atoms: C_1  and  C_2
REMARK    2  A    between atoms: C_7  and  C_8
REMARK    3  A    between atoms: C_11  and  C_12
REMARK    4  A    between atoms: N_14  and  C_15
REMARK    5  A    between atoms: C_22  and  C_23
REMARK                            x       y       z     vdW  Elec       q    Type
REMARK                         _______ _______ _______ _____ _____    ______ ____
ROOT
ATOM      1  C   UNL     1      -2.259  12.489  22.826  0.00  0.00    +0.000 C 
ATOM      2  C   UNL     1      -1.459  11.666  21.888  0.00  0.00    +0.000 A 
ATOM      3  N   UNL     1      -1.425  11.930  20.544  0.00  0.00    +0.000 N 
ATOM      4  C   UNL     1      -0.598  11.048  19.893  0.00  0.00    +0.000 A 
ATOM      5  C   UNL     1      -0.268  10.955  18.535  0.00  0.00    +0.000 A 
ATOM      6  C   UNL     1       0.637   9.958  18.155  0.00  0.00    +0.000 A 
ATOM      7  C   UNL     1       1.194   9.086  19.097  0.00  0.00    +0.000 A 
ATOM      8  C   UNL     1       0.822   9.192  20.450  0.00  0.00    +0.000 A 
ATOM      9  C   UNL     1      -0.086  10.186  20.858  0.00  0.00    +0.000 A 
ATOM     10  C   UNL     1      -0.642  10.568  22.123  0.00  0.00    +0.000 A 
ATOM     11  C   UNL     1      -0.389   9.929  23.440  0.00  0.00    +0.000 C 
ATOM     12  H   UNL     1      -1.928  12.675  20.085  0.00  0.00    +0.000 HD
ENDROOT
BRANCH   7  13
ATOM     13  C   UNL     1       2.196   8.100  18.718  0.00  0.00    +0.000 A 
ATOM     14  N   UNL     1       2.977   8.177  17.627  0.00  0.00    +0.000 NA
ATOM     15  O   UNL     1       3.822   7.073  17.749  0.00  0.00    +0.000 OA
ATOM     16  C   UNL     1       3.465   6.433  18.901  0.00  0.00    +0.000 A 
ATOM     17  N   UNL     1       2.470   7.020  19.525  0.00  0.00    +0.000 NA
BRANCH  16  18
ATOM     18  C   UNL     1       4.256   5.232  19.311  0.00  0.00    +0.000 C 
ATOM     19  C   UNL     1       5.295   4.764  18.278  0.00  0.00    +0.000 C 
ATOM     20  N   UNL     1       4.654   4.278  17.039  0.00  0.00    +0.000 NA
ATOM     21  C   UNL     1       5.652   3.830  16.073  0.00  0.00    +0.000 C 
ATOM     22  C   UNL     1       3.703   3.200  17.372  0.00  0.00    +0.000 C 
ATOM     23  C   UNL     1       2.712   3.607  18.478  0.00  0.00    +0.000 C 
ATOM     24  O   UNL     1       3.368   4.136  19.640  0.00  0.00    +0.000 OA
ENDBRANCH  16  18
ENDBRANCH   7  13
TORSDOF 2
ENDMDL
MODEL 6
REMARK VINA RESULT:      -7.2      6.388      7.591
REMARK  Name = 
REMARK  5 active torsions:
REMARK  status: ('A' for Active; 'I' for Inactive)
REMARK    1  A    between atoms: C_1  and  C_2
REMARK    2  A    between atoms: C_7  and  C_8
REMARK    3  A    between atoms: C_11  and  C_12
REMARK    4  A    between atoms: N_14  and  C_15
REMARK    5  A    between atoms: C_22  and  C_23
REMARK                            x       y       z     vdW  Elec       q    Type
REMARK                         _______ _______ _______ _____ _____    ______ ____
ROOT
ATOM      1  C   UNL     1       9.601  16.357  18.736  0.00  0.00    +0.000 C 
ATOM      2  C   UNL     1       9.497  14.881  18.635  0.00  0.00    +0.000 A 
ATOM      3  N   UNL     1      10.469  14.053  19.132  0.00  0.00    +0.000 N 
ATOM      4  C   UNL     1      10.134  12.736  18.941  0.00  0.00    +0.000 A 
ATOM      5  C   UNL     1      10.823  11.569  19.292  0.00  0.00    +0.000 A 
ATOM      6  C   UNL     1      10.219  10.343  18.992  0.00  0.00    +0.000 A 
ATOM      7  C   UNL     1       8.970  10.284  18.365  0.00  0.00    +0.000 A 
ATOM      8  C   UNL     1       8.315  11.476  18.003  0.00  0.00    +0.000 A 
ATOM      9  C   UNL     1       8.901  12.722  18.294  0.00  0.00    +0.000 A 
ATOM     10  C   UNL     1       8.502  14.083  18.087  0.00  0.00    +0.000 A 
ATOM     11  C   UNL     1       7.259  14.558  17.428  0.00  0.00    +0.000 C 
ATOM     12  H   UNL     1      11.316  14.359  19.588  0.00  0.00    +0.000 HD
ENDROOT
BRANCH   7  13
ATOM     13  C   UNL     1       8.302   9.013  18.123  0.00  0.00    +0.000 A 
ATOM     14  N   UNL     1       7.441   8.775  17.119  0.00  0.00    +0.000 NA
ATOM     15  O   UNL     1       7.154   7.416  17.249  0.00  0.00    +0.000 OA
ATOM     16  C   UNL     1       7.866   6.965  18.323  0.00  0.00    +0.000 A 
ATOM     17  N   UNL     1       8.579   7.909  18.895  0.00  0.00    +0.000 NA
BRANCH  16  18
ATOM     18  C   UNL     1       7.788   5.510  18.658  0.00  0.00    +0.000 C 
ATOM     19  C   UNL     1       7.524   4.588  17.456  0.00  0.00    +0.000 C 
ATOM     20  N   UNL     1       6.187   4.822  16.872  0.00  0.00    +0.000 NA
ATOM     21  C   UNL     1       5.947   3.934  15.739  0.00  0.00    +0.000 C 
ATOM     22  C   UNL     1       5.160   4.650  17.918  0.00  0.00    +0.000 C 
ATOM     23  C   UNL     1       5.454   5.488  19.176  0.00  0.00    +0.000 C 
ATOM     24  O   UNL     1       6.784   5.284  19.677  0.00  0.00    +0.000 OA
ENDBRANCH  16  18
ENDBRANCH   7  13
TORSDOF 2
ENDMDL
MODEL 7
REMARK VINA RESULT:      -7.2      1.495      2.011
REMARK  Name = 
REMARK  5 active torsions:
REMARK  status: ('A' for Active; 'I' for Inactive)
REMARK    1  A    between atoms: C_1  and  C_2
REMARK    2  A    between atoms: C_7  and  C_8
REMARK    3  A    between atoms: C_11  and  C_12
REMARK    4  A    between atoms: N_14  and  C_15
REMARK    5  A    between atoms: C_22  and  C_23
REMARK                            x       y       z     vdW  Elec       q    Type
REMARK                         _______ _______ _______ _____ _____    ______ ____
ROOT
ATOM      1  C   UNL     1      -1.342  13.556  22.471  0.00  0.00    +0.000 C 
ATOM      2  C   UNL     1      -0.677  12.501  21.670  0.00  0.00    +0.000 A 
ATOM      3  N   UNL     1      -0.138  12.761  20.438  0.00  0.00    +0.000 N 
ATOM      4  C   UNL     1       0.439  11.634  19.908  0.00  0.00    +0.000 A 
ATOM      5  C   UNL     1       1.103  11.447  18.689  0.00  0.00    +0.000 A 
ATOM      6  C   UNL     1       1.622  10.176  18.422  0.00  0.00    +0.000 A 
ATOM      7  C   UNL     1       1.485   9.128  19.339  0.00  0.00    +0.000 A 
ATOM      8  C   UNL     1       0.791   9.344  20.544  0.00  0.00    +0.000 A 
ATOM      9  C   UNL     1       0.260  10.613  20.837  0.00  0.00    +0.000 A 
ATOM     10  C   UNL     1      -0.461  11.158  21.950  0.00  0.00    +0.000 A 
ATOM     11  C   UNL     1      -0.886  10.438  23.178  0.00  0.00    +0.000 C 
ATOM     12  H   UNL     1      -0.150  13.659  19.976  0.00  0.00    +0.000 HD
ENDROOT
BRANCH   7  13
ATOM     13  C   UNL     1       2.092   7.827  19.100  0.00  0.00    +0.000 A 
ATOM     14  N   UNL     1       2.675   7.449  17.949  0.00  0.00    +0.000 NA
ATOM     15  O   UNL     1       3.182   6.182  18.238  0.00  0.00    +0.000 OA
ATOM     16  C   UNL     1       2.852   5.914  19.535  0.00  0.00    +0.000 A 
ATOM     17  N   UNL     1       2.179   6.889  20.102  0.00  0.00    +0.000 NA
BRANCH  16  18
ATOM     18  C   UNL     1       3.328   4.628  20.130  0.00  0.00    +0.000 C 
ATOM     19  C   UNL     1       3.571   3.501  19.112  0.00  0.00    +0.000 C 
ATOM     20  N   UNL     1       2.317   3.071  18.462  0.00  0.00    +0.000 NA
ATOM     21  C   UNL     1       2.562   1.996  17.506  0.00  0.00    +0.000 C 
ATOM     22  C   UNL     1       1.346   2.662  19.496  0.00  0.00    +0.000 C 
ATOM     23  C   UNL     1       1.158   3.734  20.585  0.00  0.00    +0.000 C 
ATOM     24  O   UNL     1       2.402   4.175  21.148  0.00  0.00    +0.000 OA
ENDBRANCH  16  18
ENDBRANCH   7  13
TORSDOF 2
ENDMDL
MODEL 8
REMARK VINA RESULT:      -7.2      1.200      2.013
REMARK  Name = 
REMARK  5 active torsions:
REMARK  status: ('A' for Active; 'I' for Inactive)
REMARK    1  A    between atoms: C_1  and  C_2
REMARK    2  A    between atoms: C_7  and  C_8
REMARK    3  A    between atoms: C_11  and  C_12
REMARK    4  A    between atoms: N_14  and  C_15
REMARK    5  A    between atoms: C_22  and  C_23
REMARK                            x       y       z     vdW  Elec       q    Type
REMARK                         _______ _______ _______ _____ _____    ______ ____
ROOT
ATOM      1  C   UNL     1      -1.937  12.840  21.386  0.00  0.00    +0.000 C 
ATOM      2  C   UNL     1      -1.025  11.744  20.980  0.00  0.00    +0.000 A 
ATOM      3  N   UNL     1      -0.695  10.726  21.836  0.00  0.00    +0.000 N 
ATOM      4  C   UNL     1       0.140   9.824  21.224  0.00  0.00    +0.000 A 
ATOM      5  C   UNL     1       0.712   8.645  21.717  0.00  0.00    +0.000 A 
ATOM      6  C   UNL     1       1.514   7.900  20.845  0.00  0.00    +0.000 A 
ATOM      7  C   UNL     1       1.735   8.315  19.528  0.00  0.00    +0.000 A 
ATOM      8  C   UNL     1       1.164   9.518  19.072  0.00  0.00    +0.000 A 
ATOM      9  C   UNL     1       0.354  10.286  19.928  0.00  0.00    +0.000 A 
ATOM     10  C   UNL     1      -0.374  11.512  19.777  0.00  0.00    +0.000 A 
ATOM     11  C   UNL     1      -0.438  12.368  18.564  0.00  0.00    +0.000 C 
ATOM     12  H   UNL     1      -1.023  10.636  22.786  0.00  0.00    +0.000 HD
ENDROOT
BRANCH   7  13
ATOM     13  C   UNL     1       2.502   7.502  18.595  0.00  0.00    +0.000 A 
ATOM     14  N   UNL     1       3.425   7.975  17.741  0.00  0.00    +0.000 NA
ATOM     15  O   UNL     1       3.940   6.824  17.144  0.00  0.00    +0.000 OA
ATOM     16  C   UNL     1       3.273   5.766  17.692  0.00  0.00    +0.000 A 
ATOM     17  N   UNL     1       2.378   6.132  18.581  0.00  0.00    +0.000 NA
BRANCH  16  18
ATOM     18  C   UNL     1       3.671   4.388  17.269  0.00  0.00    +0.000 C 
ATOM     19  C   UNL     1       2.708   3.276  17.717  0.00  0.00    +0.000 C 
ATOM     20  N   UNL     1       2.686   3.131  19.186  0.00  0.00    +0.000 NA
ATOM     21  C   UNL     1       1.776   2.067  19.595  0.00  0.00    +0.000 C 
ATOM     22  C   UNL     1       4.057   2.884  19.673  0.00  0.00    +0.000 C 
ATOM     23  C   UNL     1       5.064   3.929  19.157  0.00  0.00    +0.000 C 
ATOM     24  O   UNL     1       5.011   4.090  17.731  0.00  0.00    +0.000 OA
ENDBRANCH  16  18
ENDBRANCH   7  13
TORSDOF 2
ENDMDL
MODEL 9
REMARK VINA RESULT:      -7.2      1.863      3.115
REMARK  Name = 
REMARK  5 active torsions:
REMARK  status: ('A' for Active; 'I' for Inactive)
REMARK    1  A    between atoms: C_1  and  C_2
REMARK    2  A    between atoms: C_7  and  C_8
REMARK    3  A    between atoms: C_11  and  C_12
REMARK    4  A    between atoms: N_14  and  C_15
REMARK    5  A    between atoms: C_22  and  C_23
REMARK                            x       y       z     vdW  Elec       q    Type
REMARK                         _______ _______ _______ _____ _____    ______ ____
ROOT
ATOM      1  C   UNL     1      -2.838  13.495  21.101  0.00  0.00    +0.000 C 
ATOM      2  C   UNL     1      -1.873  12.373  21.015  0.00  0.00    +0.000 A 
ATOM      3  N   UNL     1      -1.422  11.721  22.133  0.00  0.00    +0.000 N 
ATOM      4  C   UNL     1      -0.559  10.708  21.793  0.00  0.00    +0.000 A 
ATOM      5  C   UNL     1       0.125   9.795  22.605  0.00  0.00    +0.000 A 
ATOM      6  C   UNL     1       0.927   8.840  21.972  0.00  0.00    +0.000 A 
ATOM      7  C   UNL     1       1.042   8.796  20.579  0.00  0.00    +0.000 A 
ATOM      8  C   UNL     1       0.360   9.744  19.793  0.00  0.00    +0.000 A 
ATOM      9  C   UNL     1      -0.454  10.715  20.405  0.00  0.00    +0.000 A 
ATOM     10  C   UNL     1      -1.276  11.780  19.911  0.00  0.00    +0.000 A 
ATOM     11  C   UNL     1      -1.471  12.172  18.491  0.00  0.00    +0.000 C 
ATOM     12  H   UNL     1      -1.688  11.941  23.081  0.00  0.00    +0.000 HD
ENDROOT
BRANCH   7  13
ATOM     13  C   UNL     1       1.812   7.754  19.914  0.00  0.00    +0.000 A 
ATOM     14  N   UNL     1       2.499   7.916  18.770  0.00  0.00    +0.000 NA
ATOM     15  O   UNL     1       3.135   6.688  18.593  0.00  0.00    +0.000 OA
ATOM     16  C   UNL     1       2.767   5.900  19.645  0.00  0.00    +0.000 A 
ATOM     17  N   UNL     1       1.952   6.507  20.477  0.00  0.00    +0.000 NA
BRANCH  16  18
ATOM     18  C   UNL     1       3.358   4.529  19.737  0.00  0.00    +0.000 C 
ATOM     19  C   UNL     1       4.450   4.230  18.696  0.00  0.00    +0.000 C 
ATOM     20  N   UNL     1       3.907   4.217  17.323  0.00  0.00    +0.000 NA
ATOM     21  C   UNL     1       4.952   3.922  16.348  0.00  0.00    +0.000 C 
ATOM     22  C   UNL     1       2.804   3.240  17.243  0.00  0.00    +0.000 C 
ATOM     23  C   UNL     1       1.744   3.455  18.339  0.00  0.00    +0.000 C 
ATOM     24  O   UNL     1       2.316   3.528  19.654  0.00  0.00    +0.000 OA
ENDBRANCH  16  18
ENDBRANCH   7  13
TORSDOF 2
ENDMDL
