MODEL 1
REMARK VINA RESULT:      -8.4      0.000      0.000
REMARK  Name = 
REMARK  9 active torsions:
REMARK  status: ('A' for Active; 'I' for Inactive)
REMARK    1  A    between atoms: C_1  and  O_2
REMARK    2  A    between atoms: O_2  and  C_3
REMARK    3  A    between atoms: C_6  and  C_7
REMARK    4  A    between atoms: C_7  and  C_8
REMARK    5  A    between atoms: C_7  and  N_9
REMARK    6  A    between atoms: C_10  and  C_12
REMARK    7  A    between atoms: C_12  and  C_14
REMARK    8  A    between atoms: C_25  and  O_26
REMARK    9  A    between atoms: O_26  and  C_27
REMARK                            x       y       z     vdW  Elec       q    Type
REMARK                         _______ _______ _______ _____ _____    ______ ____
ROOT
ATOM      1  N   UNL     1       3.385   5.124  18.750  0.00  0.00    +0.000 N 
ATOM      2  C   UNL     1       4.623   4.441  18.644  0.00  0.00    +0.000 C 
ATOM      3  O   UNL     1       5.452   4.343  19.523  0.00  0.00    +0.000 OA
ATOM      4  H   UNL     1       2.894   5.226  17.867  0.00  0.00    +0.000 HD
ENDROOT
BRANCH   1   5
ATOM      5  C   UNL     1       2.997   6.007  19.869  0.00  0.00    +0.000 C 
ATOM      6  C   UNL     1       2.012   5.317  20.821  0.00  0.00    +0.000 C 
BRANCH   5  10
ATOM      7  C   UNL     1       0.862   9.719  18.772  0.00  0.00    +0.000 A 
ATOM      8  C   UNL     1       1.632   9.023  17.827  0.00  0.00    +0.000 A 
ATOM      9  C   UNL     1       2.360   7.859  18.163  0.00  0.00    +0.000 A 
ATOM     10  C   UNL     1       2.369   7.366  19.471  0.00  0.00    +0.000 A 
ATOM     11  C   UNL     1       1.615   8.101  20.422  0.00  0.00    +0.000 A 
ATOM     12  C   UNL     1       0.869   9.264  20.097  0.00  0.00    +0.000 A 
BRANCH   7  14
ATOM     13  C   UNL     1      -1.216  10.666  18.075  0.00  0.00    +0.000 C 
ATOM     14  O   UNL     1       0.147  10.844  18.454  0.00  0.00    +0.000 OA
ENDBRANCH   7  14
BRANCH  12  15
ATOM     15  O   UNL     1       0.195   9.783  21.176  0.00  0.00    +0.000 OA
ATOM     16  C   UNL     1      -0.339   8.909  22.167  0.00  0.00    +0.000 C 
ENDBRANCH  12  15
ENDBRANCH   5  10
ENDBRANCH   1   5
BRANCH   2  17
ATOM     17  C   UNL     1       4.864   3.817  17.248  0.00  0.00    +0.000 C 
ATOM     18  O   UNL     1       4.156   2.823  17.063  0.00  0.00    +0.000 OA
BRANCH  17  19
ATOM     19  C   UNL     1       5.815   4.201  16.175  0.00  0.00    +0.000 A 
ATOM     20  C   UNL     1       6.992   4.844  16.564  0.00  0.00    +0.000 A 
ATOM     21  N   UNL     1       7.410   5.601  15.516  0.00  0.00    +0.000 N 
ATOM     22  C   UNL     1       7.072   4.937  14.368  0.00  0.00    +0.000 A 
ATOM     23  C   UNL     1       7.645   5.070  13.095  0.00  0.00    +0.000 A 
ATOM     24  C   UNL     1       7.162   4.241  12.095  0.00  0.00    +0.000 A 
ATOM     25  C   UNL     1       6.085   3.400  12.358  0.00  0.00    +0.000 A 
ATOM     26 CL   UNL     1       5.533   2.375  11.084  0.00  0.00    +0.000 Cl
ATOM     27  C   UNL     1       5.466   3.329  13.634  0.00  0.00    +0.000 A 
ATOM     28  C   UNL     1       6.008   4.072  14.715  0.00  0.00    +0.000 A 
ATOM     29  H   UNL     1       8.040   6.392  15.568  0.00  0.00    +0.000 HD
ENDBRANCH  17  19
ENDBRANCH   2  17
TORSDOF 6
ENDMDL
MODEL 2
REMARK VINA RESULT:      -7.9      3.741      6.028
REMARK  Name = 
REMARK  9 active torsions:
REMARK  status: ('A' for Active; 'I' for Inactive)
REMARK    1  A    between atoms: C_1  and  O_2
REMARK    2  A    between atoms: O_2  and  C_3
REMARK    3  A    between atoms: C_6  and  C_7
REMARK    4  A    between atoms: C_7  and  C_8
REMARK    5  A    between atoms: C_7  and  N_9
REMARK    6  A    between atoms: C_10  and  C_12
REMARK    7  A    between atoms: C_12  and  C_14
REMARK    8  A    between atoms: C_25  and  O_26
REMARK    9  A    between atoms: O_26  and  C_27
REMARK                            x       y       z     vdW  Elec       q    Type
REMARK                         _______ _______ _______ _____ _____    ______ ____
ROOT
ATOM      1  N   UNL     1       0.939  10.204  19.338  0.00  0.00    +0.000 N 
ATOM      2  C   UNL     1       1.683   9.363  18.473  0.00  0.00    +0.000 C 
ATOM      3  O   UNL     1       1.983   9.620  17.326  0.00  0.00    +0.000 OA
ATOM      4  H   UNL     1       0.659   9.758  20.206  0.00  0.00    +0.000 HD
ENDROOT
BRANCH   1   5
ATOM      5  C   UNL     1       0.226  11.430  18.924  0.00  0.00    +0.000 C 
ATOM      6  C   UNL     1       0.344  12.539  19.977  0.00  0.00    +0.000 C 
BRANCH   5  10
ATOM      7  C   UNL     1      -4.012  11.152  17.698  0.00  0.00    +0.000 A 
ATOM      8  C   UNL     1      -3.632  11.909  18.818  0.00  0.00    +0.000 A 
ATOM      9  C   UNL     1      -2.291  11.978  19.258  0.00  0.00    +0.000 A 
ATOM     10  C   UNL     1      -1.281  11.262  18.607  0.00  0.00    +0.000 A 
ATOM     11  C   UNL     1      -1.686  10.474  17.499  0.00  0.00    +0.000 A 
ATOM     12  C   UNL     1      -3.027  10.405  17.039  0.00  0.00    +0.000 A 
BRANCH   7  14
ATOM     13  C   UNL     1      -6.331  11.044  18.253  0.00  0.00    +0.000 C 
ATOM     14  O   UNL     1      -5.309  11.085  17.261  0.00  0.00    +0.000 OA
ENDBRANCH   7  14
BRANCH  12  15
ATOM     15  O   UNL     1      -3.169   9.603  15.932  0.00  0.00    +0.000 OA
ATOM     16  C   UNL     1      -3.193  10.187  14.632  0.00  0.00    +0.000 C 
ENDBRANCH  12  15
ENDBRANCH   5  10
ENDBRANCH   1   5
BRANCH   2  17
ATOM     17  C   UNL     1       2.085   8.016  19.119  0.00  0.00    +0.000 C 
ATOM     18  O   UNL     1       1.832   7.996  20.327  0.00  0.00    +0.000 OA
BRANCH  17  19
ATOM     19  C   UNL     1       2.743   6.825  18.527  0.00  0.00    +0.000 A 
ATOM     20  C   UNL     1       4.064   6.969  18.102  0.00  0.00    +0.000 A 
ATOM     21  N   UNL     1       4.282   6.056  17.121  0.00  0.00    +0.000 N 
ATOM     22  C   UNL     1       3.538   4.946  17.420  0.00  0.00    +0.000 A 
ATOM     23  C   UNL     1       3.743   3.628  16.986  0.00  0.00    +0.000 A 
ATOM     24  C   UNL     1       2.878   2.661  17.473  0.00  0.00    +0.000 A 
ATOM     25  C   UNL     1       1.804   3.038  18.273  0.00  0.00    +0.000 A 
ATOM     26 CL   UNL     1       0.766   1.793  18.866  0.00  0.00    +0.000 Cl
ATOM     27  C   UNL     1       1.565   4.388  18.644  0.00  0.00    +0.000 A 
ATOM     28  C   UNL     1       2.495   5.391  18.266  0.00  0.00    +0.000 A 
ATOM     29  H   UNL     1       5.014   6.096  16.423  0.00  0.00    +0.000 HD
ENDBRANCH  17  19
ENDBRANCH   2  17
TORSDOF 6
ENDMDL
MODEL 3
REMARK VINA RESULT:      -7.8      3.387      6.182
REMARK  Name = 
REMARK  9 active torsions:
REMARK  status: ('A' for Active; 'I' for Inactive)
REMARK    1  A    between atoms: C_1  and  O_2
REMARK    2  A    between atoms: O_2  and  C_3
REMARK    3  A    between atoms: C_6  and  C_7
REMARK    4  A    between atoms: C_7  and  C_8
REMARK    5  A    between atoms: C_7  and  N_9
REMARK    6  A    between atoms: C_10  and  C_12
REMARK    7  A    between atoms: C_12  and  C_14
REMARK    8  A    between atoms: C_25  and  O_26
REMARK    9  A    between atoms: O_26  and  C_27
REMARK                            x       y       z     vdW  Elec       q    Type
REMARK                         _______ _______ _______ _____ _____    ______ ____
ROOT
ATOM      1  N   UNL     1       0.612  10.419  19.281  0.00  0.00    +0.000 N 
ATOM      2  C   UNL     1       1.430   9.391  18.746  0.00  0.00    +0.000 C 
ATOM      3  O   UNL     1       1.866   9.354  17.615  0.00  0.00    +0.000 OA
ATOM      4  H   UNL     1       0.223  10.203  20.193  0.00  0.00    +0.000 HD
ENDROOT
BRANCH   1   5
ATOM      5  C   UNL     1      -0.018  11.498  18.493  0.00  0.00    +0.000 C 
ATOM      6  C   UNL     1       0.377  12.886  19.013  0.00  0.00    +0.000 C 
BRANCH   5  10
ATOM      7  C   UNL     1      -4.408  11.679  18.007  0.00  0.00    +0.000 A 
ATOM      8  C   UNL     1      -3.795  12.102  19.197  0.00  0.00    +0.000 A 
ATOM      9  C   UNL     1      -2.399  12.013  19.395  0.00  0.00    +0.000 A 
ATOM     10  C   UNL     1      -1.565  11.464  18.415  0.00  0.00    +0.000 A 
ATOM     11  C   UNL     1      -2.203  11.010  17.233  0.00  0.00    +0.000 A 
ATOM     12  C   UNL     1      -3.602  11.104  17.015  0.00  0.00    +0.000 A 
BRANCH   7  14
ATOM     13  C   UNL     1      -6.583  10.799  18.448  0.00  0.00    +0.000 C 
ATOM     14  O   UNL     1      -5.760  11.769  17.803  0.00  0.00    +0.000 OA
ENDBRANCH   7  14
BRANCH  12  15
ATOM     15  O   UNL     1      -3.983  10.628  15.783  0.00  0.00    +0.000 OA
ATOM     16  C   UNL     1      -2.993  10.202  14.850  0.00  0.00    +0.000 C 
ENDBRANCH  12  15
ENDBRANCH   5  10
ENDBRANCH   1   5
BRANCH   2  17
ATOM     17  C   UNL     1       1.721   8.251  19.751  0.00  0.00    +0.000 C 
ATOM     18  O   UNL     1       1.364   8.548  20.894  0.00  0.00    +0.000 OA
BRANCH  17  19
ATOM     19  C   UNL     1       2.381   6.937  19.548  0.00  0.00    +0.000 A 
ATOM     20  C   UNL     1       1.971   5.883  20.367  0.00  0.00    +0.000 A 
ATOM     21  N   UNL     1       3.006   5.010  20.461  0.00  0.00    +0.000 N 
ATOM     22  C   UNL     1       3.669   5.028  19.263  0.00  0.00    +0.000 A 
ATOM     23  C   UNL     1       4.496   4.033  18.720  0.00  0.00    +0.000 A 
ATOM     24  C   UNL     1       5.015   4.263  17.456  0.00  0.00    +0.000 A 
ATOM     25  C   UNL     1       4.785   5.485  16.830  0.00  0.00    +0.000 A 
ATOM     26 CL   UNL     1       5.440   5.714  15.249  0.00  0.00    +0.000 Cl
ATOM     27  C   UNL     1       4.007   6.513  17.424  0.00  0.00    +0.000 A 
ATOM     28  C   UNL     1       3.359   6.270  18.663  0.00  0.00    +0.000 A 
ATOM     29  H   UNL     1       3.138   4.319  21.189  0.00  0.00    +0.000 HD
ENDBRANCH  17  19
ENDBRANCH   2  17
TORSDOF 6
ENDMDL
MODEL 4
REMARK VINA RESULT:      -7.7      1.011      1.160
REMARK  Name = 
REMARK  9 active torsions:
REMARK  status: ('A' for Active; 'I' for Inactive)
REMARK    1  A    between atoms: C_1  and  O_2
REMARK    2  A    between atoms: O_2  and  C_3
REMARK    3  A    between atoms: C_6  and  C_7
REMARK    4  A    between atoms: C_7  and  C_8
REMARK    5  A    between atoms: C_7  and  N_9
REMARK    6  A    between atoms: C_10  and  C_12
REMARK    7  A    between atoms: C_12  and  C_14
REMARK    8  A    between atoms: C_25  and  O_26
REMARK    9  A    between atoms: O_26  and  C_27
REMARK                            x       y       z     vdW  Elec       q    Type
REMARK                         _______ _______ _______ _____ _____    ______ ____
ROOT
ATOM      1  N   UNL     1       3.743   5.450  19.717  0.00  0.00    +0.000 N 
ATOM      2  C   UNL     1       3.670   4.841  18.439  0.00  0.00    +0.000 C 
ATOM      3  O   UNL     1       2.688   4.809  17.728  0.00  0.00    +0.000 OA
ATOM      4  H   UNL     1       4.598   5.245  20.223  0.00  0.00    +0.000 HD
ENDROOT
BRANCH   1   5
ATOM      5  C   UNL     1       2.585   5.956  20.483  0.00  0.00    +0.000 C 
ATOM      6  C   UNL     1       1.396   4.990  20.421  0.00  0.00    +0.000 C 
BRANCH   5  10
ATOM      7  C   UNL     1       0.734   9.784  19.275  0.00  0.00    +0.000 A 
ATOM      8  C   UNL     1       1.632   9.117  18.426  0.00  0.00    +0.000 A 
ATOM      9  C   UNL     1       2.271   7.915  18.807  0.00  0.00    +0.000 A 
ATOM     10  C   UNL     1       2.059   7.353  20.069  0.00  0.00    +0.000 A 
ATOM     11  C   UNL     1       1.177   8.058  20.928  0.00  0.00    +0.000 A 
ATOM     12  C   UNL     1       0.518   9.259  20.556  0.00  0.00    +0.000 A 
BRANCH   7  14
ATOM     13  C   UNL     1       0.862  12.150  18.981  0.00  0.00    +0.000 C 
ATOM     14  O   UNL     1       0.104  10.945  18.911  0.00  0.00    +0.000 OA
ENDBRANCH   7  14
BRANCH  12  15
ATOM     15  O   UNL     1      -0.311   9.739  21.541  0.00  0.00    +0.000 OA
ATOM     16  C   UNL     1       0.038   9.562  22.911  0.00  0.00    +0.000 C 
ENDBRANCH  12  15
ENDBRANCH   5  10
ENDBRANCH   1   5
BRANCH   2  17
ATOM     17  C   UNL     1       4.992   4.164  18.003  0.00  0.00    +0.000 C 
ATOM     18  O   UNL     1       5.313   3.253  18.773  0.00  0.00    +0.000 OA
BRANCH  17  19
ATOM     19  C   UNL     1       5.904   4.474  16.875  0.00  0.00    +0.000 A 
ATOM     20  C   UNL     1       7.149   5.020  17.190  0.00  0.00    +0.000 A 
ATOM     21  N   UNL     1       7.563   5.744  16.119  0.00  0.00    +0.000 N 
ATOM     22  C   UNL     1       7.104   5.112  14.994  0.00  0.00    +0.000 A 
ATOM     23  C   UNL     1       7.608   5.203  13.688  0.00  0.00    +0.000 A 
ATOM     24  C   UNL     1       7.001   4.418  12.720  0.00  0.00    +0.000 A 
ATOM     25  C   UNL     1       5.878   3.665  13.050  0.00  0.00    +0.000 A 
ATOM     26 CL   UNL     1       5.170   2.692  11.813  0.00  0.00    +0.000 Cl
ATOM     27  C   UNL     1       5.333   3.641  14.361  0.00  0.00    +0.000 A 
ATOM     28  C   UNL     1       5.997   4.335  15.406  0.00  0.00    +0.000 A 
ATOM     29  H   UNL     1       8.256   6.482  16.131  0.00  0.00    +0.000 HD
ENDBRANCH  17  19
ENDBRANCH   2  17
TORSDOF 6
ENDMDL
MODEL 5
REMARK VINA RESULT:      -7.6      0.841      1.725
REMARK  Name = 
REMARK  9 active torsions:
REMARK  status: ('A' for Active; 'I' for Inactive)
REMARK    1  A    between atoms: C_1  and  O_2
REMARK    2  A    between atoms: O_2  and  C_3
REMARK    3  A    between atoms: C_6  and  C_7
REMARK    4  A    between atoms: C_7  and  C_8
REMARK    5  A    between atoms: C_7  and  N_9
REMARK    6  A    between atoms: C_10  and  C_12
REMARK    7  A    between atoms: C_12  and  C_14
REMARK    8  A    between atoms: C_25  and  O_26
REMARK    9  A    between atoms: O_26  and  C_27
REMARK                            x       y       z     vdW  Elec       q    Type
REMARK                         _______ _______ _______ _____ _____    ______ ____
ROOT
ATOM      1  N   UNL     1       3.219   5.140  18.802  0.00  0.00    +0.000 N 
ATOM      2  C   UNL     1       4.403   4.425  18.491  0.00  0.00    +0.000 C 
ATOM      3  O   UNL     1       5.275   4.127  19.281  0.00  0.00    +0.000 OA
ATOM      4  H   UNL     1       2.684   5.425  17.987  0.00  0.00    +0.000 HD
ENDROOT
BRANCH   1   5
ATOM      5  C   UNL     1       2.953   5.825  20.083  0.00  0.00    +0.000 C 
ATOM      6  C   UNL     1       2.301   4.885  21.105  0.00  0.00    +0.000 C 
BRANCH   5  10
ATOM      7  C   UNL     1       0.745   9.650  19.895  0.00  0.00    +0.000 A 
ATOM      8  C   UNL     1       0.582   8.775  20.981  0.00  0.00    +0.000 A 
ATOM      9  C   UNL     1       1.241   7.527  21.044  0.00  0.00    +0.000 A 
ATOM     10  C   UNL     1       2.067   7.093  20.001  0.00  0.00    +0.000 A 
ATOM     11  C   UNL     1       2.193   7.973  18.896  0.00  0.00    +0.000 A 
ATOM     12  C   UNL     1       1.547   9.235  18.824  0.00  0.00    +0.000 A 
BRANCH   7  14
ATOM     13  C   UNL     1      -1.164  10.906  19.203  0.00  0.00    +0.000 C 
ATOM     14  O   UNL     1       0.116  10.866  19.830  0.00  0.00    +0.000 OA
ENDBRANCH   7  14
BRANCH  12  15
ATOM     15  O   UNL     1       1.847   9.922  17.672  0.00  0.00    +0.000 OA
ATOM     16  C   UNL     1       2.476  11.198  17.750  0.00  0.00    +0.000 C 
ENDBRANCH  12  15
ENDBRANCH   5  10
ENDBRANCH   1   5
BRANCH   2  17
ATOM     17  C   UNL     1       4.523   4.052  16.994  0.00  0.00    +0.000 C 
ATOM     18  O   UNL     1       3.585   3.340  16.625  0.00  0.00    +0.000 OA
BRANCH  17  19
ATOM     19  C   UNL     1       5.581   4.376  16.005  0.00  0.00    +0.000 A 
ATOM     20  C   UNL     1       6.718   5.033  16.477  0.00  0.00    +0.000 A 
ATOM     21  N   UNL     1       7.248   5.733  15.441  0.00  0.00    +0.000 N 
ATOM     22  C   UNL     1       7.020   5.013  14.299  0.00  0.00    +0.000 A 
ATOM     23  C   UNL     1       7.719   5.078  13.084  0.00  0.00    +0.000 A 
ATOM     24  C   UNL     1       7.330   4.202  12.084  0.00  0.00    +0.000 A 
ATOM     25  C   UNL     1       6.223   3.381  12.279  0.00  0.00    +0.000 A 
ATOM     26 CL   UNL     1       5.791   2.296  11.008  0.00  0.00    +0.000 Cl
ATOM     27  C   UNL     1       5.479   3.379  13.488  0.00  0.00    +0.000 A 
ATOM     28  C   UNL     1       5.917   4.173  14.580  0.00  0.00    +0.000 A 
ATOM     29  H   UNL     1       7.877   6.522  15.516  0.00  0.00    +0.000 HD
ENDBRANCH  17  19
ENDBRANCH   2  17
TORSDOF 6
ENDMDL
MODEL 6
REMARK VINA RESULT:      -7.5      3.971      6.129
REMARK  Name = 
REMARK  9 active torsions:
REMARK  status: ('A' for Active; 'I' for Inactive)
REMARK    1  A    between atoms: C_1  and  O_2
REMARK    2  A    between atoms: O_2  and  C_3
REMARK    3  A    between atoms: C_6  and  C_7
REMARK    4  A    between atoms: C_7  and  C_8
REMARK    5  A    between atoms: C_7  and  N_9
REMARK    6  A    between atoms: C_10  and  C_12
REMARK    7  A    between atoms: C_12  and  C_14
REMARK    8  A    between atoms: C_25  and  O_26
REMARK    9  A    between atoms: O_26  and  C_27
REMARK                            x       y       z     vdW  Elec       q    Type
REMARK                         _______ _______ _______ _____ _____    ______ ____
ROOT
ATOM      1  N   UNL     1       1.062   9.740  18.235  0.00  0.00    +0.000 N 
ATOM      2  C   UNL     1       1.669   8.629  18.873  0.00  0.00    +0.000 C 
ATOM      3  O   UNL     1       1.479   8.284  20.020  0.00  0.00    +0.000 OA
ATOM      4  H   UNL     1       1.456   9.960  17.326  0.00  0.00    +0.000 HD
ENDROOT
BRANCH   1   5
ATOM      5  C   UNL     1       0.268  10.782  18.919  0.00  0.00    +0.000 C 
ATOM      6  C   UNL     1       0.355  10.653  20.444  0.00  0.00    +0.000 C 
BRANCH   5  10
ATOM      7  C   UNL     1      -3.924  11.138  17.562  0.00  0.00    +0.000 A 
ATOM      8  C   UNL     1      -3.482  11.795  18.721  0.00  0.00    +0.000 A 
ATOM      9  C   UNL     1      -2.160  11.662  19.201  0.00  0.00    +0.000 A 
ATOM     10  C   UNL     1      -1.237  10.836  18.552  0.00  0.00    +0.000 A 
ATOM     11  C   UNL     1      -1.708  10.151  17.404  0.00  0.00    +0.000 A 
ATOM     12  C   UNL     1      -3.030  10.284  16.903  0.00  0.00    +0.000 A 
BRANCH   7  14
ATOM     13  C   UNL     1      -6.261  11.241  18.039  0.00  0.00    +0.000 C 
ATOM     14  O   UNL     1      -5.202  11.267  17.085  0.00  0.00    +0.000 OA
ENDBRANCH   7  14
BRANCH  12  15
ATOM     15  O   UNL     1      -3.243   9.549  15.761  0.00  0.00    +0.000 OA
ATOM     16  C   UNL     1      -3.084  10.160  14.484  0.00  0.00    +0.000 C 
ENDBRANCH  12  15
ENDBRANCH   5  10
ENDBRANCH   1   5
BRANCH   2  17
ATOM     17  C   UNL     1       2.660   7.864  17.964  0.00  0.00    +0.000 C 
ATOM     18  O   UNL     1       3.070   8.570  17.038  0.00  0.00    +0.000 OA
BRANCH  17  19
ATOM     19  C   UNL     1       3.124   6.455  18.020  0.00  0.00    +0.000 A 
ATOM     20  C   UNL     1       4.288   6.137  17.318  0.00  0.00    +0.000 A 
ATOM     21  N   UNL     1       4.228   4.818  17.000  0.00  0.00    +0.000 N 
ATOM     22  C   UNL     1       3.576   4.179  18.019  0.00  0.00    +0.000 A 
ATOM     23  C   UNL     1       3.643   2.822  18.369  0.00  0.00    +0.000 A 
ATOM     24  C   UNL     1       2.926   2.420  19.484  0.00  0.00    +0.000 A 
ATOM     25  C   UNL     1       2.105   3.333  20.140  0.00  0.00    +0.000 A 
ATOM     26 CL   UNL     1       1.247   2.786  21.534  0.00  0.00    +0.000 Cl
ATOM     27  C   UNL     1       1.989   4.688  19.730  0.00  0.00    +0.000 A 
ATOM     28  C   UNL     1       2.799   5.167  18.668  0.00  0.00    +0.000 A 
ATOM     29  H   UNL     1       4.750   4.360  16.264  0.00  0.00    +0.000 HD
ENDBRANCH  17  19
ENDBRANCH   2  17
TORSDOF 6
ENDMDL
MODEL 7
REMARK VINA RESULT:      -7.4      4.469      6.834
REMARK  Name = 
REMARK  9 active torsions:
REMARK  status: ('A' for Active; 'I' for Inactive)
REMARK    1  A    between atoms: C_1  and  O_2
REMARK    2  A    between atoms: O_2  and  C_3
REMARK    3  A    between atoms: C_6  and  C_7
REMARK    4  A    between atoms: C_7  and  C_8
REMARK    5  A    between atoms: C_7  and  N_9
REMARK    6  A    between atoms: C_10  and  C_12
REMARK    7  A    between atoms: C_12  and  C_14
REMARK    8  A    between atoms: C_25  and  O_26
REMARK    9  A    between atoms: O_26  and  C_27
REMARK                            x       y       z     vdW  Elec       q    Type
REMARK                         _______ _______ _______ _____ _____    ______ ____
ROOT
ATOM      1  N   UNL     1       0.550  10.471  19.151  0.00  0.00    +0.000 N 
ATOM      2  C   UNL     1       1.459   9.559  18.557  0.00  0.00    +0.000 C 
ATOM      3  O   UNL     1       1.964   9.680  17.461  0.00  0.00    +0.000 OA
ATOM      4  H   UNL     1       0.120  10.127  20.004  0.00  0.00    +0.000 HD
ENDROOT
BRANCH   1   5
ATOM      5  C   UNL     1      -0.094  11.602  18.454  0.00  0.00    +0.000 C 
ATOM      6  C   UNL     1       0.178  12.935  19.161  0.00  0.00    +0.000 C 
BRANCH   5  10
ATOM      7  C   UNL     1      -4.447  11.604  17.682  0.00  0.00    +0.000 A 
ATOM      8  C   UNL     1      -3.940  11.894  18.959  0.00  0.00    +0.000 A 
ATOM      9  C   UNL     1      -2.556  11.857  19.242  0.00  0.00    +0.000 A 
ATOM     10  C   UNL     1      -1.628  11.494  18.261  0.00  0.00    +0.000 A 
ATOM     11  C   UNL     1      -2.159  11.169  16.987  0.00  0.00    +0.000 A 
ATOM     12  C   UNL     1      -3.544  11.214  16.684  0.00  0.00    +0.000 A 
BRANCH   7  14
ATOM     13  C   UNL     1      -6.431  12.914  17.470  0.00  0.00    +0.000 C 
ATOM     14  O   UNL     1      -5.786  11.645  17.396  0.00  0.00    +0.000 OA
ENDBRANCH   7  14
BRANCH  12  15
ATOM     15  O   UNL     1      -3.814  10.889  15.376  0.00  0.00    +0.000 OA
ATOM     16  C   UNL     1      -2.945  10.009  14.669  0.00  0.00    +0.000 C 
ENDBRANCH  12  15
ENDBRANCH   5  10
ENDBRANCH   1   5
BRANCH   2  17
ATOM     17  C   UNL     1       1.756   8.323  19.439  0.00  0.00    +0.000 C 
ATOM     18  O   UNL     1       1.458   8.523  20.620  0.00  0.00    +0.000 OA
BRANCH  17  19
ATOM     19  C   UNL     1       2.364   7.015  19.089  0.00  0.00    +0.000 A 
ATOM     20  C   UNL     1       3.421   7.025  18.177  0.00  0.00    +0.000 A 
ATOM     21  N   UNL     1       3.443   5.815  17.561  0.00  0.00    +0.000 N 
ATOM     22  C   UNL     1       3.039   4.881  18.476  0.00  0.00    +0.000 A 
ATOM     23  C   UNL     1       3.302   3.503  18.475  0.00  0.00    +0.000 A 
ATOM     24  C   UNL     1       2.826   2.768  19.549  0.00  0.00    +0.000 A 
ATOM     25  C   UNL     1       2.037   3.389  20.513  0.00  0.00    +0.000 A 
ATOM     26 CL   UNL     1       1.484   2.433  21.839  0.00  0.00    +0.000 Cl
ATOM     27  C   UNL     1       1.717   4.772  20.462  0.00  0.00    +0.000 A 
ATOM     28  C   UNL     1       2.285   5.583  19.445  0.00  0.00    +0.000 A 
ATOM     29  H   UNL     1       3.878   5.609  16.671  0.00  0.00    +0.000 HD
ENDBRANCH  17  19
ENDBRANCH   2  17
TORSDOF 6
ENDMDL
MODEL 8
REMARK VINA RESULT:      -7.3      3.709      8.390
REMARK  Name = 
REMARK  9 active torsions:
REMARK  status: ('A' for Active; 'I' for Inactive)
REMARK    1  A    between atoms: C_1  and  O_2
REMARK    2  A    between atoms: O_2  and  C_3
REMARK    3  A    between atoms: C_6  and  C_7
REMARK    4  A    between atoms: C_7  and  C_8
REMARK    5  A    between atoms: C_7  and  N_9
REMARK    6  A    between atoms: C_10  and  C_12
REMARK    7  A    between atoms: C_12  and  C_14
REMARK    8  A    between atoms: C_25  and  O_26
REMARK    9  A    between atoms: O_26  and  C_27
REMARK                            x       y       z     vdW  Elec       q    Type
REMARK                         _______ _______ _______ _____ _____    ______ ____
ROOT
ATOM      1  N   UNL     1       3.071   4.785  18.220  0.00  0.00    +0.000 N 
ATOM      2  C   UNL     1       3.470   5.669  19.255  0.00  0.00    +0.000 C 
ATOM      3  O   UNL     1       4.581   5.736  19.736  0.00  0.00    +0.000 OA
ATOM      4  H   UNL     1       2.070   4.769  18.054  0.00  0.00    +0.000 HD
ENDROOT
BRANCH   1   5
ATOM      5  C   UNL     1       3.879   3.659  17.709  0.00  0.00    +0.000 C 
ATOM      6  C   UNL     1       4.521   2.856  18.847  0.00  0.00    +0.000 C 
BRANCH   5  10
ATOM      7  C   UNL     1       6.949   5.072  14.859  0.00  0.00    +0.000 A 
ATOM      8  C   UNL     1       6.028   4.077  14.494  0.00  0.00    +0.000 A 
ATOM      9  C   UNL     1       5.066   3.576  15.400  0.00  0.00    +0.000 A 
ATOM     10  C   UNL     1       5.012   4.033  16.720  0.00  0.00    +0.000 A 
ATOM     11  C   UNL     1       5.972   5.012  17.084  0.00  0.00    +0.000 A 
ATOM     12  C   UNL     1       6.936   5.533  16.182  0.00  0.00    +0.000 A 
BRANCH   7  14
ATOM     13  C   UNL     1       7.765   5.181  12.618  0.00  0.00    +0.000 C 
ATOM     14  O   UNL     1       7.880   5.569  13.985  0.00  0.00    +0.000 OA
ENDBRANCH   7  14
BRANCH  12  15
ATOM     15  O   UNL     1       7.735   6.494  16.753  0.00  0.00    +0.000 OA
ATOM     16  C   UNL     1       7.628   6.769  18.147  0.00  0.00    +0.000 C 
ENDBRANCH  12  15
ENDBRANCH   5  10
ENDBRANCH   1   5
BRANCH   2  17
ATOM     17  C   UNL     1       2.322   6.571  19.769  0.00  0.00    +0.000 C 
ATOM     18  O   UNL     1       1.680   6.023  20.670  0.00  0.00    +0.000 OA
BRANCH  17  19
ATOM     19  C   UNL     1       1.881   7.915  19.320  0.00  0.00    +0.000 A 
ATOM     20  C   UNL     1       2.041   8.221  17.968  0.00  0.00    +0.000 A 
ATOM     21  N   UNL     1       2.151   9.570  17.863  0.00  0.00    +0.000 N 
ATOM     22  C   UNL     1       1.361  10.124  18.835  0.00  0.00    +0.000 A 
ATOM     23  C   UNL     1       0.806  11.412  18.865  0.00  0.00    +0.000 A 
ATOM     24  C   UNL     1      -0.010  11.723  19.940  0.00  0.00    +0.000 A 
ATOM     25  C   UNL     1      -0.164  10.806  20.976  0.00  0.00    +0.000 A 
ATOM     26 CL   UNL     1      -1.206  11.235  22.283  0.00  0.00    +0.000 Cl
ATOM     27  C   UNL     1       0.464   9.532  20.967  0.00  0.00    +0.000 A 
ATOM     28  C   UNL     1       1.209   9.129  19.829  0.00  0.00    +0.000 A 
ATOM     29  H   UNL     1       2.560  10.076  17.087  0.00  0.00    +0.000 HD
ENDBRANCH  17  19
ENDBRANCH   2  17
TORSDOF 6
ENDMDL
MODEL 9
REMARK VINA RESULT:      -7.3      3.723      5.609
REMARK  Name = 
REMARK  9 active torsions:
REMARK  status: ('A' for Active; 'I' for Inactive)
REMARK    1  A    between atoms: C_1  and  O_2
REMARK    2  A    between atoms: O_2  and  C_3
REMARK    3  A    between atoms: C_6  and  C_7
REMARK    4  A    between atoms: C_7  and  C_8
REMARK    5  A    between atoms: C_7  and  N_9
REMARK    6  A    between atoms: C_10  and  C_12
REMARK    7  A    between atoms: C_12  and  C_14
REMARK    8  A    between atoms: C_25  and  O_26
REMARK    9  A    between atoms: O_26  and  C_27
REMARK                            x       y       z     vdW  Elec       q    Type
REMARK                         _______ _______ _______ _____ _____    ______ ____
ROOT
ATOM      1  N   UNL     1       1.139   9.894  18.684  0.00  0.00    +0.000 N 
ATOM      2  C   UNL     1       1.741   8.666  19.057  0.00  0.00    +0.000 C 
ATOM      3  O   UNL     1       1.585   8.096  20.116  0.00  0.00    +0.000 OA
ATOM      4  H   UNL     1       1.505  10.287  17.823  0.00  0.00    +0.000 HD
ENDROOT
BRANCH   1   5
ATOM      5  C   UNL     1       0.397  10.787  19.597  0.00  0.00    +0.000 C 
ATOM      6  C   UNL     1       0.467  10.300  21.050  0.00  0.00    +0.000 C 
BRANCH   5  10
ATOM      7  C   UNL     1      -3.759  11.593  18.325  0.00  0.00    +0.000 A 
ATOM      8  C   UNL     1      -3.218  12.215  19.462  0.00  0.00    +0.000 A 
ATOM      9  C   UNL     1      -1.908  11.941  19.915  0.00  0.00    +0.000 A 
ATOM     10  C   UNL     1      -1.100  11.005  19.263  0.00  0.00    +0.000 A 
ATOM     11  C   UNL     1      -1.674  10.358  18.138  0.00  0.00    +0.000 A 
ATOM     12  C   UNL     1      -2.983  10.632  17.664  0.00  0.00    +0.000 A 
BRANCH   7  14
ATOM     13  C   UNL     1      -6.078  11.024  18.353  0.00  0.00    +0.000 C 
ATOM     14  O   UNL     1      -5.026  11.858  17.874  0.00  0.00    +0.000 OA
ENDBRANCH   7  14
BRANCH  12  15
ATOM     15  O   UNL     1      -3.306   9.907  16.542  0.00  0.00    +0.000 OA
ATOM     16  C   UNL     1      -3.034  10.441  15.249  0.00  0.00    +0.000 C 
ENDBRANCH  12  15
ENDBRANCH   5  10
ENDBRANCH   1   5
BRANCH   2  17
ATOM     17  C   UNL     1       2.678   8.085  17.971  0.00  0.00    +0.000 C 
ATOM     18  O   UNL     1       2.919   8.911  17.086  0.00  0.00    +0.000 OA
BRANCH  17  19
ATOM     19  C   UNL     1       3.259   6.727  17.829  0.00  0.00    +0.000 A 
ATOM     20  C   UNL     1       4.646   6.635  17.697  0.00  0.00    +0.000 A 
ATOM     21  N   UNL     1       4.919   5.489  17.022  0.00  0.00    +0.000 N 
ATOM     22  C   UNL     1       3.976   4.565  17.384  0.00  0.00    +0.000 A 
ATOM     23  C   UNL     1       4.068   3.166  17.316  0.00  0.00    +0.000 A 
ATOM     24  C   UNL     1       2.991   2.438  17.796  0.00  0.00    +0.000 A 
ATOM     25  C   UNL     1       1.845   3.104  18.222  0.00  0.00    +0.000 A 
ATOM     26 CL   UNL     1       0.539   2.151  18.826  0.00  0.00    +0.000 Cl
ATOM     27  C   UNL     1       1.738   4.520  18.216  0.00  0.00    +0.000 A 
ATOM     28  C   UNL     1       2.862   5.303  17.846  0.00  0.00    +0.000 A 
ATOM     29  H   UNL     1       5.773   5.283  16.520  0.00  0.00    +0.000 HD
ENDBRANCH  17  19
ENDBRANCH   2  17
TORSDOF 6
ENDMDL
