MODEL 1
REMARK VINA RESULT:      -9.1      0.000      0.000
REMARK  Name = 
REMARK  9 active torsions:
REMARK  status: ('A' for Active; 'I' for Inactive)
REMARK    1  A    between atoms: C_1  and  C_2
REMARK    2  A    between atoms: C_6  and  N_7
REMARK    3  A    between atoms: N_7  and  C_8
REMARK    4  A    between atoms: C_13  and  C_14
REMARK    5  A    between atoms: C_14  and  O_16
REMARK    6  A    between atoms: O_16  and  C_17
REMARK    7  A    between atoms: C_17  and  C_18
REMARK    8  A    between atoms: C_19  and  C_20
REMARK    9  A    between atoms: C_26  and  C_27
REMARK                            x       y       z     vdW  Elec       q    Type
REMARK                         _______ _______ _______ _____ _____    ______ ____
ROOT
ATOM      1  C   UNL     1       2.415   4.991  20.019  0.00  0.00    +0.000 A 
ATOM      2  C   UNL     1       1.165   4.428  20.372  0.00  0.00    +0.000 A 
ATOM      3  C   UNL     1       0.812   3.121  20.037  0.00  0.00    +0.000 A 
ATOM      4  C   UNL     1       1.724   2.322  19.368  0.00  0.00    +0.000 A 
ATOM      5  C   UNL     1       2.993   2.824  19.074  0.00  0.00    +0.000 A 
ATOM      6  C   UNL     1       3.366   4.149  19.405  0.00  0.00    +0.000 A 
ENDROOT
BRANCH   1   7
ATOM      7  N   UNL     1       2.657   6.350  20.361  0.00  0.00    +0.000 N 
ATOM      8  H   UNL     1       3.621   6.511  20.660  0.00  0.00    +0.000 HD
BRANCH   7  14
ATOM      9  C   UNL     1       0.035  10.638  20.250  0.00  0.00    +0.000 C 
ATOM     10  C   UNL     1       0.897   9.586  19.603  0.00  0.00    +0.000 A 
ATOM     11  C   UNL     1       1.151   9.689  18.228  0.00  0.00    +0.000 A 
ATOM     12  C   UNL     1       1.922   8.734  17.579  0.00  0.00    +0.000 A 
ATOM     13  C   UNL     1       2.431   7.656  18.296  0.00  0.00    +0.000 A 
ATOM     14  C   UNL     1       2.154   7.489  19.666  0.00  0.00    +0.000 A 
ATOM     15  C   UNL     1       1.408   8.483  20.337  0.00  0.00    +0.000 A 
ATOM     16  C   UNL     1       1.113   8.378  21.812  0.00  0.00    +0.000 C 
ENDBRANCH   7  14
ENDBRANCH   1   7
BRANCH   6  17
ATOM     17  C   UNL     1       4.791   4.495  19.094  0.00  0.00    +0.000 C 
ATOM     18  O   UNL     1       5.730   3.882  19.582  0.00  0.00    +0.000 OA
BRANCH  17  19
ATOM     19  O   UNL     1       4.916   5.591  18.299  0.00  0.00    +0.000 OA
BRANCH  19  20
ATOM     20  C   UNL     1       6.271   6.011  18.060  0.00  0.00    +0.000 C 
BRANCH  20  21
ATOM     21  C   UNL     1       6.759   5.585  16.706  0.00  0.00    +0.000 C 
ATOM     22  C   UNL     1       5.987   4.943  15.809  0.00  0.00    +0.000 C 
BRANCH  22  23
ATOM     23  C   UNL     1       6.376   4.607  14.429  0.00  0.00    +0.000 A 
ATOM     24  C   UNL     1       5.600   3.690  13.706  0.00  0.00    +0.000 A 
ATOM     25  C   UNL     1       5.907   3.379  12.378  0.00  0.00    +0.000 A 
ATOM     26  C   UNL     1       6.986   3.996  11.750  0.00  0.00    +0.000 A 
ATOM     27  C   UNL     1       7.752   4.928  12.446  0.00  0.00    +0.000 A 
ATOM     28  C   UNL     1       7.444   5.236  13.776  0.00  0.00    +0.000 A 
ENDBRANCH  22  23
ENDBRANCH  20  21
ENDBRANCH  19  20
ENDBRANCH  17  19
ENDBRANCH   6  17
TORSDOF 7
ENDMDL
MODEL 2
REMARK VINA RESULT:      -8.9      4.278      7.016
REMARK  Name = 
REMARK  9 active torsions:
REMARK  status: ('A' for Active; 'I' for Inactive)
REMARK    1  A    between atoms: C_1  and  C_2
REMARK    2  A    between atoms: C_6  and  N_7
REMARK    3  A    between atoms: N_7  and  C_8
REMARK    4  A    between atoms: C_13  and  C_14
REMARK    5  A    between atoms: C_14  and  O_16
REMARK    6  A    between atoms: O_16  and  C_17
REMARK    7  A    between atoms: C_17  and  C_18
REMARK    8  A    between atoms: C_19  and  C_20
REMARK    9  A    between atoms: C_26  and  C_27
REMARK                            x       y       z     vdW  Elec       q    Type
REMARK                         _______ _______ _______ _____ _____    ______ ____
ROOT
ATOM      1  C   UNL     1       5.951   4.239  16.807  0.00  0.00    +0.000 A 
ATOM      2  C   UNL     1       5.533   3.412  15.736  0.00  0.00    +0.000 A 
ATOM      3  C   UNL     1       5.848   3.692  14.407  0.00  0.00    +0.000 A 
ATOM      4  C   UNL     1       6.632   4.794  14.113  0.00  0.00    +0.000 A 
ATOM      5  C   UNL     1       7.124   5.586  15.152  0.00  0.00    +0.000 A 
ATOM      6  C   UNL     1       6.812   5.318  16.507  0.00  0.00    +0.000 A 
ENDROOT
BRANCH   1   7
ATOM      7  N   UNL     1       5.531   3.897  18.121  0.00  0.00    +0.000 N 
ATOM      8  H   UNL     1       6.307   3.882  18.786  0.00  0.00    +0.000 HD
BRANCH   7  14
ATOM      9  C   UNL     1       1.764   3.214  21.378  0.00  0.00    +0.000 C 
ATOM     10  C   UNL     1       2.509   4.029  20.354  0.00  0.00    +0.000 A 
ATOM     11  C   UNL     1       1.955   5.252  19.947  0.00  0.00    +0.000 A 
ATOM     12  C   UNL     1       2.591   6.032  18.991  0.00  0.00    +0.000 A 
ATOM     13  C   UNL     1       3.777   5.586  18.417  0.00  0.00    +0.000 A 
ATOM     14  C   UNL     1       4.337   4.341  18.759  0.00  0.00    +0.000 A 
ATOM     15  C   UNL     1       3.716   3.568  19.765  0.00  0.00    +0.000 A 
ATOM     16  C   UNL     1       4.290   2.243  20.201  0.00  0.00    +0.000 C 
ENDBRANCH   7  14
ENDBRANCH   1   7
BRANCH   6  17
ATOM     17  C   UNL     1       7.492   6.215  17.497  0.00  0.00    +0.000 C 
ATOM     18  O   UNL     1       7.593   5.918  18.678  0.00  0.00    +0.000 OA
BRANCH  17  19
ATOM     19  O   UNL     1       7.893   7.398  16.962  0.00  0.00    +0.000 OA
BRANCH  19  20
ATOM     20  C   UNL     1       7.436   8.565  17.670  0.00  0.00    +0.000 C 
BRANCH  20  21
ATOM     21  C   UNL     1       8.568   9.298  18.328  0.00  0.00    +0.000 C 
ATOM     22  C   UNL     1       9.088  10.444  17.847  0.00  0.00    +0.000 C 
BRANCH  22  23
ATOM     23  C   UNL     1      10.115  11.264  18.512  0.00  0.00    +0.000 A 
ATOM     24  C   UNL     1      10.952  12.072  17.730  0.00  0.00    +0.000 A 
ATOM     25  C   UNL     1      11.909  12.901  18.324  0.00  0.00    +0.000 A 
ATOM     26  C   UNL     1      12.029  12.945  19.711  0.00  0.00    +0.000 A 
ATOM     27  C   UNL     1      11.186  12.166  20.503  0.00  0.00    +0.000 A 
ATOM     28  C   UNL     1      10.231  11.335  19.906  0.00  0.00    +0.000 A 
ENDBRANCH  22  23
ENDBRANCH  20  21
ENDBRANCH  19  20
ENDBRANCH  17  19
ENDBRANCH   6  17
TORSDOF 7
ENDMDL
MODEL 3
REMARK VINA RESULT:      -8.9      4.091      7.026
REMARK  Name = 
REMARK  9 active torsions:
REMARK  status: ('A' for Active; 'I' for Inactive)
REMARK    1  A    between atoms: C_1  and  C_2
REMARK    2  A    between atoms: C_6  and  N_7
REMARK    3  A    between atoms: N_7  and  C_8
REMARK    4  A    between atoms: C_13  and  C_14
REMARK    5  A    between atoms: C_14  and  O_16
REMARK    6  A    between atoms: O_16  and  C_17
REMARK    7  A    between atoms: C_17  and  C_18
REMARK    8  A    between atoms: C_19  and  C_20
REMARK    9  A    between atoms: C_26  and  C_27
REMARK                            x       y       z     vdW  Elec       q    Type
REMARK                         _______ _______ _______ _____ _____    ______ ____
ROOT
ATOM      1  C   UNL     1       5.896   4.274  17.702  0.00  0.00    +0.000 A 
ATOM      2  C   UNL     1       5.528   3.642  16.490  0.00  0.00    +0.000 A 
ATOM      3  C   UNL     1       6.021   4.054  15.252  0.00  0.00    +0.000 A 
ATOM      4  C   UNL     1       6.935   5.093  15.197  0.00  0.00    +0.000 A 
ATOM      5  C   UNL     1       7.376   5.685  16.382  0.00  0.00    +0.000 A 
ATOM      6  C   UNL     1       6.883   5.281  17.646  0.00  0.00    +0.000 A 
ENDROOT
BRANCH   1   7
ATOM      7  N   UNL     1       5.295   3.814  18.906  0.00  0.00    +0.000 N 
ATOM      8  H   UNL     1       5.907   3.930  19.715  0.00  0.00    +0.000 HD
BRANCH   7  14
ATOM      9  C   UNL     1       0.553   2.171  19.195  0.00  0.00    +0.000 C 
ATOM     10  C   UNL     1       1.625   3.199  19.446  0.00  0.00    +0.000 A 
ATOM     11  C   UNL     1       1.247   4.430  20.003  0.00  0.00    +0.000 A 
ATOM     12  C   UNL     1       2.193   5.420  20.234  0.00  0.00    +0.000 A 
ATOM     13  C   UNL     1       3.522   5.195  19.892  0.00  0.00    +0.000 A 
ATOM     14  C   UNL     1       3.932   3.995  19.282  0.00  0.00    +0.000 A 
ATOM     15  C   UNL     1       2.980   2.969  19.088  0.00  0.00    +0.000 A 
ATOM     16  C   UNL     1       3.366   1.647  18.475  0.00  0.00    +0.000 C 
ENDBRANCH   7  14
ENDBRANCH   1   7
BRANCH   6  17
ATOM     17  C   UNL     1       7.525   5.964  18.817  0.00  0.00    +0.000 C 
ATOM     18  O   UNL     1       7.287   5.635  19.970  0.00  0.00    +0.000 OA
BRANCH  17  19
ATOM     19  O   UNL     1       8.311   7.014  18.460  0.00  0.00    +0.000 OA
BRANCH  19  20
ATOM     20  C   UNL     1       7.627   8.066  17.755  0.00  0.00    +0.000 C 
BRANCH  20  21
ATOM     21  C   UNL     1       8.179   9.420  18.097  0.00  0.00    +0.000 C 
ATOM     22  C   UNL     1       9.192   9.608  18.964  0.00  0.00    +0.000 C 
BRANCH  22  23
ATOM     23  C   UNL     1       9.847  10.897  19.247  0.00  0.00    +0.000 A 
ATOM     24  C   UNL     1       9.770  11.431  20.541  0.00  0.00    +0.000 A 
ATOM     25  C   UNL     1      10.417  12.627  20.864  0.00  0.00    +0.000 A 
ATOM     26  C   UNL     1      11.165  13.298  19.899  0.00  0.00    +0.000 A 
ATOM     27  C   UNL     1      11.271  12.767  18.615  0.00  0.00    +0.000 A 
ATOM     28  C   UNL     1      10.621  11.571  18.293  0.00  0.00    +0.000 A 
ENDBRANCH  22  23
ENDBRANCH  20  21
ENDBRANCH  19  20
ENDBRANCH  17  19
ENDBRANCH   6  17
TORSDOF 7
ENDMDL
MODEL 4
REMARK VINA RESULT:      -8.8      3.786      6.853
REMARK  Name = 
REMARK  9 active torsions:
REMARK  status: ('A' for Active; 'I' for Inactive)
REMARK    1  A    between atoms: C_1  and  C_2
REMARK    2  A    between atoms: C_6  and  N_7
REMARK    3  A    between atoms: N_7  and  C_8
REMARK    4  A    between atoms: C_13  and  C_14
REMARK    5  A    between atoms: C_14  and  O_16
REMARK    6  A    between atoms: O_16  and  C_17
REMARK    7  A    between atoms: C_17  and  C_18
REMARK    8  A    between atoms: C_19  and  C_20
REMARK    9  A    between atoms: C_26  and  C_27
REMARK                            x       y       z     vdW  Elec       q    Type
REMARK                         _______ _______ _______ _____ _____    ______ ____
ROOT
ATOM      1  C   UNL     1       5.732   3.866  15.871  0.00  0.00    +0.000 A 
ATOM      2  C   UNL     1       5.391   3.472  14.554  0.00  0.00    +0.000 A 
ATOM      3  C   UNL     1       6.027   3.995  13.429  0.00  0.00    +0.000 A 
ATOM      4  C   UNL     1       7.058   4.905  13.593  0.00  0.00    +0.000 A 
ATOM      5  C   UNL     1       7.468   5.255  14.880  0.00  0.00    +0.000 A 
ATOM      6  C   UNL     1       6.833   4.735  16.033  0.00  0.00    +0.000 A 
ENDROOT
BRANCH   1   7
ATOM      7  N   UNL     1       4.988   3.313  16.949  0.00  0.00    +0.000 N 
ATOM      8  H   UNL     1       5.576   2.792  17.601  0.00  0.00    +0.000 HD
BRANCH   7  14
ATOM      9  C   UNL     1       0.902   3.139  19.873  0.00  0.00    +0.000 C 
ATOM     10  C   UNL     1       1.944   3.886  19.081  0.00  0.00    +0.000 A 
ATOM     11  C   UNL     1       1.810   5.276  18.952  0.00  0.00    +0.000 A 
ATOM     12  C   UNL     1       2.730   6.008  18.215  0.00  0.00    +0.000 A 
ATOM     13  C   UNL     1       3.782   5.355  17.582  0.00  0.00    +0.000 A 
ATOM     14  C   UNL     1       3.921   3.955  17.643  0.00  0.00    +0.000 A 
ATOM     15  C   UNL     1       3.012   3.214  18.431  0.00  0.00    +0.000 A 
ATOM     16  C   UNL     1       3.133   1.717  18.565  0.00  0.00    +0.000 C 
ENDBRANCH   7  14
ENDBRANCH   1   7
BRANCH   6  17
ATOM     17  C   UNL     1       7.454   5.149  17.333  0.00  0.00    +0.000 C 
ATOM     18  O   UNL     1       7.333   4.484  18.351  0.00  0.00    +0.000 OA
BRANCH  17  19
ATOM     19  O   UNL     1       8.076   6.357  17.270  0.00  0.00    +0.000 OA
BRANCH  19  20
ATOM     20  C   UNL     1       7.225   7.487  17.534  0.00  0.00    +0.000 C 
BRANCH  20  21
ATOM     21  C   UNL     1       8.011   8.759  17.672  0.00  0.00    +0.000 C 
ATOM     22  C   UNL     1       8.470   9.221  18.850  0.00  0.00    +0.000 C 
BRANCH  22  23
ATOM     23  C   UNL     1       9.342  10.395  19.028  0.00  0.00    +0.000 A 
ATOM     24  C   UNL     1       9.733  10.763  20.323  0.00  0.00    +0.000 A 
ATOM     25  C   UNL     1      10.597  11.842  20.532  0.00  0.00    +0.000 A 
ATOM     26  C   UNL     1      11.096  12.557  19.446  0.00  0.00    +0.000 A 
ATOM     27  C   UNL     1      10.736  12.188  18.152  0.00  0.00    +0.000 A 
ATOM     28  C   UNL     1       9.869  11.109  17.944  0.00  0.00    +0.000 A 
ENDBRANCH  22  23
ENDBRANCH  20  21
ENDBRANCH  19  20
ENDBRANCH  17  19
ENDBRANCH   6  17
TORSDOF 7
ENDMDL
MODEL 5
REMARK VINA RESULT:      -8.7      4.239      7.202
REMARK  Name = 
REMARK  9 active torsions:
REMARK  status: ('A' for Active; 'I' for Inactive)
REMARK    1  A    between atoms: C_1  and  C_2
REMARK    2  A    between atoms: C_6  and  N_7
REMARK    3  A    between atoms: N_7  and  C_8
REMARK    4  A    between atoms: C_13  and  C_14
REMARK    5  A    between atoms: C_14  and  O_16
REMARK    6  A    between atoms: O_16  and  C_17
REMARK    7  A    between atoms: C_17  and  C_18
REMARK    8  A    between atoms: C_19  and  C_20
REMARK    9  A    between atoms: C_26  and  C_27
REMARK                            x       y       z     vdW  Elec       q    Type
REMARK                         _______ _______ _______ _____ _____    ______ ____
ROOT
ATOM      1  C   UNL     1       5.256   5.012  16.409  0.00  0.00    +0.000 A 
ATOM      2  C   UNL     1       4.765   4.201  15.357  0.00  0.00    +0.000 A 
ATOM      3  C   UNL     1       5.503   3.949  14.201  0.00  0.00    +0.000 A 
ATOM      4  C   UNL     1       6.779   4.473  14.081  0.00  0.00    +0.000 A 
ATOM      5  C   UNL     1       7.320   5.212  15.134  0.00  0.00    +0.000 A 
ATOM      6  C   UNL     1       6.585   5.479  16.314  0.00  0.00    +0.000 A 
ENDROOT
BRANCH   1   7
ATOM      7  N   UNL     1       4.404   5.252  17.522  0.00  0.00    +0.000 N 
ATOM      8  H   UNL     1       3.693   5.958  17.322  0.00  0.00    +0.000 HD
BRANCH   7  14
ATOM      9  C   UNL     1       0.561   2.731  19.556  0.00  0.00    +0.000 C 
ATOM     10  C   UNL     1       2.031   3.016  19.393  0.00  0.00    +0.000 A 
ATOM     11  C   UNL     1       2.935   2.330  20.217  0.00  0.00    +0.000 A 
ATOM     12  C   UNL     1       4.299   2.571  20.122  0.00  0.00    +0.000 A 
ATOM     13  C   UNL     1       4.770   3.516  19.216  0.00  0.00    +0.000 A 
ATOM     14  C   UNL     1       3.891   4.263  18.410  0.00  0.00    +0.000 A 
ATOM     15  C   UNL     1       2.507   3.986  18.472  0.00  0.00    +0.000 A 
ATOM     16  C   UNL     1       1.520   4.727  17.605  0.00  0.00    +0.000 C 
ENDBRANCH   7  14
ENDBRANCH   1   7
BRANCH   6  17
ATOM     17  C   UNL     1       7.347   6.214  17.375  0.00  0.00    +0.000 C 
ATOM     18  O   UNL     1       7.408   5.810  18.527  0.00  0.00    +0.000 OA
BRANCH  17  19
ATOM     19  O   UNL     1       7.873   7.390  16.942  0.00  0.00    +0.000 OA
BRANCH  19  20
ATOM     20  C   UNL     1       7.441   8.550  17.676  0.00  0.00    +0.000 C 
BRANCH  20  21
ATOM     21  C   UNL     1       8.593   9.261  18.327  0.00  0.00    +0.000 C 
ATOM     22  C   UNL     1       9.067  10.446  17.900  0.00  0.00    +0.000 C 
BRANCH  22  23
ATOM     23  C   UNL     1      10.113  11.240  18.568  0.00  0.00    +0.000 A 
ATOM     24  C   UNL     1      11.027  11.959  17.785  0.00  0.00    +0.000 A 
ATOM     25  C   UNL     1      12.005  12.762  18.379  0.00  0.00    +0.000 A 
ATOM     26  C   UNL     1      12.071  12.870  19.766  0.00  0.00    +0.000 A 
ATOM     27  C   UNL     1      11.154  12.181  20.557  0.00  0.00    +0.000 A 
ATOM     28  C   UNL     1      10.177  11.376  19.961  0.00  0.00    +0.000 A 
ENDBRANCH  22  23
ENDBRANCH  20  21
ENDBRANCH  19  20
ENDBRANCH  17  19
ENDBRANCH   6  17
TORSDOF 7
ENDMDL
MODEL 6
REMARK VINA RESULT:      -8.7      4.341      6.995
REMARK  Name = 
REMARK  9 active torsions:
REMARK  status: ('A' for Active; 'I' for Inactive)
REMARK    1  A    between atoms: C_1  and  C_2
REMARK    2  A    between atoms: C_6  and  N_7
REMARK    3  A    between atoms: N_7  and  C_8
REMARK    4  A    between atoms: C_13  and  C_14
REMARK    5  A    between atoms: C_14  and  O_16
REMARK    6  A    between atoms: O_16  and  C_17
REMARK    7  A    between atoms: C_17  and  C_18
REMARK    8  A    between atoms: C_19  and  C_20
REMARK    9  A    between atoms: C_26  and  C_27
REMARK                            x       y       z     vdW  Elec       q    Type
REMARK                         _______ _______ _______ _____ _____    ______ ____
ROOT
ATOM      1  C   UNL     1       5.974   4.170  17.187  0.00  0.00    +0.000 A 
ATOM      2  C   UNL     1       5.639   3.450  16.015  0.00  0.00    +0.000 A 
ATOM      3  C   UNL     1       6.046   3.856  14.746  0.00  0.00    +0.000 A 
ATOM      4  C   UNL     1       6.840   4.983  14.615  0.00  0.00    +0.000 A 
ATOM      5  C   UNL     1       7.251   5.671  15.758  0.00  0.00    +0.000 A 
ATOM      6  C   UNL     1       6.845   5.273  17.055  0.00  0.00    +0.000 A 
ENDROOT
BRANCH   1   7
ATOM      7  N   UNL     1       5.464   3.703  18.430  0.00  0.00    +0.000 N 
ATOM      8  H   UNL     1       6.170   3.712  19.168  0.00  0.00    +0.000 HD
BRANCH   7  14
ATOM      9  C   UNL     1       0.684   2.439  19.334  0.00  0.00    +0.000 C 
ATOM     10  C   UNL     1       1.854   3.382  19.430  0.00  0.00    +0.000 A 
ATOM     11  C   UNL     1       1.644   4.645  20.005  0.00  0.00    +0.000 A 
ATOM     12  C   UNL     1       2.683   5.559  20.098  0.00  0.00    +0.000 A 
ATOM     13  C   UNL     1       3.939   5.228  19.599  0.00  0.00    +0.000 A 
ATOM     14  C   UNL     1       4.176   3.993  18.967  0.00  0.00    +0.000 A 
ATOM     15  C   UNL     1       3.132   3.043  18.913  0.00  0.00    +0.000 A 
ATOM     16  C   UNL     1       3.337   1.689  18.282  0.00  0.00    +0.000 C 
ENDBRANCH   7  14
ENDBRANCH   1   7
BRANCH   6  17
ATOM     17  C   UNL     1       7.446   6.072  18.173  0.00  0.00    +0.000 C 
ATOM     18  O   UNL     1       7.754   5.563  19.240  0.00  0.00    +0.000 OA
BRANCH  17  19
ATOM     19  O   UNL     1       7.524   7.401  17.900  0.00  0.00    +0.000 OA
BRANCH  19  20
ATOM     20  C   UNL     1       8.485   8.122  18.693  0.00  0.00    +0.000 C 
BRANCH  20  21
ATOM     21  C   UNL     1       8.622   9.549  18.244  0.00  0.00    +0.000 C 
ATOM     22  C   UNL     1       9.544  10.395  18.741  0.00  0.00    +0.000 C 
BRANCH  22  23
ATOM     23  C   UNL     1       9.799  11.762  18.257  0.00  0.00    +0.000 A 
ATOM     24  C   UNL     1       8.891  12.781  18.581  0.00  0.00    +0.000 A 
ATOM     25  C   UNL     1       9.120  14.101  18.181  0.00  0.00    +0.000 A 
ATOM     26  C   UNL     1      10.270  14.423  17.465  0.00  0.00    +0.000 A 
ATOM     27  C   UNL     1      11.195  13.427  17.157  0.00  0.00    +0.000 A 
ATOM     28  C   UNL     1      10.963  12.106  17.556  0.00  0.00    +0.000 A 
ENDBRANCH  22  23
ENDBRANCH  20  21
ENDBRANCH  19  20
ENDBRANCH  17  19
ENDBRANCH   6  17
TORSDOF 7
ENDMDL
MODEL 7
REMARK VINA RESULT:      -8.7      4.144      6.858
REMARK  Name = 
REMARK  9 active torsions:
REMARK  status: ('A' for Active; 'I' for Inactive)
REMARK    1  A    between atoms: C_1  and  C_2
REMARK    2  A    between atoms: C_6  and  N_7
REMARK    3  A    between atoms: N_7  and  C_8
REMARK    4  A    between atoms: C_13  and  C_14
REMARK    5  A    between atoms: C_14  and  O_16
REMARK    6  A    between atoms: O_16  and  C_17
REMARK    7  A    between atoms: C_17  and  C_18
REMARK    8  A    between atoms: C_19  and  C_20
REMARK    9  A    between atoms: C_26  and  C_27
REMARK                            x       y       z     vdW  Elec       q    Type
REMARK                         _______ _______ _______ _____ _____    ______ ____
ROOT
ATOM      1  C   UNL     1       5.712   3.912  16.652  0.00  0.00    +0.000 A 
ATOM      2  C   UNL     1       5.580   3.308  15.378  0.00  0.00    +0.000 A 
ATOM      3  C   UNL     1       6.094   3.889  14.219  0.00  0.00    +0.000 A 
ATOM      4  C   UNL     1       6.793   5.080  14.309  0.00  0.00    +0.000 A 
ATOM      5  C   UNL     1       7.006   5.661  15.560  0.00  0.00    +0.000 A 
ATOM      6  C   UNL     1       6.490   5.086  16.747  0.00  0.00    +0.000 A 
ENDROOT
BRANCH   1   7
ATOM      7  N   UNL     1       5.106   3.266  17.765  0.00  0.00    +0.000 N 
ATOM      8  H   UNL     1       5.755   3.144  18.544  0.00  0.00    +0.000 HD
BRANCH   7  14
ATOM      9  C   UNL     1       1.535   2.711  21.259  0.00  0.00    +0.000 C 
ATOM     10  C   UNL     1       2.044   3.251  19.948  0.00  0.00    +0.000 A 
ATOM     11  C   UNL     1       1.149   3.946  19.122  0.00  0.00    +0.000 A 
ATOM     12  C   UNL     1       1.562   4.444  17.895  0.00  0.00    +0.000 A 
ATOM     13  C   UNL     1       2.871   4.235  17.472  0.00  0.00    +0.000 A 
ATOM     14  C   UNL     1       3.785   3.497  18.247  0.00  0.00    +0.000 A 
ATOM     15  C   UNL     1       3.379   3.029  19.517  0.00  0.00    +0.000 A 
ATOM     16  C   UNL     1       4.325   2.265  20.409  0.00  0.00    +0.000 C 
ENDBRANCH   7  14
ENDBRANCH   1   7
BRANCH   6  17
ATOM     17  C   UNL     1       6.883   5.793  18.009  0.00  0.00    +0.000 C 
ATOM     18  O   UNL     1       6.977   5.208  19.078  0.00  0.00    +0.000 OA
BRANCH  17  19
ATOM     19  O   UNL     1       7.034   7.134  17.848  0.00  0.00    +0.000 OA
BRANCH  19  20
ATOM     20  C   UNL     1       8.179   7.696  18.515  0.00  0.00    +0.000 C 
BRANCH  20  21
ATOM     21  C   UNL     1       8.483   9.085  18.031  0.00  0.00    +0.000 C 
ATOM     22  C   UNL     1       9.124  10.004  18.776  0.00  0.00    +0.000 C 
BRANCH  22  23
ATOM     23  C   UNL     1       9.551  11.336  18.312  0.00  0.00    +0.000 A 
ATOM     24  C   UNL     1       8.731  12.443  18.572  0.00  0.00    +0.000 A 
ATOM     25  C   UNL     1       9.120  13.730  18.191  0.00  0.00    +0.000 A 
ATOM     26  C   UNL     1      10.344  13.930  17.558  0.00  0.00    +0.000 A 
ATOM     27  C   UNL     1      11.182  12.843  17.314  0.00  0.00    +0.000 A 
ATOM     28  C   UNL     1      10.790  11.555  17.695  0.00  0.00    +0.000 A 
ENDBRANCH  22  23
ENDBRANCH  20  21
ENDBRANCH  19  20
ENDBRANCH  17  19
ENDBRANCH   6  17
TORSDOF 7
ENDMDL
MODEL 8
REMARK VINA RESULT:      -8.6      4.295      6.922
REMARK  Name = 
REMARK  9 active torsions:
REMARK  status: ('A' for Active; 'I' for Inactive)
REMARK    1  A    between atoms: C_1  and  C_2
REMARK    2  A    between atoms: C_6  and  N_7
REMARK    3  A    between atoms: N_7  and  C_8
REMARK    4  A    between atoms: C_13  and  C_14
REMARK    5  A    between atoms: C_14  and  O_16
REMARK    6  A    between atoms: O_16  and  C_17
REMARK    7  A    between atoms: C_17  and  C_18
REMARK    8  A    between atoms: C_19  and  C_20
REMARK    9  A    between atoms: C_26  and  C_27
REMARK                            x       y       z     vdW  Elec       q    Type
REMARK                         _______ _______ _______ _____ _____    ______ ____
ROOT
ATOM      1  C   UNL     1       5.889   4.080  16.930  0.00  0.00    +0.000 A 
ATOM      2  C   UNL     1       5.531   3.393  15.744  0.00  0.00    +0.000 A 
ATOM      3  C   UNL     1       5.944   3.816  14.481  0.00  0.00    +0.000 A 
ATOM      4  C   UNL     1       6.767   4.924  14.372  0.00  0.00    +0.000 A 
ATOM      5  C   UNL     1       7.200   5.576  15.527  0.00  0.00    +0.000 A 
ATOM      6  C   UNL     1       6.789   5.161  16.817  0.00  0.00    +0.000 A 
ENDROOT
BRANCH   1   7
ATOM      7  N   UNL     1       5.372   3.599  18.164  0.00  0.00    +0.000 N 
ATOM      8  H   UNL     1       6.081   3.573  18.899  0.00  0.00    +0.000 HD
BRANCH   7  14
ATOM      9  C   UNL     1       1.683   2.777  21.478  0.00  0.00    +0.000 C 
ATOM     10  C   UNL     1       2.301   3.535  20.332  0.00  0.00    +0.000 A 
ATOM     11  C   UNL     1       1.546   4.547  19.722  0.00  0.00    +0.000 A 
ATOM     12  C   UNL     1       2.060   5.261  18.648  0.00  0.00    +0.000 A 
ATOM     13  C   UNL     1       3.327   4.956  18.162  0.00  0.00    +0.000 A 
ATOM     14  C   UNL     1       4.094   3.912  18.713  0.00  0.00    +0.000 A 
ATOM     15  C   UNL     1       3.591   3.215  19.835  0.00  0.00    +0.000 A 
ATOM     16  C   UNL     1       4.384   2.113  20.492  0.00  0.00    +0.000 C 
ENDBRANCH   7  14
ENDBRANCH   1   7
BRANCH   6  17
ATOM     17  C   UNL     1       7.415   5.919  17.949  0.00  0.00    +0.000 C 
ATOM     18  O   UNL     1       7.669   5.391  19.021  0.00  0.00    +0.000 OA
BRANCH  17  19
ATOM     19  O   UNL     1       7.581   7.242  17.682  0.00  0.00    +0.000 OA
BRANCH  19  20
ATOM     20  C   UNL     1       8.365   7.958  18.654  0.00  0.00    +0.000 C 
BRANCH  20  21
ATOM     21  C   UNL     1       8.576   9.390  18.256  0.00  0.00    +0.000 C 
ATOM     22  C   UNL     1       9.514  10.182  18.811  0.00  0.00    +0.000 C 
BRANCH  22  23
ATOM     23  C   UNL     1       9.841  11.552  18.380  0.00  0.00    +0.000 A 
ATOM     24  C   UNL     1      11.117  11.817  17.864  0.00  0.00    +0.000 A 
ATOM     25  C   UNL     1      11.454  13.092  17.399  0.00  0.00    +0.000 A 
ATOM     26  C   UNL     1      10.510  14.116  17.430  0.00  0.00    +0.000 A 
ATOM     27  C   UNL     1       9.230  13.862  17.917  0.00  0.00    +0.000 A 
ATOM     28  C   UNL     1       8.895  12.586  18.383  0.00  0.00    +0.000 A 
ENDBRANCH  22  23
ENDBRANCH  20  21
ENDBRANCH  19  20
ENDBRANCH  17  19
ENDBRANCH   6  17
TORSDOF 7
ENDMDL
MODEL 9
REMARK VINA RESULT:      -8.6      3.931      6.131
REMARK  Name = 
REMARK  9 active torsions:
REMARK  status: ('A' for Active; 'I' for Inactive)
REMARK    1  A    between atoms: C_1  and  C_2
REMARK    2  A    between atoms: C_6  and  N_7
REMARK    3  A    between atoms: N_7  and  C_8
REMARK    4  A    between atoms: C_13  and  C_14
REMARK    5  A    between atoms: C_14  and  O_16
REMARK    6  A    between atoms: O_16  and  C_17
REMARK    7  A    between atoms: C_17  and  C_18
REMARK    8  A    between atoms: C_19  and  C_20
REMARK    9  A    between atoms: C_26  and  C_27
REMARK                            x       y       z     vdW  Elec       q    Type
REMARK                         _______ _______ _______ _____ _____    ______ ____
ROOT
ATOM      1  C   UNL     1       4.982   4.777  17.249  0.00  0.00    +0.000 A 
ATOM      2  C   UNL     1       4.590   4.210  16.012  0.00  0.00    +0.000 A 
ATOM      3  C   UNL     1       5.483   4.026  14.958  0.00  0.00    +0.000 A 
ATOM      4  C   UNL     1       6.814   4.371  15.127  0.00  0.00    +0.000 A 
ATOM      5  C   UNL     1       7.246   4.861  16.360  0.00  0.00    +0.000 A 
ATOM      6  C   UNL     1       6.352   5.056  17.440  0.00  0.00    +0.000 A 
ENDROOT
BRANCH   1   7
ATOM      7  N   UNL     1       3.983   4.972  18.242  0.00  0.00    +0.000 N 
ATOM      8  H   UNL     1       4.202   4.488  19.115  0.00  0.00    +0.000 HD
BRANCH   7  14
ATOM      9  C   UNL     1       0.981   7.799  21.118  0.00  0.00    +0.000 C 
ATOM     10  C   UNL     1       1.853   7.585  19.908  0.00  0.00    +0.000 A 
ATOM     11  C   UNL     1       1.926   8.609  18.953  0.00  0.00    +0.000 A 
ATOM     12  C   UNL     1       2.698   8.454  17.810  0.00  0.00    +0.000 A 
ATOM     13  C   UNL     1       3.387   7.264  17.600  0.00  0.00    +0.000 A 
ATOM     14  C   UNL     1       3.296   6.193  18.508  0.00  0.00    +0.000 A 
ATOM     15  C   UNL     1       2.549   6.366  19.695  0.00  0.00    +0.000 A 
ATOM     16  C   UNL     1       2.446   5.267  20.723  0.00  0.00    +0.000 C 
ENDBRANCH   7  14
ENDBRANCH   1   7
BRANCH   6  17
ATOM     17  C   UNL     1       6.998   5.508  18.716  0.00  0.00    +0.000 C 
ATOM     18  O   UNL     1       6.544   5.216  19.812  0.00  0.00    +0.000 OA
BRANCH  17  19
ATOM     19  O   UNL     1       8.065   6.326  18.516  0.00  0.00    +0.000 OA
BRANCH  19  20
ATOM     20  C   UNL     1       7.737   7.628  17.997  0.00  0.00    +0.000 C 
BRANCH  20  21
ATOM     21  C   UNL     1       8.660   8.689  18.525  0.00  0.00    +0.000 C 
ATOM     22  C   UNL     1       8.594   9.980  18.148  0.00  0.00    +0.000 C 
BRANCH  22  23
ATOM     23  C   UNL     1       9.393  11.078  18.718  0.00  0.00    +0.000 A 
ATOM     24  C   UNL     1       9.475  12.293  18.023  0.00  0.00    +0.000 A 
ATOM     25  C   UNL     1      10.183  13.377  18.550  0.00  0.00    +0.000 A 
ATOM     26  C   UNL     1      10.806  13.265  19.791  0.00  0.00    +0.000 A 
ATOM     27  C   UNL     1      10.713  12.072  20.506  0.00  0.00    +0.000 A 
ATOM     28  C   UNL     1      10.005  10.988  19.975  0.00  0.00    +0.000 A 
ENDBRANCH  22  23
ENDBRANCH  20  21
ENDBRANCH  19  20
ENDBRANCH  17  19
ENDBRANCH   6  17
TORSDOF 7
ENDMDL
