MODEL 1
REMARK VINA RESULT:      -6.8      0.000      0.000
REMARK  Name = 
REMARK  2 active torsions:
REMARK  status: ('A' for Active; 'I' for Inactive)
REMARK    1  A    between atoms: C_12  and  C_13
REMARK    2  A    between atoms: C_14  and  C_15
REMARK                            x       y       z     vdW  Elec       q    Type
REMARK                         _______ _______ _______ _____ _____    ______ ____
ROOT
ATOM      1  C   UNL     1       3.544   4.942  19.129  0.00  0.00    +0.000 A 
ATOM      2  C   UNL     1       2.332   5.597  18.904  0.00  0.00    +0.000 A 
ATOM      3  N   UNL     1       1.298   4.692  18.675  0.00  0.00    +0.000 NA
ATOM      4  C   UNL     1       1.894   3.535  18.755  0.00  0.00    +0.000 A 
ATOM      5  S   UNL     1       1.375   1.883  18.621  0.00  0.00    +0.000 S 
ATOM      6  C   UNL     1       3.043   1.370  18.925  0.00  0.00    +0.000 A 
ATOM      7  C   UNL     1       3.882   2.402  19.110  0.00  0.00    +0.000 A 
ATOM      8  N   UNL     1       3.228   3.613  19.018  0.00  0.00    +0.000 N 
ENDROOT
BRANCH   1  20
ATOM      9  O   UNL     1       7.612   5.908  20.242  0.00  0.00    +0.000 OA
ATOM     10  C   UNL     1       7.268   5.633  19.112  0.00  0.00    +0.000 C 
ATOM     11  N   UNL     1       8.081   5.421  18.012  0.00  0.00    +0.000 N 
ATOM     12  C   UNL     1       7.335   5.100  16.879  0.00  0.00    +0.000 A 
ATOM     13  C   UNL     1       7.827   4.818  15.621  0.00  0.00    +0.000 A 
ATOM     14  C   UNL     1       6.896   4.529  14.621  0.00  0.00    +0.000 A 
ATOM     15  C   UNL     1       5.517   4.559  14.897  0.00  0.00    +0.000 A 
ATOM     16 CL   UNL     1       4.398   4.195  13.640  0.00  0.00    +0.000 Cl
ATOM     17  C   UNL     1       5.039   4.860  16.176  0.00  0.00    +0.000 A 
ATOM     18  C   UNL     1       5.966   5.095  17.175  0.00  0.00    +0.000 A 
ATOM     19  C   UNL     1       5.870   5.374  18.611  0.00  0.00    +0.000 C 
ATOM     20  C   UNL     1       4.856   5.329  19.485  0.00  0.00    +0.000 C 
ATOM     21  H   UNL     1       9.087   5.495  18.057  0.00  0.00    +0.000 HD
ENDBRANCH   1  20
BRANCH   2  22
ATOM     22  C   UNL     1       2.137   7.039  18.969  0.00  0.00    +0.000 A 
ATOM     23  C   UNL     1       2.324   7.819  17.835  0.00  0.00    +0.000 A 
ATOM     24  C   UNL     1       1.975   9.166  17.891  0.00  0.00    +0.000 A 
ATOM     25  C   UNL     1       1.487   9.694  19.082  0.00  0.00    +0.000 A 
ATOM     26  C   UNL     1       1.388   8.859  20.180  0.00  0.00    +0.000 A 
ATOM     27  N   UNL     1       1.699   7.548  20.149  0.00  0.00    +0.000 NA
ENDBRANCH   2  22
TORSDOF 2
ENDMDL
MODEL 2
REMARK VINA RESULT:      -6.7      8.196     11.146
REMARK  Name = 
REMARK  2 active torsions:
REMARK  status: ('A' for Active; 'I' for Inactive)
REMARK    1  A    between atoms: C_12  and  C_13
REMARK    2  A    between atoms: C_14  and  C_15
REMARK                            x       y       z     vdW  Elec       q    Type
REMARK                         _______ _______ _______ _____ _____    ______ ____
ROOT
ATOM      1  C   UNL     1      -0.904  13.473  20.591  0.00  0.00    +0.000 A 
ATOM      2  C   UNL     1       0.036  12.442  20.642  0.00  0.00    +0.000 A 
ATOM      3  N   UNL     1       1.232  12.811  20.031  0.00  0.00    +0.000 NA
ATOM      4  C   UNL     1       0.994  14.026  19.623  0.00  0.00    +0.000 A 
ATOM      5  S   UNL     1       1.918  15.237  18.790  0.00  0.00    +0.000 S 
ATOM      6  C   UNL     1       0.518  16.319  18.879  0.00  0.00    +0.000 A 
ATOM      7  C   UNL     1      -0.534  15.763  19.502  0.00  0.00    +0.000 A 
ATOM      8  N   UNL     1      -0.256  14.478  19.921  0.00  0.00    +0.000 N 
ENDROOT
BRANCH   1  20
ATOM      9  O   UNL     1      -4.906  14.299  22.012  0.00  0.00    +0.000 OA
ATOM     10  C   UNL     1      -4.660  13.589  21.060  0.00  0.00    +0.000 C 
ATOM     11  N   UNL     1      -5.561  13.041  20.163  0.00  0.00    +0.000 N 
ATOM     12  C   UNL     1      -4.913  12.297  19.179  0.00  0.00    +0.000 A 
ATOM     13  C   UNL     1      -5.506  11.627  18.127  0.00  0.00    +0.000 A 
ATOM     14  C   UNL     1      -4.665  10.932  17.257  0.00  0.00    +0.000 A 
ATOM     15  C   UNL     1      -3.276  10.901  17.477  0.00  0.00    +0.000 A 
ATOM     16 CL   UNL     1      -2.268  10.035  16.382  0.00  0.00    +0.000 Cl
ATOM     17  C   UNL     1      -2.696  11.576  18.555  0.00  0.00    +0.000 A 
ATOM     18  C   UNL     1      -3.528  12.306  19.385  0.00  0.00    +0.000 A 
ATOM     19  C   UNL     1      -3.305  13.170  20.547  0.00  0.00    +0.000 C 
ATOM     20  C   UNL     1      -2.203  13.688  21.105  0.00  0.00    +0.000 C 
ATOM     21  H   UNL     1      -6.557  13.184  20.237  0.00  0.00    +0.000 HD
ENDBRANCH   1  20
BRANCH   2  22
ATOM     22  C   UNL     1      -0.163  11.163  21.310  0.00  0.00    +0.000 A 
ATOM     23  C   UNL     1      -0.104   9.981  20.583  0.00  0.00    +0.000 A 
ATOM     24  C   UNL     1      -0.137   8.773  21.276  0.00  0.00    +0.000 A 
ATOM     25  C   UNL     1      -0.265   8.785  22.661  0.00  0.00    +0.000 A 
ATOM     26  C   UNL     1      -0.377  10.007  23.300  0.00  0.00    +0.000 A 
ATOM     27  N   UNL     1      -0.327  11.191  22.658  0.00  0.00    +0.000 NA
ENDBRANCH   2  22
TORSDOF 2
ENDMDL
MODEL 3
REMARK VINA RESULT:      -6.6      6.291      8.936
REMARK  Name = 
REMARK  2 active torsions:
REMARK  status: ('A' for Active; 'I' for Inactive)
REMARK    1  A    between atoms: C_12  and  C_13
REMARK    2  A    between atoms: C_14  and  C_15
REMARK                            x       y       z     vdW  Elec       q    Type
REMARK                         _______ _______ _______ _____ _____    ______ ____
ROOT
ATOM      1  C   UNL     1      -0.326  12.765  20.105  0.00  0.00    +0.000 A 
ATOM      2  C   UNL     1      -0.795  12.688  18.793  0.00  0.00    +0.000 A 
ATOM      3  N   UNL     1      -0.040  13.484  17.934  0.00  0.00    +0.000 NA
ATOM      4  C   UNL     1       0.844  14.020  18.728  0.00  0.00    +0.000 A 
ATOM      5  S   UNL     1       2.174  15.115  18.510  0.00  0.00    +0.000 S 
ATOM      6  C   UNL     1       2.505  15.005  20.247  0.00  0.00    +0.000 A 
ATOM      7  C   UNL     1       1.652  14.190  20.891  0.00  0.00    +0.000 A 
ATOM      8  N   UNL     1       0.727  13.638  20.030  0.00  0.00    +0.000 N 
ENDROOT
BRANCH   1  20
ATOM      9  O   UNL     1      -1.449  10.734  23.757  0.00  0.00    +0.000 OA
ATOM     10  C   UNL     1      -0.777  10.229  22.881  0.00  0.00    +0.000 C 
ATOM     11  N   UNL     1      -0.375   8.907  22.785  0.00  0.00    +0.000 N 
ATOM     12  C   UNL     1       0.368   8.684  21.627  0.00  0.00    +0.000 A 
ATOM     13  C   UNL     1       0.912   7.483  21.216  0.00  0.00    +0.000 A 
ATOM     14  C   UNL     1       1.632   7.484  20.020  0.00  0.00    +0.000 A 
ATOM     15  C   UNL     1       1.811   8.676  19.294  0.00  0.00    +0.000 A 
ATOM     16 CL   UNL     1       2.703   8.640  17.821  0.00  0.00    +0.000 Cl
ATOM     17  C   UNL     1       1.262   9.884  19.734  0.00  0.00    +0.000 A 
ATOM     18  C   UNL     1       0.506   9.868  20.892  0.00  0.00    +0.000 A 
ATOM     19  C   UNL     1      -0.261  10.880  21.623  0.00  0.00    +0.000 C 
ATOM     20  C   UNL     1      -0.634  12.133  21.331  0.00  0.00    +0.000 C 
ATOM     21  H   UNL     1      -0.608   8.216  23.482  0.00  0.00    +0.000 HD
ENDBRANCH   1  20
BRANCH   2  22
ATOM     22  C   UNL     1      -1.887  11.834  18.344  0.00  0.00    +0.000 A 
ATOM     23  C   UNL     1      -1.612  10.650  17.671  0.00  0.00    +0.000 A 
ATOM     24  C   UNL     1      -2.667   9.782  17.399  0.00  0.00    +0.000 A 
ATOM     25  C   UNL     1      -3.958  10.138  17.775  0.00  0.00    +0.000 A 
ATOM     26  C   UNL     1      -4.148  11.363  18.390  0.00  0.00    +0.000 A 
ATOM     27  N   UNL     1      -3.145  12.214  18.683  0.00  0.00    +0.000 NA
ENDBRANCH   2  22
TORSDOF 2
ENDMDL
MODEL 4
REMARK VINA RESULT:      -6.5      8.678     12.465
REMARK  Name = 
REMARK  2 active torsions:
REMARK  status: ('A' for Active; 'I' for Inactive)
REMARK    1  A    between atoms: C_12  and  C_13
REMARK    2  A    between atoms: C_14  and  C_15
REMARK                            x       y       z     vdW  Elec       q    Type
REMARK                         _______ _______ _______ _____ _____    ______ ____
ROOT
ATOM      1  C   UNL     1      -2.583  13.809  21.436  0.00  0.00    +0.000 A 
ATOM      2  C   UNL     1      -1.377  13.213  21.064  0.00  0.00    +0.000 A 
ATOM      3  N   UNL     1      -0.589  14.080  20.311  0.00  0.00    +0.000 NA
ATOM      4  C   UNL     1      -1.322  15.156  20.237  0.00  0.00    +0.000 A 
ATOM      5  S   UNL     1      -1.122  16.722  19.513  0.00  0.00    +0.000 S 
ATOM      6  C   UNL     1      -2.721  17.173  20.126  0.00  0.00    +0.000 A 
ATOM      7  C   UNL     1      -3.313  16.186  20.819  0.00  0.00    +0.000 A 
ATOM      8  N   UNL     1      -2.519  15.060  20.880  0.00  0.00    +0.000 N 
ENDROOT
BRANCH   1  20
ATOM      9  O   UNL     1      -6.064  12.897  23.838  0.00  0.00    +0.000 OA
ATOM     10  C   UNL     1      -5.959  12.611  22.664  0.00  0.00    +0.000 C 
ATOM     11  N   UNL     1      -6.940  12.099  21.831  0.00  0.00    +0.000 N 
ATOM     12  C   UNL     1      -6.463  11.916  20.535  0.00  0.00    +0.000 A 
ATOM     13  C   UNL     1      -7.176  11.435  19.454  0.00  0.00    +0.000 A 
ATOM     14  C   UNL     1      -6.497  11.322  18.240  0.00  0.00    +0.000 A 
ATOM     15  C   UNL     1      -5.135  11.661  18.148  0.00  0.00    +0.000 A 
ATOM     16 CL   UNL     1      -4.330  11.512  16.633  0.00  0.00    +0.000 Cl
ATOM     17  C   UNL     1      -4.427  12.135  19.256  0.00  0.00    +0.000 A 
ATOM     18  C   UNL     1      -5.117  12.293  20.445  0.00  0.00    +0.000 A 
ATOM     19  C   UNL     1      -4.759  12.803  21.771  0.00  0.00    +0.000 C 
ATOM     20  C   UNL     1      -3.686  13.450  22.244  0.00  0.00    +0.000 C 
ATOM     21  H   UNL     1      -7.874  11.896  22.152  0.00  0.00    +0.000 HD
ENDBRANCH   1  20
BRANCH   2  22
ATOM     22  C   UNL     1      -0.946  11.880  21.464  0.00  0.00    +0.000 A 
ATOM     23  C   UNL     1      -1.025  11.494  22.796  0.00  0.00    +0.000 A 
ATOM     24  C   UNL     1      -0.757  10.165  23.119  0.00  0.00    +0.000 A 
ATOM     25  C   UNL     1      -0.387   9.281  22.111  0.00  0.00    +0.000 A 
ATOM     26  C   UNL     1      -0.276   9.764  20.820  0.00  0.00    +0.000 A 
ATOM     27  N   UNL     1      -0.548  11.038  20.476  0.00  0.00    +0.000 NA
ENDBRANCH   2  22
TORSDOF 2
ENDMDL
MODEL 5
REMARK VINA RESULT:      -6.5      7.740     11.297
REMARK  Name = 
REMARK  2 active torsions:
REMARK  status: ('A' for Active; 'I' for Inactive)
REMARK    1  A    between atoms: C_12  and  C_13
REMARK    2  A    between atoms: C_14  and  C_15
REMARK                            x       y       z     vdW  Elec       q    Type
REMARK                         _______ _______ _______ _____ _____    ______ ____
ROOT
ATOM      1  C   UNL     1      -0.067  12.835  19.617  0.00  0.00    +0.000 A 
ATOM      2  C   UNL     1       0.473  12.348  20.809  0.00  0.00    +0.000 A 
ATOM      3  N   UNL     1       1.042  13.369  21.566  0.00  0.00    +0.000 NA
ATOM      4  C   UNL     1       0.848  14.427  20.829  0.00  0.00    +0.000 A 
ATOM      5  S   UNL     1       1.213  16.117  20.999  0.00  0.00    +0.000 S 
ATOM      6  C   UNL     1       0.457  16.404  19.423  0.00  0.00    +0.000 A 
ATOM      7  C   UNL     1      -0.020  15.281  18.859  0.00  0.00    +0.000 A 
ATOM      8  N   UNL     1       0.199  14.178  19.657  0.00  0.00    +0.000 N 
ENDROOT
BRANCH   1  20
ATOM      9  O   UNL     1      -2.350  10.977  16.446  0.00  0.00    +0.000 OA
ATOM     10  C   UNL     1      -2.841  11.418  17.464  0.00  0.00    +0.000 C 
ATOM     11  N   UNL     1      -4.152  11.290  17.890  0.00  0.00    +0.000 N 
ATOM     12  C   UNL     1      -4.351  11.907  19.124  0.00  0.00    +0.000 A 
ATOM     13  C   UNL     1      -5.530  11.959  19.839  0.00  0.00    +0.000 A 
ATOM     14  C   UNL     1      -5.509  12.641  21.058  0.00  0.00    +0.000 A 
ATOM     15  C   UNL     1      -4.332  13.268  21.505  0.00  0.00    +0.000 A 
ATOM     16 CL   UNL     1      -4.341  14.099  23.014  0.00  0.00    +0.000 Cl
ATOM     17  C   UNL     1      -3.151  13.214  20.760  0.00  0.00    +0.000 A 
ATOM     18  C   UNL     1      -3.163  12.493  19.579  0.00  0.00    +0.000 A 
ATOM     19  C   UNL     1      -2.147  12.159  18.578  0.00  0.00    +0.000 C 
ATOM     20  C   UNL     1      -0.814  12.293  18.546  0.00  0.00    +0.000 C 
ATOM     21  H   UNL     1      -4.854  10.802  17.353  0.00  0.00    +0.000 HD
ENDBRANCH   1  20
BRANCH   2  22
ATOM     22  C   UNL     1       0.394  10.964  21.258  0.00  0.00    +0.000 A 
ATOM     23  C   UNL     1      -0.377  10.634  22.365  0.00  0.00    +0.000 A 
ATOM     24  C   UNL     1      -0.559   9.287  22.670  0.00  0.00    +0.000 A 
ATOM     25  C   UNL     1       0.062   8.321  21.884  0.00  0.00    +0.000 A 
ATOM     26  C   UNL     1       0.860   8.741  20.836  0.00  0.00    +0.000 A 
ATOM     27  N   UNL     1       1.037  10.035  20.505  0.00  0.00    +0.000 NA
ENDBRANCH   2  22
TORSDOF 2
ENDMDL
MODEL 6
REMARK VINA RESULT:      -6.5      8.125     10.950
REMARK  Name = 
REMARK  2 active torsions:
REMARK  status: ('A' for Active; 'I' for Inactive)
REMARK    1  A    between atoms: C_12  and  C_13
REMARK    2  A    between atoms: C_14  and  C_15
REMARK                            x       y       z     vdW  Elec       q    Type
REMARK                         _______ _______ _______ _____ _____    ______ ____
ROOT
ATOM      1  C   UNL     1       0.646  12.553  19.471  0.00  0.00    +0.000 A 
ATOM      2  C   UNL     1       1.053  12.051  20.709  0.00  0.00    +0.000 A 
ATOM      3  N   UNL     1       2.000  12.877  21.308  0.00  0.00    +0.000 NA
ATOM      4  C   UNL     1       2.152  13.835  20.437  0.00  0.00    +0.000 A 
ATOM      5  S   UNL     1       3.111  15.281  20.367  0.00  0.00    +0.000 S 
ATOM      6  C   UNL     1       2.405  15.632  18.780  0.00  0.00    +0.000 A 
ATOM      7  C   UNL     1       1.520  14.703  18.384  0.00  0.00    +0.000 A 
ATOM      8  N   UNL     1       1.380  13.701  19.322  0.00  0.00    +0.000 N 
ENDROOT
BRANCH   1  20
ATOM      9  O   UNL     1      -2.314  11.261  16.593  0.00  0.00    +0.000 OA
ATOM     10  C   UNL     1      -2.586  11.729  17.678  0.00  0.00    +0.000 C 
ATOM     11  N   UNL     1      -3.834  11.803  18.275  0.00  0.00    +0.000 N 
ATOM     12  C   UNL     1      -3.761  12.386  19.538  0.00  0.00    +0.000 A 
ATOM     13  C   UNL     1      -4.811  12.603  20.408  0.00  0.00    +0.000 A 
ATOM     14  C   UNL     1      -4.515  13.212  21.629  0.00  0.00    +0.000 A 
ATOM     15  C   UNL     1      -3.199  13.610  21.929  0.00  0.00    +0.000 A 
ATOM     16 CL   UNL     1      -2.870  14.358  23.444  0.00  0.00    +0.000 Cl
ATOM     17  C   UNL     1      -2.151  13.393  21.029  0.00  0.00    +0.000 A 
ATOM     18  C   UNL     1      -2.441  12.742  19.843  0.00  0.00    +0.000 A 
ATOM     19  C   UNL     1      -1.635  12.289  18.706  0.00  0.00    +0.000 C 
ATOM     20  C   UNL     1      -0.315  12.197  18.498  0.00  0.00    +0.000 C 
ATOM     21  H   UNL     1      -4.672  11.467  17.825  0.00  0.00    +0.000 HD
ENDBRANCH   1  20
BRANCH   2  22
ATOM     22  C   UNL     1       0.512  10.857  21.344  0.00  0.00    +0.000 A 
ATOM     23  C   UNL     1       0.658   9.617  20.735  0.00  0.00    +0.000 A 
ATOM     24  C   UNL     1       0.274   8.481  21.442  0.00  0.00    +0.000 A 
ATOM     25  C   UNL     1      -0.273   8.622  22.713  0.00  0.00    +0.000 A 
ATOM     26  C   UNL     1      -0.437   9.898  23.220  0.00  0.00    +0.000 A 
ATOM     27  N   UNL     1      -0.056  11.014  22.567  0.00  0.00    +0.000 NA
ENDBRANCH   2  22
TORSDOF 2
ENDMDL
MODEL 7
REMARK VINA RESULT:      -6.4      6.460      9.226
REMARK  Name = 
REMARK  2 active torsions:
REMARK  status: ('A' for Active; 'I' for Inactive)
REMARK    1  A    between atoms: C_12  and  C_13
REMARK    2  A    between atoms: C_14  and  C_15
REMARK                            x       y       z     vdW  Elec       q    Type
REMARK                         _______ _______ _______ _____ _____    ______ ____
ROOT
ATOM      1  C   UNL     1       0.675  12.089  18.545  0.00  0.00    +0.000 A 
ATOM      2  C   UNL     1      -0.572  12.679  18.329  0.00  0.00    +0.000 A 
ATOM      3  N   UNL     1      -0.487  14.069  18.338  0.00  0.00    +0.000 NA
ATOM      4  C   UNL     1       0.778  14.287  18.564  0.00  0.00    +0.000 A 
ATOM      5  S   UNL     1       1.763  15.709  18.717  0.00  0.00    +0.000 S 
ATOM      6  C   UNL     1       3.171  14.665  18.978  0.00  0.00    +0.000 A 
ATOM      7  C   UNL     1       2.866  13.357  18.938  0.00  0.00    +0.000 A 
ATOM      8  N   UNL     1       1.523  13.155  18.700  0.00  0.00    +0.000 N 
ENDROOT
BRANCH   1  20
ATOM      9  O   UNL     1       2.419   8.132  18.686  0.00  0.00    +0.000 OA
ATOM     10  C   UNL     1       1.736   8.601  19.572  0.00  0.00    +0.000 C 
ATOM     11  N   UNL     1       1.504   8.069  20.829  0.00  0.00    +0.000 N 
ATOM     12  C   UNL     1       0.685   8.899  21.591  0.00  0.00    +0.000 A 
ATOM     13  C   UNL     1       0.266   8.678  22.888  0.00  0.00    +0.000 A 
ATOM     14  C   UNL     1      -0.564   9.642  23.464  0.00  0.00    +0.000 A 
ATOM     15  C   UNL     1      -0.971  10.768  22.727  0.00  0.00    +0.000 A 
ATOM     16 CL   UNL     1      -1.995  11.937  23.470  0.00  0.00    +0.000 Cl
ATOM     17  C   UNL     1      -0.546  10.967  21.410  0.00  0.00    +0.000 A 
ATOM     18  C   UNL     1       0.318  10.037  20.861  0.00  0.00    +0.000 A 
ATOM     19  C   UNL     1       1.013   9.925  19.576  0.00  0.00    +0.000 C 
ATOM     20  C   UNL     1       1.187  10.771  18.553  0.00  0.00    +0.000 C 
ATOM     21  H   UNL     1       1.896   7.188  21.126  0.00  0.00    +0.000 HD
ENDBRANCH   1  20
BRANCH   2  22
ATOM     22  C   UNL     1      -1.803  11.951  18.052  0.00  0.00    +0.000 A 
ATOM     23  C   UNL     1      -1.808  10.918  17.124  0.00  0.00    +0.000 A 
ATOM     24  C   UNL     1      -2.957  10.141  17.001  0.00  0.00    +0.000 A 
ATOM     25  C   UNL     1      -4.069  10.442  17.780  0.00  0.00    +0.000 A 
ATOM     26  C   UNL     1      -3.998  11.526  18.637  0.00  0.00    +0.000 A 
ATOM     27  N   UNL     1      -2.893  12.282  18.791  0.00  0.00    +0.000 NA
ENDBRANCH   2  22
TORSDOF 2
ENDMDL
MODEL 8
REMARK VINA RESULT:      -6.4      9.570     10.874
REMARK  Name = 
REMARK  2 active torsions:
REMARK  status: ('A' for Active; 'I' for Inactive)
REMARK    1  A    between atoms: C_12  and  C_13
REMARK    2  A    between atoms: C_14  and  C_15
REMARK                            x       y       z     vdW  Elec       q    Type
REMARK                         _______ _______ _______ _____ _____    ______ ____
ROOT
ATOM      1  C   UNL     1       7.798  15.776  20.035  0.00  0.00    +0.000 A 
ATOM      2  C   UNL     1       6.452  15.486  20.266  0.00  0.00    +0.000 A 
ATOM      3  N   UNL     1       6.244  15.030  21.565  0.00  0.00    +0.000 NA
ATOM      4  C   UNL     1       7.442  15.043  22.079  0.00  0.00    +0.000 A 
ATOM      5  S   UNL     1       8.106  14.653  23.636  0.00  0.00    +0.000 S 
ATOM      6  C   UNL     1       9.709  15.092  23.024  0.00  0.00    +0.000 A 
ATOM      7  C   UNL     1       9.688  15.498  21.744  0.00  0.00    +0.000 A 
ATOM      8  N   UNL     1       8.410  15.472  21.223  0.00  0.00    +0.000 N 
ENDROOT
BRANCH   1  20
ATOM      9  O   UNL     1      10.276  17.486  16.928  0.00  0.00    +0.000 OA
ATOM     10  C   UNL     1      10.243  16.302  17.191  0.00  0.00    +0.000 C 
ATOM     11  N   UNL     1      11.065  15.305  16.693  0.00  0.00    +0.000 N 
ATOM     12  C   UNL     1      10.750  14.063  17.240  0.00  0.00    +0.000 A 
ATOM     13  C   UNL     1      11.375  12.862  16.973  0.00  0.00    +0.000 A 
ATOM     14  C   UNL     1      10.890  11.729  17.630  0.00  0.00    +0.000 A 
ATOM     15  C   UNL     1       9.790  11.823  18.501  0.00  0.00    +0.000 A 
ATOM     16 CL   UNL     1       9.220  10.406  19.295  0.00  0.00    +0.000 Cl
ATOM     17  C   UNL     1       9.162  13.048  18.749  0.00  0.00    +0.000 A 
ATOM     18  C   UNL     1       9.678  14.176  18.136  0.00  0.00    +0.000 A 
ATOM     19  C   UNL     1       9.352  15.603  18.186  0.00  0.00    +0.000 C 
ATOM     20  C   UNL     1       8.550  16.331  18.974  0.00  0.00    +0.000 C 
ATOM     21  H   UNL     1      11.793  15.488  16.019  0.00  0.00    +0.000 HD
ENDBRANCH   1  20
BRANCH   2  22
ATOM     22  C   UNL     1       5.376  15.698  19.307  0.00  0.00    +0.000 A 
ATOM     23  C   UNL     1       5.261  14.873  18.196  0.00  0.00    +0.000 A 
ATOM     24  C   UNL     1       4.133  14.999  17.388  0.00  0.00    +0.000 A 
ATOM     25  C   UNL     1       3.181  15.965  17.696  0.00  0.00    +0.000 A 
ATOM     26  C   UNL     1       3.404  16.784  18.788  0.00  0.00    +0.000 A 
ATOM     27  N   UNL     1       4.475  16.671  19.598  0.00  0.00    +0.000 NA
ENDBRANCH   2  22
TORSDOF 2
ENDMDL
MODEL 9
REMARK VINA RESULT:      -6.4      7.272     10.848
REMARK  Name = 
REMARK  2 active torsions:
REMARK  status: ('A' for Active; 'I' for Inactive)
REMARK    1  A    between atoms: C_12  and  C_13
REMARK    2  A    between atoms: C_14  and  C_15
REMARK                            x       y       z     vdW  Elec       q    Type
REMARK                         _______ _______ _______ _____ _____    ______ ____
ROOT
ATOM      1  C   UNL     1      -0.249  13.244  20.542  0.00  0.00    +0.000 A 
ATOM      2  C   UNL     1       0.742  12.325  20.191  0.00  0.00    +0.000 A 
ATOM      3  N   UNL     1       1.743  12.921  19.428  0.00  0.00    +0.000 NA
ATOM      4  C   UNL     1       1.342  14.157  19.326  0.00  0.00    +0.000 A 
ATOM      5  S   UNL     1       1.976  15.588  18.573  0.00  0.00    +0.000 S 
ATOM      6  C   UNL     1       0.565  16.483  19.164  0.00  0.00    +0.000 A 
ATOM      7  C   UNL     1      -0.281  15.716  19.872  0.00  0.00    +0.000 A 
ATOM      8  N   UNL     1       0.165  14.414  19.962  0.00  0.00    +0.000 N 
ENDROOT
BRANCH   1  20
ATOM      9  O   UNL     1      -3.862  13.387  22.917  0.00  0.00    +0.000 OA
ATOM     10  C   UNL     1      -3.818  12.974  21.778  0.00  0.00    +0.000 C 
ATOM     11  N   UNL     1      -4.885  12.623  20.967  0.00  0.00    +0.000 N 
ATOM     12  C   UNL     1      -4.455  12.213  19.707  0.00  0.00    +0.000 A 
ATOM     13  C   UNL     1      -5.253  11.807  18.656  0.00  0.00    +0.000 A 
ATOM     14  C   UNL     1      -4.611  11.427  17.476  0.00  0.00    +0.000 A 
ATOM     15  C   UNL     1      -3.206  11.434  17.392  0.00  0.00    +0.000 A 
ATOM     16 CL   UNL     1      -2.448  10.961  15.920  0.00  0.00    +0.000 Cl
ATOM     17  C   UNL     1      -2.416  11.837  18.472  0.00  0.00    +0.000 A 
ATOM     18  C   UNL     1      -3.058  12.262  19.621  0.00  0.00    +0.000 A 
ATOM     19  C   UNL     1      -2.601  12.800  20.905  0.00  0.00    +0.000 C 
ATOM     20  C   UNL     1      -1.410  13.225  21.347  0.00  0.00    +0.000 C 
ATOM     21  H   UNL     1      -5.844  12.672  21.279  0.00  0.00    +0.000 HD
ENDBRANCH   1  20
BRANCH   2  22
ATOM     22  C   UNL     1       0.781  10.934  20.621  0.00  0.00    +0.000 A 
ATOM     23  C   UNL     1       0.879   9.917  19.680  0.00  0.00    +0.000 A 
ATOM     24  C   UNL     1       1.076   8.613  20.129  0.00  0.00    +0.000 A 
ATOM     25  C   UNL     1       1.133   8.365  21.497  0.00  0.00    +0.000 A 
ATOM     26  C   UNL     1       0.967   9.429  22.365  0.00  0.00    +0.000 A 
ATOM     27  N   UNL     1       0.796  10.703  21.959  0.00  0.00    +0.000 NA
ENDBRANCH   2  22
TORSDOF 2
ENDMDL
