MODEL 1
REMARK VINA RESULT:      -6.6      0.000      0.000
REMARK  Name = 
REMARK  5 active torsions:
REMARK  status: ('A' for Active; 'I' for Inactive)
REMARK    1  A    between atoms: C_1  and  C_2
REMARK    2  A    between atoms: C_2  and  N_3
REMARK    3  A    between atoms: C_7  and  C_8
REMARK    4  A    between atoms: N_15  and  C_16
REMARK    5  A    between atoms: C_16  and  C_17
REMARK                            x       y       z     vdW  Elec       q    Type
REMARK                         _______ _______ _______ _____ _____    ______ ____
ROOT
ATOM      1  C   UNL     1       4.535   6.509  16.516  0.00  0.00    +0.000 C 
ATOM      2  O   UNL     1       4.455   7.639  16.028  0.00  0.00    +0.000 OA
ATOM      3  N   UNL     1       3.629   6.115  17.513  0.00  0.00    +0.000 N 
ATOM      4  C   UNL     1       3.421   4.751  17.998  0.00  0.00    +0.000 C 
ATOM      5  C   UNL     1       3.862   4.678  19.453  0.00  0.00    +0.000 C 
ATOM      6  C   UNL     1       3.084   5.689  20.280  0.00  0.00    +0.000 C 
ATOM      7  C   UNL     1       1.559   5.521  20.429  0.00  0.00    +0.000 C 
ATOM      8  N   UNL     1       1.389   6.979  20.229  0.00  0.00    +0.000 NA
ATOM      9  C   UNL     1       2.754   7.054  19.601  0.00  0.00    +0.000 C 
ATOM     10  C   UNL     1       2.671   7.093  18.056  0.00  0.00    +0.000 C 
ENDROOT
BRANCH   1  15
ATOM     11  N   UNL     1       6.795   5.391  16.666  0.00  0.00    +0.000 N 
ATOM     12  N   UNL     1       7.604   4.531  16.004  0.00  0.00    +0.000 NA
ATOM     13  C   UNL     1       6.833   4.051  15.036  0.00  0.00    +0.000 A 
ATOM     14  C   UNL     1       5.555   4.619  15.056  0.00  0.00    +0.000 A 
ATOM     15  C   UNL     1       5.565   5.579  16.063  0.00  0.00    +0.000 A 
BRANCH  11  17
ATOM     16  C   UNL     1       7.720   7.405  17.733  0.00  0.00    +0.000 C 
ATOM     17  C   UNL     1       7.298   5.955  17.910  0.00  0.00    +0.000 C 
ENDBRANCH  11  17
ENDBRANCH   1  15
BRANCH   8  18
ATOM     18  C   UNL     1       1.350   7.658  21.538  0.00  0.00    +0.000 C 
BRANCH  18  19
ATOM     19  C   UNL     1       0.468   8.887  21.563  0.00  0.00    +0.000 A 
ATOM     20  C   UNL     1      -0.081   9.388  22.747  0.00  0.00    +0.000 A 
ATOM     21  C   UNL     1      -0.845  10.544  22.693  0.00  0.00    +0.000 A 
ATOM     22  N   UNL     1      -1.081  11.238  21.560  0.00  0.00    +0.000 NA
ATOM     23  C   UNL     1      -0.523  10.756  20.431  0.00  0.00    +0.000 A 
ATOM     24  C   UNL     1       0.251   9.606  20.382  0.00  0.00    +0.000 A 
ENDBRANCH  18  19
ENDBRANCH   8  18
TORSDOF 4
ENDMDL
MODEL 2
REMARK VINA RESULT:      -6.5      2.474      4.030
REMARK  Name = 
REMARK  5 active torsions:
REMARK  status: ('A' for Active; 'I' for Inactive)
REMARK    1  A    between atoms: C_1  and  C_2
REMARK    2  A    between atoms: C_2  and  N_3
REMARK    3  A    between atoms: C_7  and  C_8
REMARK    4  A    between atoms: N_15  and  C_16
REMARK    5  A    between atoms: C_16  and  C_17
REMARK                            x       y       z     vdW  Elec       q    Type
REMARK                         _______ _______ _______ _____ _____    ______ ____
ROOT
ATOM      1  C   UNL     1       2.186   6.060  19.792  0.00  0.00    +0.000 C 
ATOM      2  O   UNL     1       1.858   5.684  20.920  0.00  0.00    +0.000 OA
ATOM      3  N   UNL     1       2.175   7.430  19.483  0.00  0.00    +0.000 N 
ATOM      4  C   UNL     1       2.776   8.052  18.305  0.00  0.00    +0.000 C 
ATOM      5  C   UNL     1       1.667   8.636  17.442  0.00  0.00    +0.000 C 
ATOM      6  C   UNL     1       0.857   9.638  18.251  0.00  0.00    +0.000 C 
ATOM      7  C   UNL     1       1.542  10.923  18.754  0.00  0.00    +0.000 C 
ATOM      8  N   UNL     1       0.865  10.759  20.061  0.00  0.00    +0.000 NA
ATOM      9  C   UNL     1       0.623   9.307  19.756  0.00  0.00    +0.000 C 
ATOM     10  C   UNL     1       1.652   8.394  20.466  0.00  0.00    +0.000 C 
ENDROOT
BRANCH   1  15
ATOM     11  N   UNL     1       3.888   4.680  18.535  0.00  0.00    +0.000 N 
ATOM     12  N   UNL     1       4.007   3.834  17.486  0.00  0.00    +0.000 NA
ATOM     13  C   UNL     1       2.752   3.587  17.132  0.00  0.00    +0.000 A 
ATOM     14  C   UNL     1       1.838   4.289  17.925  0.00  0.00    +0.000 A 
ATOM     15  C   UNL     1       2.589   5.091  18.778  0.00  0.00    +0.000 A 
BRANCH  11  17
ATOM     16  C   UNL     1       6.315   5.036  18.359  0.00  0.00    +0.000 C 
ATOM     17  C   UNL     1       5.100   5.003  19.273  0.00  0.00    +0.000 C 
ENDBRANCH  11  17
ENDBRANCH   1  15
BRANCH   8  18
ATOM     18  C   UNL     1      -0.390  11.535  20.070  0.00  0.00    +0.000 C 
BRANCH  18  19
ATOM     19  C   UNL     1      -0.476  12.547  21.191  0.00  0.00    +0.000 A 
ATOM     20  C   UNL     1      -1.247  12.329  22.337  0.00  0.00    +0.000 A 
ATOM     21  C   UNL     1      -1.240  13.287  23.339  0.00  0.00    +0.000 A 
ATOM     22  N   UNL     1      -0.512  14.423  23.291  0.00  0.00    +0.000 NA
ATOM     23  C   UNL     1       0.246  14.605  22.191  0.00  0.00    +0.000 A 
ATOM     24  C   UNL     1       0.302  13.709  21.133  0.00  0.00    +0.000 A 
ENDBRANCH  18  19
ENDBRANCH   8  18
TORSDOF 4
ENDMDL
MODEL 3
REMARK VINA RESULT:      -6.5      2.500      3.845
REMARK  Name = 
REMARK  5 active torsions:
REMARK  status: ('A' for Active; 'I' for Inactive)
REMARK    1  A    between atoms: C_1  and  C_2
REMARK    2  A    between atoms: C_2  and  N_3
REMARK    3  A    between atoms: C_7  and  C_8
REMARK    4  A    between atoms: N_15  and  C_16
REMARK    5  A    between atoms: C_16  and  C_17
REMARK                            x       y       z     vdW  Elec       q    Type
REMARK                         _______ _______ _______ _____ _____    ______ ____
ROOT
ATOM      1  C   UNL     1       2.058   5.921  19.759  0.00  0.00    +0.000 C 
ATOM      2  O   UNL     1       1.597   5.592  20.855  0.00  0.00    +0.000 OA
ATOM      3  N   UNL     1       2.168   7.281  19.430  0.00  0.00    +0.000 N 
ATOM      4  C   UNL     1       2.922   7.837  18.308  0.00  0.00    +0.000 C 
ATOM      5  C   UNL     1       1.943   8.473  17.330  0.00  0.00    +0.000 C 
ATOM      6  C   UNL     1       1.127   9.543  18.039  0.00  0.00    +0.000 C 
ATOM      7  C   UNL     1       1.843  10.791  18.587  0.00  0.00    +0.000 C 
ATOM      8  N   UNL     1       1.033  10.701  19.824  0.00  0.00    +0.000 NA
ATOM      9  C   UNL     1       0.725   9.261  19.518  0.00  0.00    +0.000 C 
ATOM     10  C   UNL     1       1.617   8.299  20.341  0.00  0.00    +0.000 C 
ENDROOT
BRANCH   1  15
ATOM     11  N   UNL     1       3.789   4.442  18.666  0.00  0.00    +0.000 N 
ATOM     12  N   UNL     1       3.947   3.558  17.653  0.00  0.00    +0.000 NA
ATOM     13  C   UNL     1       2.711   3.344  17.221  0.00  0.00    +0.000 A 
ATOM     14  C   UNL     1       1.772   4.104  17.927  0.00  0.00    +0.000 A 
ATOM     15  C   UNL     1       2.493   4.906  18.805  0.00  0.00    +0.000 A 
BRANCH  11  17
ATOM     16  C   UNL     1       5.981   5.556  18.694  0.00  0.00    +0.000 C 
ATOM     17  C   UNL     1       4.959   4.746  19.475  0.00  0.00    +0.000 C 
ENDBRANCH  11  17
ENDBRANCH   1  15
BRANCH   8  18
ATOM     18  C   UNL     1      -0.163  11.556  19.697  0.00  0.00    +0.000 C 
BRANCH  18  19
ATOM     19  C   UNL     1      -0.998  11.631  20.956  0.00  0.00    +0.000 A 
ATOM     20  C   UNL     1      -0.627  10.981  22.137  0.00  0.00    +0.000 A 
ATOM     21  C   UNL     1      -1.424  11.133  23.262  0.00  0.00    +0.000 A 
ATOM     22  N   UNL     1      -2.539  11.893  23.298  0.00  0.00    +0.000 NA
ATOM     23  C   UNL     1      -2.867  12.535  22.158  0.00  0.00    +0.000 A 
ATOM     24  C   UNL     1      -2.139  12.441  20.981  0.00  0.00    +0.000 A 
ENDBRANCH  18  19
ENDBRANCH   8  18
TORSDOF 4
ENDMDL
MODEL 4
REMARK VINA RESULT:      -6.2      3.956      8.183
REMARK  Name = 
REMARK  5 active torsions:
REMARK  status: ('A' for Active; 'I' for Inactive)
REMARK    1  A    between atoms: C_1  and  C_2
REMARK    2  A    between atoms: C_2  and  N_3
REMARK    3  A    between atoms: C_7  and  C_8
REMARK    4  A    between atoms: N_15  and  C_16
REMARK    5  A    between atoms: C_16  and  C_17
REMARK                            x       y       z     vdW  Elec       q    Type
REMARK                         _______ _______ _______ _____ _____    ______ ____
ROOT
ATOM      1  C   UNL     1       2.584   3.769  18.513  0.00  0.00    +0.000 C 
ATOM      2  O   UNL     1       1.949   3.286  17.571  0.00  0.00    +0.000 OA
ATOM      3  N   UNL     1       3.617   4.685  18.261  0.00  0.00    +0.000 N 
ATOM      4  C   UNL     1       4.275   5.535  19.251  0.00  0.00    +0.000 C 
ATOM      5  C   UNL     1       5.731   5.106  19.371  0.00  0.00    +0.000 C 
ATOM      6  C   UNL     1       6.410   5.200  18.014  0.00  0.00    +0.000 C 
ATOM      7  C   UNL     1       6.568   6.581  17.350  0.00  0.00    +0.000 C 
ATOM      8  N   UNL     1       6.175   5.989  16.050  0.00  0.00    +0.000 NA
ATOM      9  C   UNL     1       5.555   4.822  16.767  0.00  0.00    +0.000 C 
ATOM     10  C   UNL     1       4.017   4.968  16.872  0.00  0.00    +0.000 C 
ENDROOT
BRANCH   1  15
ATOM     11  N   UNL     1       3.052   2.600  20.703  0.00  0.00    +0.000 N 
ATOM     12  N   UNL     1       2.495   2.332  21.907  0.00  0.00    +0.000 NA
ATOM     13  C   UNL     1       1.396   3.077  21.923  0.00  0.00    +0.000 A 
ATOM     14  C   UNL     1       1.233   3.791  20.731  0.00  0.00    +0.000 A 
ATOM     15  C   UNL     1       2.265   3.394  19.887  0.00  0.00    +0.000 A 
BRANCH  11  17
ATOM     16  C   UNL     1       4.377   1.092  19.282  0.00  0.00    +0.000 C 
ATOM     17  C   UNL     1       4.382   2.066  20.449  0.00  0.00    +0.000 C 
ENDBRANCH  11  17
ENDBRANCH   1  15
BRANCH   8  18
ATOM     18  C   UNL     1       7.383   5.593  15.300  0.00  0.00    +0.000 C 
BRANCH  18  19
ATOM     19  C   UNL     1       7.089   4.927  13.974  0.00  0.00    +0.000 A 
ATOM     20  C   UNL     1       7.806   5.228  12.812  0.00  0.00    +0.000 A 
ATOM     21  C   UNL     1       7.505   4.544  11.645  0.00  0.00    +0.000 A 
ATOM     22  N   UNL     1       6.565   3.579  11.559  0.00  0.00    +0.000 NA
ATOM     23  C   UNL     1       5.900   3.282  12.695  0.00  0.00    +0.000 A 
ATOM     24  C   UNL     1       6.125   3.915  13.909  0.00  0.00    +0.000 A 
ENDBRANCH  18  19
ENDBRANCH   8  18
TORSDOF 4
ENDMDL
MODEL 5
REMARK VINA RESULT:      -6.2      3.158      9.644
REMARK  Name = 
REMARK  5 active torsions:
REMARK  status: ('A' for Active; 'I' for Inactive)
REMARK    1  A    between atoms: C_1  and  C_2
REMARK    2  A    between atoms: C_2  and  N_3
REMARK    3  A    between atoms: C_7  and  C_8
REMARK    4  A    between atoms: N_15  and  C_16
REMARK    5  A    between atoms: C_16  and  C_17
REMARK                            x       y       z     vdW  Elec       q    Type
REMARK                         _______ _______ _______ _____ _____    ______ ____
ROOT
ATOM      1  C   UNL     1      -0.835  11.701  22.476  0.00  0.00    +0.000 C 
ATOM      2  O   UNL     1      -0.548  10.979  23.435  0.00  0.00    +0.000 OA
ATOM      3  N   UNL     1      -0.688  11.213  21.168  0.00  0.00    +0.000 N 
ATOM      4  C   UNL     1      -1.223  11.828  19.955  0.00  0.00    +0.000 C 
ATOM      5  C   UNL     1      -0.060  12.289  19.088  0.00  0.00    +0.000 C 
ATOM      6  C   UNL     1       0.842  11.108  18.764  0.00  0.00    +0.000 C 
ATOM      7  C   UNL     1       0.285   9.951  17.913  0.00  0.00    +0.000 C 
ATOM      8  N   UNL     1       0.940   8.982  18.822  0.00  0.00    +0.000 NA
ATOM      9  C   UNL     1       1.039  10.042  19.884  0.00  0.00    +0.000 C 
ATOM     10  C   UNL     1      -0.076   9.892  20.947  0.00  0.00    +0.000 C 
ENDROOT
BRANCH   1  15
ATOM     11  N   UNL     1      -2.651  13.402  22.909  0.00  0.00    +0.000 N 
ATOM     12  N   UNL     1      -2.860  14.736  23.002  0.00  0.00    +0.000 NA
ATOM     13  C   UNL     1      -1.637  15.252  22.986  0.00  0.00    +0.000 A 
ATOM     14  C   UNL     1      -0.655  14.264  22.853  0.00  0.00    +0.000 A 
ATOM     15  C   UNL     1      -1.328  13.057  22.695  0.00  0.00    +0.000 A 
BRANCH  11  17
ATOM     16  C   UNL     1      -4.225  12.450  24.541  0.00  0.00    +0.000 C 
ATOM     17  C   UNL     1      -3.805  12.532  23.083  0.00  0.00    +0.000 C 
ENDBRANCH  11  17
ENDBRANCH   1  15
BRANCH   8  18
ATOM     18  C   UNL     1       2.265   8.616  18.286  0.00  0.00    +0.000 C 
BRANCH  18  19
ATOM     19  C   UNL     1       2.662   7.182  18.560  0.00  0.00    +0.000 A 
ATOM     20  C   UNL     1       3.466   6.449  17.683  0.00  0.00    +0.000 A 
ATOM     21  C   UNL     1       3.821   5.153  18.025  0.00  0.00    +0.000 A 
ATOM     22  N   UNL     1       3.452   4.551  19.176  0.00  0.00    +0.000 NA
ATOM     23  C   UNL     1       2.699   5.281  20.023  0.00  0.00    +0.000 A 
ATOM     24  C   UNL     1       2.287   6.581  19.768  0.00  0.00    +0.000 A 
ENDBRANCH  18  19
ENDBRANCH   8  18
TORSDOF 4
ENDMDL
MODEL 6
REMARK VINA RESULT:      -6.2      2.996      9.521
REMARK  Name = 
REMARK  5 active torsions:
REMARK  status: ('A' for Active; 'I' for Inactive)
REMARK    1  A    between atoms: C_1  and  C_2
REMARK    2  A    between atoms: C_2  and  N_3
REMARK    3  A    between atoms: C_7  and  C_8
REMARK    4  A    between atoms: N_15  and  C_16
REMARK    5  A    between atoms: C_16  and  C_17
REMARK                            x       y       z     vdW  Elec       q    Type
REMARK                         _______ _______ _______ _____ _____    ______ ____
ROOT
ATOM      1  C   UNL     1      -0.634  11.415  22.482  0.00  0.00    +0.000 C 
ATOM      2  O   UNL     1      -0.302  10.661  23.400  0.00  0.00    +0.000 OA
ATOM      3  N   UNL     1      -0.519  10.984  21.151  0.00  0.00    +0.000 N 
ATOM      4  C   UNL     1      -1.104  11.636  19.981  0.00  0.00    +0.000 C 
ATOM      5  C   UNL     1       0.021  12.157  19.099  0.00  0.00    +0.000 C 
ATOM      6  C   UNL     1       0.937  11.011  18.699  0.00  0.00    +0.000 C 
ATOM      7  C   UNL     1       0.377   9.877  17.818  0.00  0.00    +0.000 C 
ATOM      8  N   UNL     1       1.080   8.886  18.665  0.00  0.00    +0.000 NA
ATOM      9  C   UNL     1       1.191   9.904  19.767  0.00  0.00    +0.000 C 
ATOM     10  C   UNL     1       0.113   9.687  20.857  0.00  0.00    +0.000 C 
ENDROOT
BRANCH   1  15
ATOM     11  N   UNL     1      -2.393  13.029  23.308  0.00  0.00    +0.000 N 
ATOM     12  N   UNL     1      -2.663  14.352  23.403  0.00  0.00    +0.000 NA
ATOM     13  C   UNL     1      -1.524  14.936  23.052  0.00  0.00    +0.000 A 
ATOM     14  C   UNL     1      -0.543  14.000  22.706  0.00  0.00    +0.000 A 
ATOM     15  C   UNL     1      -1.148  12.750  22.771  0.00  0.00    +0.000 A 
BRANCH  11  17
ATOM     16  C   UNL     1      -4.507  12.835  24.549  0.00  0.00    +0.000 C 
ATOM     17  C   UNL     1      -3.400  12.104  23.806  0.00  0.00    +0.000 C 
ENDBRANCH  11  17
ENDBRANCH   1  15
BRANCH   8  18
ATOM     18  C   UNL     1       2.395   8.572  18.074  0.00  0.00    +0.000 C 
BRANCH  18  19
ATOM     19  C   UNL     1       2.913   7.196  18.431  0.00  0.00    +0.000 A 
ATOM     20  C   UNL     1       2.528   6.533  19.600  0.00  0.00    +0.000 A 
ATOM     21  C   UNL     1       3.013   5.256  19.836  0.00  0.00    +0.000 A 
ATOM     22  N   UNL     1       3.829   4.593  18.989  0.00  0.00    +0.000 NA
ATOM     23  C   UNL     1       4.170   5.236  17.854  0.00  0.00    +0.000 A 
ATOM     24  C   UNL     1       3.742   6.515  17.532  0.00  0.00    +0.000 A 
ENDBRANCH  18  19
ENDBRANCH   8  18
TORSDOF 4
ENDMDL
MODEL 7
REMARK VINA RESULT:      -6.1      2.828      9.128
REMARK  Name = 
REMARK  5 active torsions:
REMARK  status: ('A' for Active; 'I' for Inactive)
REMARK    1  A    between atoms: C_1  and  C_2
REMARK    2  A    between atoms: C_2  and  N_3
REMARK    3  A    between atoms: C_7  and  C_8
REMARK    4  A    between atoms: N_15  and  C_16
REMARK    5  A    between atoms: C_16  and  C_17
REMARK                            x       y       z     vdW  Elec       q    Type
REMARK                         _______ _______ _______ _____ _____    ______ ____
ROOT
ATOM      1  C   UNL     1      -0.564  10.895  22.510  0.00  0.00    +0.000 C 
ATOM      2  O   UNL     1      -0.045  10.242  23.419  0.00  0.00    +0.000 OA
ATOM      3  N   UNL     1      -0.448  10.455  21.182  0.00  0.00    +0.000 N 
ATOM      4  C   UNL     1      -1.211  10.954  20.040  0.00  0.00    +0.000 C 
ATOM      5  C   UNL     1      -0.255  11.648  19.080  0.00  0.00    +0.000 C 
ATOM      6  C   UNL     1       0.833  10.679  18.645  0.00  0.00    +0.000 C 
ATOM      7  C   UNL     1       0.445   9.437  17.820  0.00  0.00    +0.000 C 
ATOM      8  N   UNL     1       1.367   8.618  18.639  0.00  0.00    +0.000 NA
ATOM      9  C   UNL     1       1.351   9.670  19.714  0.00  0.00    +0.000 C 
ATOM     10  C   UNL     1       0.396   9.289  20.872  0.00  0.00    +0.000 C 
ENDROOT
BRANCH   1  15
ATOM     11  N   UNL     1      -0.838  13.405  22.582  0.00  0.00    +0.000 N 
ATOM     12  N   UNL     1      -1.678  14.372  23.020  0.00  0.00    +0.000 NA
ATOM     13  C   UNL     1      -2.758  13.704  23.408  0.00  0.00    +0.000 A 
ATOM     14  C   UNL     1      -2.603  12.323  23.250  0.00  0.00    +0.000 A 
ATOM     15  C   UNL     1      -1.300  12.120  22.807  0.00  0.00    +0.000 A 
BRANCH  11  17
ATOM     16  C   UNL     1       0.797  15.227  22.357  0.00  0.00    +0.000 C 
ATOM     17  C   UNL     1       0.382  13.833  21.916  0.00  0.00    +0.000 C 
ENDBRANCH  11  17
ENDBRANCH   1  15
BRANCH   8  18
ATOM     18  C   UNL     1       2.682   8.535  17.974  0.00  0.00    +0.000 C 
BRANCH  18  19
ATOM     19  C   UNL     1       3.201   7.122  17.820  0.00  0.00    +0.000 A 
ATOM     20  C   UNL     1       2.489   6.011  18.280  0.00  0.00    +0.000 A 
ATOM     21  C   UNL     1       3.013   4.745  18.063  0.00  0.00    +0.000 A 
ATOM     22  N   UNL     1       4.171   4.511  17.410  0.00  0.00    +0.000 NA
ATOM     23  C   UNL     1       4.832   5.593  16.950  0.00  0.00    +0.000 A 
ATOM     24  C   UNL     1       4.394   6.898  17.122  0.00  0.00    +0.000 A 
ENDBRANCH  18  19
ENDBRANCH   8  18
TORSDOF 4
ENDMDL
MODEL 8
REMARK VINA RESULT:      -6.1      4.083      8.483
REMARK  Name = 
REMARK  5 active torsions:
REMARK  status: ('A' for Active; 'I' for Inactive)
REMARK    1  A    between atoms: C_1  and  C_2
REMARK    2  A    between atoms: C_2  and  N_3
REMARK    3  A    between atoms: C_7  and  C_8
REMARK    4  A    between atoms: N_15  and  C_16
REMARK    5  A    between atoms: C_16  and  C_17
REMARK                            x       y       z     vdW  Elec       q    Type
REMARK                         _______ _______ _______ _____ _____    ______ ____
ROOT
ATOM      1  C   UNL     1       2.622   3.618  18.317  0.00  0.00    +0.000 C 
ATOM      2  O   UNL     1       1.771   3.153  17.555  0.00  0.00    +0.000 OA
ATOM      3  N   UNL     1       3.688   4.369  17.796  0.00  0.00    +0.000 N 
ATOM      4  C   UNL     1       4.614   5.198  18.565  0.00  0.00    +0.000 C 
ATOM      5  C   UNL     1       6.007   4.592  18.468  0.00  0.00    +0.000 C 
ATOM      6  C   UNL     1       6.426   4.493  17.010  0.00  0.00    +0.000 C 
ATOM      7  C   UNL     1       6.614   5.786  16.194  0.00  0.00    +0.000 C 
ATOM      8  N   UNL     1       5.919   5.153  15.050  0.00  0.00    +0.000 NA
ATOM      9  C   UNL     1       5.314   4.136  15.977  0.00  0.00    +0.000 C 
ATOM     10  C   UNL     1       3.850   4.489  16.337  0.00  0.00    +0.000 C 
ENDROOT
BRANCH   1  15
ATOM     11  N   UNL     1       3.323   2.531  20.486  0.00  0.00    +0.000 N 
ATOM     12  N   UNL     1       2.980   2.444  21.793  0.00  0.00    +0.000 NA
ATOM     13  C   UNL     1       2.038   3.368  21.937  0.00  0.00    +0.000 A 
ATOM     14  C   UNL     1       1.757   4.020  20.732  0.00  0.00    +0.000 A 
ATOM     15  C   UNL     1       2.526   3.396  19.756  0.00  0.00    +0.000 A 
BRANCH  11  17
ATOM     16  C   UNL     1       5.264   1.216  21.226  0.00  0.00    +0.000 C 
ATOM     17  C   UNL     1       4.475   1.760  20.046  0.00  0.00    +0.000 C 
ENDBRANCH  11  17
ENDBRANCH   1  15
BRANCH   8  18
ATOM     18  C   UNL     1       6.911   4.545  14.141  0.00  0.00    +0.000 C 
BRANCH  18  19
ATOM     19  C   UNL     1       6.297   3.765  13.000  0.00  0.00    +0.000 A 
ATOM     20  C   UNL     1       7.021   2.817  12.269  0.00  0.00    +0.000 A 
ATOM     21  C   UNL     1       6.376   2.113  11.265  0.00  0.00    +0.000 A 
ATOM     22  N   UNL     1       5.071   2.268  10.954  0.00  0.00    +0.000 NA
ATOM     23  C   UNL     1       4.381   3.166  11.686  0.00  0.00    +0.000 A 
ATOM     24  C   UNL     1       4.938   3.924  12.706  0.00  0.00    +0.000 A 
ENDBRANCH  18  19
ENDBRANCH   8  18
TORSDOF 4
ENDMDL
MODEL 9
REMARK VINA RESULT:      -6.0      2.734      9.024
REMARK  Name = 
REMARK  5 active torsions:
REMARK  status: ('A' for Active; 'I' for Inactive)
REMARK    1  A    between atoms: C_1  and  C_2
REMARK    2  A    between atoms: C_2  and  N_3
REMARK    3  A    between atoms: C_7  and  C_8
REMARK    4  A    between atoms: N_15  and  C_16
REMARK    5  A    between atoms: C_16  and  C_17
REMARK                            x       y       z     vdW  Elec       q    Type
REMARK                         _______ _______ _______ _____ _____    ______ ____
ROOT
ATOM      1  C   UNL     1      -0.327  10.668  22.433  0.00  0.00    +0.000 C 
ATOM      2  O   UNL     1       0.237  10.036  23.329  0.00  0.00    +0.000 OA
ATOM      3  N   UNL     1      -0.232  10.228  21.103  0.00  0.00    +0.000 N 
ATOM      4  C   UNL     1      -1.041  10.698  19.980  0.00  0.00    +0.000 C 
ATOM      5  C   UNL     1      -0.134  11.420  18.994  0.00  0.00    +0.000 C 
ATOM      6  C   UNL     1       0.973  10.485  18.532  0.00  0.00    +0.000 C 
ATOM      7  C   UNL     1       0.604   9.229  17.721  0.00  0.00    +0.000 C 
ATOM      8  N   UNL     1       1.574   8.442  18.517  0.00  0.00    +0.000 NA
ATOM      9  C   UNL     1       1.552   9.497  19.589  0.00  0.00    +0.000 C 
ATOM     10  C   UNL     1       0.641   9.089  20.774  0.00  0.00    +0.000 C 
ENDROOT
BRANCH   1  15
ATOM     11  N   UNL     1      -0.698  13.166  22.471  0.00  0.00    +0.000 N 
ATOM     12  N   UNL     1      -1.551  14.109  22.936  0.00  0.00    +0.000 NA
ATOM     13  C   UNL     1      -2.580  13.408  23.396  0.00  0.00    +0.000 A 
ATOM     14  C   UNL     1      -2.378  12.031  23.256  0.00  0.00    +0.000 A 
ATOM     15  C   UNL     1      -1.094  11.869  22.746  0.00  0.00    +0.000 A 
BRANCH  11  17
ATOM     16  C   UNL     1       0.803  15.072  22.065  0.00  0.00    +0.000 C 
ATOM     17  C   UNL     1       0.466  13.627  21.730  0.00  0.00    +0.000 C 
ENDBRANCH  11  17
ENDBRANCH   1  15
BRANCH   8  18
ATOM     18  C   UNL     1       2.872   8.400  17.817  0.00  0.00    +0.000 C 
BRANCH  18  19
ATOM     19  C   UNL     1       3.421   7.002  17.631  0.00  0.00    +0.000 A 
ATOM     20  C   UNL     1       4.733   6.766  17.208  0.00  0.00    +0.000 A 
ATOM     21  C   UNL     1       5.175   5.456  17.102  0.00  0.00    +0.000 A 
ATOM     22  N   UNL     1       4.419   4.379  17.404  0.00  0.00    +0.000 NA
ATOM     23  C   UNL     1       3.165   4.626  17.836  0.00  0.00    +0.000 A 
ATOM     24  C   UNL     1       2.630   5.899  17.969  0.00  0.00    +0.000 A 
ENDBRANCH  18  19
ENDBRANCH   8  18
TORSDOF 4
ENDMDL
