MODEL 1
REMARK VINA RESULT:      -7.3      0.000      0.000
REMARK  Name = 
REMARK  9 active torsions:
REMARK  status: ('A' for Active; 'I' for Inactive)
REMARK    1  A    between atoms: C_2  and  C_3
REMARK    2  A    between atoms: C_3  and  N_4
REMARK    3  A    between atoms: N_6  and  S_7
REMARK    4  A    between atoms: S_7  and  C_10
REMARK    5  A    between atoms: C_12  and  C_13
REMARK    6  A    between atoms: C_17  and  S_18
REMARK    7  A    between atoms: S_18  and  C_19
REMARK    8  A    between atoms: C_19  and  C_20
REMARK    9  A    between atoms: N_22  and  N_23
REMARK                            x       y       z     vdW  Elec       q    Type
REMARK                         _______ _______ _______ _____ _____    ______ ____
ROOT
ATOM      1  S   UNL     1       5.990   5.624  16.267  0.00  0.00    +0.000 S 
ATOM      2  O   UNL     1       5.397   6.137  15.045  0.00  0.00    +0.000 OA
ATOM      3  O   UNL     1       6.919   4.507  16.156  0.00  0.00    +0.000 OA
ENDROOT
BRANCH   1   4
ATOM      4  C   UNL     1       4.619   5.026  17.265  0.00  0.00    +0.000 A 
ATOM      5  C   UNL     1       4.547   3.627  17.472  0.00  0.00    +0.000 A 
ATOM      6  C   UNL     1       3.488   3.037  18.180  0.00  0.00    +0.000 A 
ATOM      7  C   UNL     1       3.430   1.541  18.325  0.00  0.00    +0.000 C 
ATOM      8  C   UNL     1       2.514   3.878  18.723  0.00  0.00    +0.000 A 
ATOM      9 CL   UNL     1       1.216   3.250  19.675  0.00  0.00    +0.000 Cl
ATOM     10  C   UNL     1       2.564   5.259  18.500  0.00  0.00    +0.000 A 
ATOM     11  C   UNL     1       3.583   5.852  17.727  0.00  0.00    +0.000 A 
BRANCH  11  12
ATOM     12  S   UNL     1       3.445   7.628  17.503  0.00  0.00    +0.000 S 
BRANCH  12  13
ATOM     13  C   UNL     1       2.066   8.075  18.659  0.00  0.00    +0.000 C 
BRANCH  13  14
ATOM     14  C   UNL     1       1.607   9.521  18.559  0.00  0.00    +0.000 C 
ATOM     15  N   UNL     1       1.225  10.719  18.476  0.00  0.00    +0.000 NA
ENDBRANCH  13  14
ENDBRANCH  12  13
ENDBRANCH  11  12
ENDBRANCH   1   4
BRANCH   1  18
ATOM     16  N   UNL     1       8.165   7.678  18.709  0.00  0.00    +0.000 N 
ATOM     17  C   UNL     1       7.444   6.650  18.127  0.00  0.00    +0.000 C 
ATOM     18  N   UNL     1       6.712   6.843  17.071  0.00  0.00    +0.000 NA
ATOM     19  N   UNL     1       7.621   5.455  18.807  0.00  0.00    +0.000 N 
ATOM     20  H   UNL     1       8.961   7.327  19.221  0.00  0.00    +0.000 HD
ATOM     21  H   UNL     1       7.314   4.595  18.330  0.00  0.00    +0.000 HD
BRANCH  19  22
ATOM     22  N   UNL     1       8.471   5.321  19.919  0.00  0.00    +0.000 NA
ATOM     23  H   UNL     1       9.067   4.495  19.831  0.00  0.00    +0.000 HD
ATOM     24  H   UNL     1       7.946   5.270  20.792  0.00  0.00    +0.000 HD
ENDBRANCH  19  22
BRANCH  16  25
ATOM     25  C   UNL     1       8.480   8.910  18.011  0.00  0.00    +0.000 C 
BRANCH  25  27
ATOM     26  C   UNL     1       9.623  10.672  19.682  0.00  0.00    +0.000 C 
ATOM     27  C   UNL     1       9.092   9.883  18.942  0.00  0.00    +0.000 C 
ENDBRANCH  25  27
ENDBRANCH  16  25
ENDBRANCH   1  18
TORSDOF 8
ENDMDL
MODEL 2
REMARK VINA RESULT:      -7.0      3.290      4.744
REMARK  Name = 
REMARK  9 active torsions:
REMARK  status: ('A' for Active; 'I' for Inactive)
REMARK    1  A    between atoms: C_2  and  C_3
REMARK    2  A    between atoms: C_3  and  N_4
REMARK    3  A    between atoms: N_6  and  S_7
REMARK    4  A    between atoms: S_7  and  C_10
REMARK    5  A    between atoms: C_12  and  C_13
REMARK    6  A    between atoms: C_17  and  S_18
REMARK    7  A    between atoms: S_18  and  C_19
REMARK    8  A    between atoms: C_19  and  C_20
REMARK    9  A    between atoms: N_22  and  N_23
REMARK                            x       y       z     vdW  Elec       q    Type
REMARK                         _______ _______ _______ _____ _____    ______ ____
ROOT
ATOM      1  S   UNL     1       6.038   5.181  16.449  0.00  0.00    +0.000 S 
ATOM      2  O   UNL     1       7.176   4.557  17.101  0.00  0.00    +0.000 OA
ATOM      3  O   UNL     1       5.999   6.636  16.394  0.00  0.00    +0.000 OA
ENDROOT
BRANCH   1   4
ATOM      4  C   UNL     1       4.595   4.688  17.401  0.00  0.00    +0.000 A 
ATOM      5  C   UNL     1       4.441   3.302  17.651  0.00  0.00    +0.000 A 
ATOM      6  C   UNL     1       3.322   2.792  18.328  0.00  0.00    +0.000 A 
ATOM      7  C   UNL     1       3.181   1.307  18.520  0.00  0.00    +0.000 C 
ATOM      8  C   UNL     1       2.369   3.699  18.797  0.00  0.00    +0.000 A 
ATOM      9 CL   UNL     1       0.999   3.172  19.708  0.00  0.00    +0.000 Cl
ATOM     10  C   UNL     1       2.501   5.068  18.530  0.00  0.00    +0.000 A 
ATOM     11  C   UNL     1       3.583   5.581  17.786  0.00  0.00    +0.000 A 
BRANCH  11  12
ATOM     12  S   UNL     1       3.547   7.353  17.497  0.00  0.00    +0.000 S 
BRANCH  12  13
ATOM     13  C   UNL     1       2.353   7.948  18.785  0.00  0.00    +0.000 C 
BRANCH  13  14
ATOM     14  C   UNL     1       1.404   9.035  18.307  0.00  0.00    +0.000 C 
ATOM     15  N   UNL     1       0.618   9.937  17.911  0.00  0.00    +0.000 NA
ENDBRANCH  13  14
ENDBRANCH  12  13
ENDBRANCH  11  12
ENDBRANCH   1   4
BRANCH   1  18
ATOM     16  N   UNL     1       6.689   4.166  12.780  0.00  0.00    +0.000 N 
ATOM     17  C   UNL     1       6.763   4.799  14.009  0.00  0.00    +0.000 C 
ATOM     18  N   UNL     1       5.884   4.583  14.942  0.00  0.00    +0.000 NA
ATOM     19  N   UNL     1       7.860   5.645  14.082  0.00  0.00    +0.000 N 
ATOM     20  H   UNL     1       7.596   4.101  12.343  0.00  0.00    +0.000 HD
ATOM     21  H   UNL     1       8.128   5.984  15.016  0.00  0.00    +0.000 HD
BRANCH  19  22
ATOM     22  N   UNL     1       8.791   5.787  13.038  0.00  0.00    +0.000 NA
ATOM     23  H   UNL     1       8.794   4.964  12.431  0.00  0.00    +0.000 HD
ATOM     24  H   UNL     1       9.734   5.951  13.392  0.00  0.00    +0.000 HD
ENDBRANCH  19  22
BRANCH  16  25
ATOM     25  C   UNL     1       5.904   2.966  12.561  0.00  0.00    +0.000 C 
BRANCH  25  27
ATOM     26  C   UNL     1       3.798   3.478  10.977  0.00  0.00    +0.000 C 
ATOM     27  C   UNL     1       4.755   3.262  11.677  0.00  0.00    +0.000 C 
ENDBRANCH  25  27
ENDBRANCH  16  25
ENDBRANCH   1  18
TORSDOF 8
ENDMDL
MODEL 3
REMARK VINA RESULT:      -7.0      3.125      4.733
REMARK  Name = 
REMARK  9 active torsions:
REMARK  status: ('A' for Active; 'I' for Inactive)
REMARK    1  A    between atoms: C_2  and  C_3
REMARK    2  A    between atoms: C_3  and  N_4
REMARK    3  A    between atoms: N_6  and  S_7
REMARK    4  A    between atoms: S_7  and  C_10
REMARK    5  A    between atoms: C_12  and  C_13
REMARK    6  A    between atoms: C_17  and  S_18
REMARK    7  A    between atoms: S_18  and  C_19
REMARK    8  A    between atoms: C_19  and  C_20
REMARK    9  A    between atoms: N_22  and  N_23
REMARK                            x       y       z     vdW  Elec       q    Type
REMARK                         _______ _______ _______ _____ _____    ______ ____
ROOT
ATOM      1  S   UNL     1       6.620   5.314  16.834  0.00  0.00    +0.000 S 
ATOM      2  O   UNL     1       7.753   4.550  17.325  0.00  0.00    +0.000 OA
ATOM      3  O   UNL     1       6.756   6.763  16.762  0.00  0.00    +0.000 OA
ENDROOT
BRANCH   1   4
ATOM      4  C   UNL     1       5.279   5.003  17.991  0.00  0.00    +0.000 A 
ATOM      5  C   UNL     1       5.328   3.782  18.706  0.00  0.00    +0.000 A 
ATOM      6  C   UNL     1       4.305   3.402  19.590  0.00  0.00    +0.000 A 
ATOM      7  C   UNL     1       4.378   2.069  20.284  0.00  0.00    +0.000 C 
ATOM      8  C   UNL     1       3.243   4.288  19.785  0.00  0.00    +0.000 A 
ATOM      9 CL   UNL     1       1.979   3.940  20.910  0.00  0.00    +0.000 Cl
ATOM     10  C   UNL     1       3.175   5.485  19.061  0.00  0.00    +0.000 A 
ATOM     11  C   UNL     1       4.159   5.840  18.116  0.00  0.00    +0.000 A 
BRANCH  11  12
ATOM     12  S   UNL     1       3.869   7.383  17.245  0.00  0.00    +0.000 S 
BRANCH  12  13
ATOM     13  C   UNL     1       2.259   7.957  17.965  0.00  0.00    +0.000 C 
BRANCH  13  14
ATOM     14  C   UNL     1       2.093   9.467  18.006  0.00  0.00    +0.000 C 
ATOM     15  N   UNL     1       1.955  10.719  18.041  0.00  0.00    +0.000 NA
ENDBRANCH  13  14
ENDBRANCH  12  13
ENDBRANCH  11  12
ENDBRANCH   1   4
BRANCH   1  18
ATOM     16  N   UNL     1       6.574   4.310  13.105  0.00  0.00    +0.000 N 
ATOM     17  C   UNL     1       6.894   4.923  14.305  0.00  0.00    +0.000 C 
ATOM     18  N   UNL     1       6.177   4.745  15.374  0.00  0.00    +0.000 NA
ATOM     19  N   UNL     1       8.033   5.705  14.190  0.00  0.00    +0.000 N 
ATOM     20  H   UNL     1       7.388   4.200  12.518  0.00  0.00    +0.000 HD
ATOM     21  H   UNL     1       8.476   6.017  15.065  0.00  0.00    +0.000 HD
BRANCH  19  22
ATOM     22  N   UNL     1       8.779   5.807  13.003  0.00  0.00    +0.000 NA
ATOM     23  H   UNL     1       8.573   5.032  12.369  0.00  0.00    +0.000 HD
ATOM     24  H   UNL     1       9.782   5.838  13.187  0.00  0.00    +0.000 HD
ENDBRANCH  19  22
BRANCH  16  25
ATOM     25  C   UNL     1       5.696   3.159  13.021  0.00  0.00    +0.000 C 
BRANCH  25  27
ATOM     26  C   UNL     1       3.996   3.474  10.968  0.00  0.00    +0.000 C 
ATOM     27  C   UNL     1       4.743   3.325  11.901  0.00  0.00    +0.000 C 
ENDBRANCH  25  27
ENDBRANCH  16  25
ENDBRANCH   1  18
TORSDOF 8
ENDMDL
MODEL 4
REMARK VINA RESULT:      -6.8      3.821      5.466
REMARK  Name = 
REMARK  9 active torsions:
REMARK  status: ('A' for Active; 'I' for Inactive)
REMARK    1  A    between atoms: C_2  and  C_3
REMARK    2  A    between atoms: C_3  and  N_4
REMARK    3  A    between atoms: N_6  and  S_7
REMARK    4  A    between atoms: S_7  and  C_10
REMARK    5  A    between atoms: C_12  and  C_13
REMARK    6  A    between atoms: C_17  and  S_18
REMARK    7  A    between atoms: S_18  and  C_19
REMARK    8  A    between atoms: C_19  and  C_20
REMARK    9  A    between atoms: N_22  and  N_23
REMARK                            x       y       z     vdW  Elec       q    Type
REMARK                         _______ _______ _______ _____ _____    ______ ____
ROOT
ATOM      1  S   UNL     1       4.479   3.796  18.296  0.00  0.00    +0.000 S 
ATOM      2  O   UNL     1       3.760   2.548  18.483  0.00  0.00    +0.000 OA
ATOM      3  O   UNL     1       5.756   3.954  18.980  0.00  0.00    +0.000 OA
ENDROOT
BRANCH   1   4
ATOM      4  C   UNL     1       3.408   5.082  18.952  0.00  0.00    +0.000 A 
ATOM      5  C   UNL     1       3.320   6.279  18.200  0.00  0.00    +0.000 A 
ATOM      6  C   UNL     1       2.565   7.377  18.644  0.00  0.00    +0.000 A 
ATOM      7  C   UNL     1       2.549   8.646  17.835  0.00  0.00    +0.000 C 
ATOM      8  C   UNL     1       1.857   7.246  19.840  0.00  0.00    +0.000 A 
ATOM      9 CL   UNL     1       0.840   8.515  20.426  0.00  0.00    +0.000 Cl
ATOM     10  C   UNL     1       1.960   6.075  20.601  0.00  0.00    +0.000 A 
ATOM     11  C   UNL     1       2.775   4.996  20.202  0.00  0.00    +0.000 A 
BRANCH  11  12
ATOM     12  S   UNL     1       2.825   3.607  21.337  0.00  0.00    +0.000 S 
BRANCH  12  13
ATOM     13  C   UNL     1       1.134   2.870  21.150  0.00  0.00    +0.000 C 
BRANCH  13  14
ATOM     14  C   UNL     1       0.714   2.620  19.710  0.00  0.00    +0.000 C 
ATOM     15  N   UNL     1       0.367   2.413  18.517  0.00  0.00    +0.000 NA
ENDBRANCH  13  14
ENDBRANCH  12  13
ENDBRANCH  11  12
ENDBRANCH   1   4
BRANCH   1  18
ATOM     16  N   UNL     1       5.889   4.920  14.881  0.00  0.00    +0.000 N 
ATOM     17  C   UNL     1       5.640   4.819  16.239  0.00  0.00    +0.000 C 
ATOM     18  N   UNL     1       4.687   4.067  16.704  0.00  0.00    +0.000 NA
ATOM     19  N   UNL     1       6.518   5.596  16.978  0.00  0.00    +0.000 N 
ATOM     20  H   UNL     1       6.847   5.178  14.700  0.00  0.00    +0.000 HD
ATOM     21  H   UNL     1       6.563   5.418  17.991  0.00  0.00    +0.000 HD
BRANCH  19  22
ATOM     22  N   UNL     1       7.554   6.349  16.397  0.00  0.00    +0.000 NA
ATOM     23  H   UNL     1       8.298   5.742  16.044  0.00  0.00    +0.000 HD
ATOM     24  H   UNL     1       7.948   7.021  17.055  0.00  0.00    +0.000 HD
ENDBRANCH  19  22
BRANCH  16  25
ATOM     25  C   UNL     1       5.405   3.948  13.919  0.00  0.00    +0.000 C 
BRANCH  25  27
ATOM     26  C   UNL     1       7.104   3.789  11.847  0.00  0.00    +0.000 C 
ATOM     27  C   UNL     1       6.347   3.841  12.784  0.00  0.00    +0.000 C 
ENDBRANCH  25  27
ENDBRANCH  16  25
ENDBRANCH   1  18
TORSDOF 8
ENDMDL
MODEL 5
REMARK VINA RESULT:      -6.8      3.841      5.019
REMARK  Name = 
REMARK  9 active torsions:
REMARK  status: ('A' for Active; 'I' for Inactive)
REMARK    1  A    between atoms: C_2  and  C_3
REMARK    2  A    between atoms: C_3  and  N_4
REMARK    3  A    between atoms: N_6  and  S_7
REMARK    4  A    between atoms: S_7  and  C_10
REMARK    5  A    between atoms: C_12  and  C_13
REMARK    6  A    between atoms: C_17  and  S_18
REMARK    7  A    between atoms: S_18  and  C_19
REMARK    8  A    between atoms: C_19  and  C_20
REMARK    9  A    between atoms: N_22  and  N_23
REMARK                            x       y       z     vdW  Elec       q    Type
REMARK                         _______ _______ _______ _____ _____    ______ ____
ROOT
ATOM      1  S   UNL     1       4.253   3.781  18.186  0.00  0.00    +0.000 S 
ATOM      2  O   UNL     1       3.299   2.802  17.696  0.00  0.00    +0.000 OA
ATOM      3  O   UNL     1       5.166   3.371  19.244  0.00  0.00    +0.000 OA
ENDROOT
BRANCH   1   4
ATOM      4  C   UNL     1       3.273   5.121  18.875  0.00  0.00    +0.000 A 
ATOM      5  C   UNL     1       3.207   6.315  18.117  0.00  0.00    +0.000 A 
ATOM      6  C   UNL     1       2.524   7.451  18.583  0.00  0.00    +0.000 A 
ATOM      7  C   UNL     1       2.530   8.712  17.764  0.00  0.00    +0.000 C 
ATOM      8  C   UNL     1       1.864   7.361  19.811  0.00  0.00    +0.000 A 
ATOM      9 CL   UNL     1       0.934   8.680  20.429  0.00  0.00    +0.000 Cl
ATOM     10  C   UNL     1       1.947   6.192  20.578  0.00  0.00    +0.000 A 
ATOM     11  C   UNL     1       2.692   5.074  20.153  0.00  0.00    +0.000 A 
BRANCH  11  12
ATOM     12  S   UNL     1       2.729   3.692  21.299  0.00  0.00    +0.000 S 
BRANCH  12  13
ATOM     13  C   UNL     1       1.032   2.968  21.113  0.00  0.00    +0.000 C 
BRANCH  13  14
ATOM     14  C   UNL     1       0.647   2.630  19.682  0.00  0.00    +0.000 C 
ATOM     15  N   UNL     1       0.327   2.351  18.495  0.00  0.00    +0.000 NA
ENDBRANCH  13  14
ENDBRANCH  12  13
ENDBRANCH  11  12
ENDBRANCH   1   4
BRANCH   1  18
ATOM     16  N   UNL     1       7.128   4.777  15.808  0.00  0.00    +0.000 N 
ATOM     17  C   UNL     1       6.413   4.410  16.934  0.00  0.00    +0.000 C 
ATOM     18  N   UNL     1       5.114   4.370  16.935  0.00  0.00    +0.000 NA
ATOM     19  N   UNL     1       7.253   4.105  17.995  0.00  0.00    +0.000 N 
ATOM     20  H   UNL     1       8.057   4.384  15.815  0.00  0.00    +0.000 HD
ATOM     21  H   UNL     1       6.835   3.611  18.795  0.00  0.00    +0.000 HD
BRANCH  19  22
ATOM     22  N   UNL     1       8.655   4.130  17.897  0.00  0.00    +0.000 NA
ATOM     23  H   UNL     1       8.968   4.885  17.282  0.00  0.00    +0.000 HD
ATOM     24  H   UNL     1       9.027   3.242  17.560  0.00  0.00    +0.000 HD
ENDBRANCH  19  22
BRANCH  16  25
ATOM     25  C   UNL     1       6.555   4.768  14.475  0.00  0.00    +0.000 C 
BRANCH  25  27
ATOM     26  C   UNL     1       8.330   5.670  12.676  0.00  0.00    +0.000 C 
ATOM     27  C   UNL     1       7.547   5.249  13.489  0.00  0.00    +0.000 C 
ENDBRANCH  25  27
ENDBRANCH  16  25
ENDBRANCH   1  18
TORSDOF 8
ENDMDL
MODEL 6
REMARK VINA RESULT:      -6.5      3.924      6.409
REMARK  Name = 
REMARK  9 active torsions:
REMARK  status: ('A' for Active; 'I' for Inactive)
REMARK    1  A    between atoms: C_2  and  C_3
REMARK    2  A    between atoms: C_3  and  N_4
REMARK    3  A    between atoms: N_6  and  S_7
REMARK    4  A    between atoms: S_7  and  C_10
REMARK    5  A    between atoms: C_12  and  C_13
REMARK    6  A    between atoms: C_17  and  S_18
REMARK    7  A    between atoms: S_18  and  C_19
REMARK    8  A    between atoms: C_19  and  C_20
REMARK    9  A    between atoms: N_22  and  N_23
REMARK                            x       y       z     vdW  Elec       q    Type
REMARK                         _______ _______ _______ _____ _____    ______ ____
ROOT
ATOM      1  S   UNL     1       4.724   4.900  18.528  0.00  0.00    +0.000 S 
ATOM      2  O   UNL     1       4.116   6.199  18.754  0.00  0.00    +0.000 OA
ATOM      3  O   UNL     1       5.678   4.414  19.518  0.00  0.00    +0.000 OA
ENDROOT
BRANCH   1   4
ATOM      4  C   UNL     1       5.645   5.048  16.992  0.00  0.00    +0.000 A 
ATOM      5  C   UNL     1       5.134   4.343  15.874  0.00  0.00    +0.000 A 
ATOM      6  C   UNL     1       5.800   4.333  14.639  0.00  0.00    +0.000 A 
ATOM      7  C   UNL     1       5.243   3.524  13.499  0.00  0.00    +0.000 C 
ATOM      8  C   UNL     1       6.974   5.079  14.520  0.00  0.00    +0.000 A 
ATOM      9 CL   UNL     1       7.822   5.188  13.018  0.00  0.00    +0.000 Cl
ATOM     10  C   UNL     1       7.500   5.756  15.627  0.00  0.00    +0.000 A 
ATOM     11  C   UNL     1       6.878   5.712  16.892  0.00  0.00    +0.000 A 
BRANCH  11  12
ATOM     12  S   UNL     1       7.732   6.593  18.202  0.00  0.00    +0.000 S 
BRANCH  12  13
ATOM     13  C   UNL     1       7.781   8.330  17.556  0.00  0.00    +0.000 C 
BRANCH  13  14
ATOM     14  C   UNL     1       8.550   9.305  18.433  0.00  0.00    +0.000 C 
ATOM     15  N   UNL     1       9.189  10.113  19.159  0.00  0.00    +0.000 NA
ENDBRANCH  13  14
ENDBRANCH  12  13
ENDBRANCH  11  12
ENDBRANCH   1   4
BRANCH   1  18
ATOM     16  N   UNL     1       2.637   1.653  18.639  0.00  0.00    +0.000 N 
ATOM     17  C   UNL     1       3.691   2.548  18.694  0.00  0.00    +0.000 C 
ATOM     18  N   UNL     1       3.556   3.785  18.319  0.00  0.00    +0.000 NA
ATOM     19  N   UNL     1       4.842   1.951  19.187  0.00  0.00    +0.000 N 
ATOM     20  H   UNL     1       2.753   0.904  19.306  0.00  0.00    +0.000 HD
ATOM     21  H   UNL     1       5.607   2.577  19.475  0.00  0.00    +0.000 HD
BRANCH  19  22
ATOM     22  N   UNL     1       4.891   0.613  19.614  0.00  0.00    +0.000 NA
ATOM     23  H   UNL     1       4.176   0.425  20.321  0.00  0.00    +0.000 HD
ATOM     24  H   UNL     1       5.809   0.368  19.985  0.00  0.00    +0.000 HD
ENDBRANCH  19  22
BRANCH  16  25
ATOM     25  C   UNL     1       1.252   2.075  18.544  0.00  0.00    +0.000 C 
BRANCH  25  27
ATOM     26  C   UNL     1       0.722   3.851  20.485  0.00  0.00    +0.000 C 
ATOM     27  C   UNL     1       0.946   3.063  19.602  0.00  0.00    +0.000 C 
ENDBRANCH  25  27
ENDBRANCH  16  25
ENDBRANCH   1  18
TORSDOF 8
ENDMDL
MODEL 7
REMARK VINA RESULT:      -6.5      3.837      5.884
REMARK  Name = 
REMARK  9 active torsions:
REMARK  status: ('A' for Active; 'I' for Inactive)
REMARK    1  A    between atoms: C_2  and  C_3
REMARK    2  A    between atoms: C_3  and  N_4
REMARK    3  A    between atoms: N_6  and  S_7
REMARK    4  A    between atoms: S_7  and  C_10
REMARK    5  A    between atoms: C_12  and  C_13
REMARK    6  A    between atoms: C_17  and  S_18
REMARK    7  A    between atoms: S_18  and  C_19
REMARK    8  A    between atoms: C_19  and  C_20
REMARK    9  A    between atoms: N_22  and  N_23
REMARK                            x       y       z     vdW  Elec       q    Type
REMARK                         _______ _______ _______ _____ _____    ______ ____
ROOT
ATOM      1  S   UNL     1       4.647   3.952  17.948  0.00  0.00    +0.000 S 
ATOM      2  O   UNL     1       5.606   3.696  19.008  0.00  0.00    +0.000 OA
ATOM      3  O   UNL     1       3.816   2.842  17.500  0.00  0.00    +0.000 OA
ENDROOT
BRANCH   1   4
ATOM      4  C   UNL     1       5.615   4.449  16.517  0.00  0.00    +0.000 A 
ATOM      5  C   UNL     1       5.332   3.787  15.298  0.00  0.00    +0.000 A 
ATOM      6  C   UNL     1       6.065   4.046  14.129  0.00  0.00    +0.000 A 
ATOM      7  C   UNL     1       5.761   3.275  12.873  0.00  0.00    +0.000 C 
ATOM      8  C   UNL     1       7.067   5.018  14.184  0.00  0.00    +0.000 A 
ATOM      9 CL   UNL     1       7.969   5.459  12.778  0.00  0.00    +0.000 Cl
ATOM     10  C   UNL     1       7.369   5.658  15.392  0.00  0.00    +0.000 A 
ATOM     11  C   UNL     1       6.689   5.350  16.588  0.00  0.00    +0.000 A 
BRANCH  11  12
ATOM     12  S   UNL     1       7.257   6.231  18.046  0.00  0.00    +0.000 S 
BRANCH  12  13
ATOM     13  C   UNL     1       7.342   7.985  17.451  0.00  0.00    +0.000 C 
BRANCH  13  14
ATOM     14  C   UNL     1       8.285   8.873  18.247  0.00  0.00    +0.000 C 
ATOM     15  N   UNL     1       9.067   9.610  18.906  0.00  0.00    +0.000 NA
ENDBRANCH  13  14
ENDBRANCH  12  13
ENDBRANCH  11  12
ENDBRANCH   1   4
BRANCH   1  18
ATOM     16  N   UNL     1       1.866   6.119  19.524  0.00  0.00    +0.000 N 
ATOM     17  C   UNL     1       2.588   5.039  19.047  0.00  0.00    +0.000 C 
ATOM     18  N   UNL     1       3.690   5.199  18.376  0.00  0.00    +0.000 NA
ATOM     19  N   UNL     1       1.988   3.835  19.382  0.00  0.00    +0.000 N 
ATOM     20  H   UNL     1       1.310   5.865  20.328  0.00  0.00    +0.000 HD
ATOM     21  H   UNL     1       2.554   2.983  19.271  0.00  0.00    +0.000 HD
BRANCH  19  22
ATOM     22  N   UNL     1       0.815   3.750  20.152  0.00  0.00    +0.000 NA
ATOM     23  H   UNL     1       0.617   2.782  20.417  0.00  0.00    +0.000 HD
ATOM     24  H   UNL     1       0.010   4.139  19.662  0.00  0.00    +0.000 HD
ENDBRANCH  19  22
BRANCH  16  25
ATOM     25  C   UNL     1       2.436   7.445  19.667  0.00  0.00    +0.000 C 
BRANCH  25  27
ATOM     26  C   UNL     1       1.606   9.063  17.693  0.00  0.00    +0.000 C 
ATOM     27  C   UNL     1       1.976   8.320  18.566  0.00  0.00    +0.000 C 
ENDBRANCH  25  27
ENDBRANCH  16  25
ENDBRANCH   1  18
TORSDOF 8
ENDMDL
MODEL 8
REMARK VINA RESULT:      -6.5      2.813      4.364
REMARK  Name = 
REMARK  9 active torsions:
REMARK  status: ('A' for Active; 'I' for Inactive)
REMARK    1  A    between atoms: C_2  and  C_3
REMARK    2  A    between atoms: C_3  and  N_4
REMARK    3  A    between atoms: N_6  and  S_7
REMARK    4  A    between atoms: S_7  and  C_10
REMARK    5  A    between atoms: C_12  and  C_13
REMARK    6  A    between atoms: C_17  and  S_18
REMARK    7  A    between atoms: S_18  and  C_19
REMARK    8  A    between atoms: C_19  and  C_20
REMARK    9  A    between atoms: N_22  and  N_23
REMARK                            x       y       z     vdW  Elec       q    Type
REMARK                         _______ _______ _______ _____ _____    ______ ____
ROOT
ATOM      1  S   UNL     1       4.164   5.367  18.391  0.00  0.00    +0.000 S 
ATOM      2  O   UNL     1       3.652   4.956  17.095  0.00  0.00    +0.000 OA
ATOM      3  O   UNL     1       4.451   4.326  19.369  0.00  0.00    +0.000 OA
ENDROOT
BRANCH   1   4
ATOM      4  C   UNL     1       2.882   6.391  19.125  0.00  0.00    +0.000 A 
ATOM      5  C   UNL     1       2.684   7.670  18.551  0.00  0.00    +0.000 A 
ATOM      6  C   UNL     1       1.755   8.582  19.078  0.00  0.00    +0.000 A 
ATOM      7  C   UNL     1       1.622   9.949  18.463  0.00  0.00    +0.000 C 
ATOM      8  C   UNL     1       0.988   8.177  20.172  0.00  0.00    +0.000 A 
ATOM      9 CL   UNL     1      -0.233   9.202  20.840  0.00  0.00    +0.000 Cl
ATOM     10  C   UNL     1       1.196   6.924  20.761  0.00  0.00    +0.000 A 
ATOM     11  C   UNL     1       2.178   6.032  20.285  0.00  0.00    +0.000 A 
BRANCH  11  12
ATOM     12  S   UNL     1       2.338   4.499  21.207  0.00  0.00    +0.000 S 
BRANCH  12  13
ATOM     13  C   UNL     1       0.977   3.458  20.499  0.00  0.00    +0.000 C 
BRANCH  13  14
ATOM     14  C   UNL     1       1.273   2.892  19.120  0.00  0.00    +0.000 C 
ATOM     15  N   UNL     1       1.519   2.423  17.976  0.00  0.00    +0.000 NA
ENDBRANCH  13  14
ENDBRANCH  12  13
ENDBRANCH  11  12
ENDBRANCH   1   4
BRANCH   1  18
ATOM     16  N   UNL     1       7.758   6.570  17.651  0.00  0.00    +0.000 N 
ATOM     17  C   UNL     1       6.670   5.776  17.970  0.00  0.00    +0.000 C 
ATOM     18  N   UNL     1       5.493   6.284  18.181  0.00  0.00    +0.000 NA
ATOM     19  N   UNL     1       7.016   4.434  18.022  0.00  0.00    +0.000 N 
ATOM     20  H   UNL     1       8.455   6.052  17.135  0.00  0.00    +0.000 HD
ATOM     21  H   UNL     1       6.245   3.752  18.029  0.00  0.00    +0.000 HD
BRANCH  19  22
ATOM     22  N   UNL     1       8.309   3.961  17.736  0.00  0.00    +0.000 NA
ATOM     23  H   UNL     1       8.814   3.726  18.593  0.00  0.00    +0.000 HD
ATOM     24  H   UNL     1       8.849   4.639  17.198  0.00  0.00    +0.000 HD
ENDBRANCH  19  22
BRANCH  16  25
ATOM     25  C   UNL     1       7.622   7.925  17.152  0.00  0.00    +0.000 C 
BRANCH  25  27
ATOM     26  C   UNL     1       8.884   9.636  18.790  0.00  0.00    +0.000 C 
ATOM     27  C   UNL     1       8.299   8.875  18.063  0.00  0.00    +0.000 C 
ENDBRANCH  25  27
ENDBRANCH  16  25
ENDBRANCH   1  18
TORSDOF 8
ENDMDL
MODEL 9
REMARK VINA RESULT:      -6.4      4.050      6.033
REMARK  Name = 
REMARK  9 active torsions:
REMARK  status: ('A' for Active; 'I' for Inactive)
REMARK    1  A    between atoms: C_2  and  C_3
REMARK    2  A    between atoms: C_3  and  N_4
REMARK    3  A    between atoms: N_6  and  S_7
REMARK    4  A    between atoms: S_7  and  C_10
REMARK    5  A    between atoms: C_12  and  C_13
REMARK    6  A    between atoms: C_17  and  S_18
REMARK    7  A    between atoms: S_18  and  C_19
REMARK    8  A    between atoms: C_19  and  C_20
REMARK    9  A    between atoms: N_22  and  N_23
REMARK                            x       y       z     vdW  Elec       q    Type
REMARK                         _______ _______ _______ _____ _____    ______ ____
ROOT
ATOM      1  S   UNL     1       3.545   3.439  17.549  0.00  0.00    +0.000 S 
ATOM      2  O   UNL     1       4.223   2.574  18.498  0.00  0.00    +0.000 OA
ATOM      3  O   UNL     1       2.556   2.836  16.665  0.00  0.00    +0.000 OA
ENDROOT
BRANCH   1   4
ATOM      4  C   UNL     1       4.830   4.093  16.475  0.00  0.00    +0.000 A 
ATOM      5  C   UNL     1       4.815   3.657  15.128  0.00  0.00    +0.000 A 
ATOM      6  C   UNL     1       5.804   4.050  14.212  0.00  0.00    +0.000 A 
ATOM      7  C   UNL     1       5.773   3.514  12.806  0.00  0.00    +0.000 C 
ATOM      8  C   UNL     1       6.794   4.930  14.653  0.00  0.00    +0.000 A 
ATOM      9 CL   UNL     1       8.007   5.529  13.578  0.00  0.00    +0.000 Cl
ATOM     10  C   UNL     1       6.831   5.344  15.990  0.00  0.00    +0.000 A 
ATOM     11  C   UNL     1       5.886   4.895  16.935  0.00  0.00    +0.000 A 
BRANCH  11  12
ATOM     12  S   UNL     1       6.131   5.489  18.612  0.00  0.00    +0.000 S 
BRANCH  12  13
ATOM     13  C   UNL     1       7.857   6.165  18.553  0.00  0.00    +0.000 C 
BRANCH  13  14
ATOM     14  C   UNL     1       7.945   7.625  18.138  0.00  0.00    +0.000 C 
ATOM     15  N   UNL     1       8.019   8.835  17.795  0.00  0.00    +0.000 NA
ENDBRANCH  13  14
ENDBRANCH  12  13
ENDBRANCH  11  12
ENDBRANCH   1   4
BRANCH   1  18
ATOM     16  N   UNL     1       1.653   5.593  20.136  0.00  0.00    +0.000 N 
ATOM     17  C   UNL     1       2.105   4.519  19.388  0.00  0.00    +0.000 C 
ATOM     18  N   UNL     1       2.863   4.684  18.345  0.00  0.00    +0.000 NA
ATOM     19  N   UNL     1       1.650   3.314  19.901  0.00  0.00    +0.000 N 
ATOM     20  H   UNL     1       1.447   5.321  21.086  0.00  0.00    +0.000 HD
ATOM     21  H   UNL     1       2.107   2.457  19.558  0.00  0.00    +0.000 HD
BRANCH  19  22
ATOM     22  N   UNL     1       0.868   3.219  21.065  0.00  0.00    +0.000 NA
ATOM     23  H   UNL     1      -0.092   2.946  20.843  0.00  0.00    +0.000 HD
ATOM     24  H   UNL     1       0.859   4.095  21.587  0.00  0.00    +0.000 HD
ENDBRANCH  19  22
BRANCH  16  25
ATOM     25  C   UNL     1       2.268   6.905  20.077  0.00  0.00    +0.000 C 
BRANCH  25  27
ATOM     26  C   UNL     1       0.794   8.654  21.481  0.00  0.00    +0.000 C 
ATOM     27  C   UNL     1       1.473   7.877  20.859  0.00  0.00    +0.000 C 
ENDBRANCH  25  27
ENDBRANCH  16  25
ENDBRANCH   1  18
TORSDOF 8
ENDMDL
