MODEL 1
REMARK VINA RESULT:      -7.6      0.000      0.000
REMARK  Name = 
REMARK  9 active torsions:
REMARK  status: ('A' for Active; 'I' for Inactive)
REMARK    1  A    between atoms: C_1  and  C_2
REMARK    2  A    between atoms: C_7  and  C_8
REMARK    3  A    between atoms: C_8  and  N_9
REMARK    4  A    between atoms: C_8  and  C_25
REMARK    5  A    between atoms: N_12  and  C_13
REMARK    6  A    between atoms: N_16  and  C_17
REMARK    7  A    between atoms: C_17  and  C_18
REMARK    8  A    between atoms: C_25  and  C_26
REMARK    9  A    between atoms: C_25  and  C_27
REMARK                            x       y       z     vdW  Elec       q    Type
REMARK                         _______ _______ _______ _____ _____    ______ ____
ROOT
ATOM      1  N   UNL     1       3.711   4.723  19.641  0.00  0.00    +0.000 N 
ATOM      2  C   UNL     1       5.017   5.027  19.358  0.00  0.00    +0.000 C 
ATOM      3  O   UNL     1       5.930   4.608  20.055  0.00  0.00    +0.000 OA
ATOM      4  N   UNL     1       5.172   5.782  18.246  0.00  0.00    +0.000 N 
ATOM      5  H   UNL     1       3.604   4.220  20.514  0.00  0.00    +0.000 HD
ATOM      6  H   UNL     1       4.419   6.438  18.167  0.00  0.00    +0.000 HD
ENDROOT
BRANCH   4   7
ATOM      7  C   UNL     1       6.420   6.318  17.707  0.00  0.00    +0.000 C 
ATOM      8  C   UNL     1       6.121   6.966  16.352  0.00  0.00    +0.000 C 
ATOM      9  C   UNL     1       5.669   5.913  15.334  0.00  0.00    +0.000 C 
ATOM     10  N   UNL     1       6.667   4.856  15.120  0.00  0.00    +0.000 NA
ATOM     11  C   UNL     1       7.174   4.285  16.390  0.00  0.00    +0.000 C 
ATOM     12  C   UNL     1       7.524   5.292  17.486  0.00  0.00    +0.000 C 
BRANCH  10  13
ATOM     13  C   UNL     1       6.132   3.744  14.292  0.00  0.00    +0.000 C 
BRANCH  13  14
ATOM     14  C   UNL     1       5.940   4.054  12.795  0.00  0.00    +0.000 C 
ATOM     15  C   UNL     1       4.840   3.208  12.170  0.00  0.00    +0.000 C 
ATOM     16  C   UNL     1       5.555   2.100  11.423  0.00  0.00    +0.000 C 
ATOM     17  O   UNL     1       6.955   2.376  11.451  0.00  0.00    +0.000 OA
ATOM     18  C   UNL     1       7.158   3.697  11.962  0.00  0.00    +0.000 C 
ENDBRANCH  13  14
ENDBRANCH  10  13
ENDBRANCH   4   7
BRANCH   1  19
ATOM     19  C   UNL     1       2.509   5.134  18.901  0.00  0.00    +0.000 C 
BRANCH  19  26
ATOM     20  C   UNL     1       2.662   7.781  17.321  0.00  0.00    +0.000 C 
ATOM     21  C   UNL     1       2.097   7.690  18.713  0.00  0.00    +0.000 A 
ATOM     22  C   UNL     1       1.663   8.893  19.309  0.00  0.00    +0.000 A 
ATOM     23  C   UNL     1       1.135   8.913  20.593  0.00  0.00    +0.000 A 
ATOM     24  C   UNL     1       1.036   7.731  21.313  0.00  0.00    +0.000 A 
ATOM     25  C   UNL     1       1.474   6.530  20.751  0.00  0.00    +0.000 A 
ATOM     26  C   UNL     1       2.016   6.480  19.447  0.00  0.00    +0.000 A 
ENDBRANCH  19  26
BRANCH  19  27
ATOM     27  C   UNL     1       1.413   4.032  18.875  0.00  0.00    +0.000 C 
ATOM     28  C   UNL     1       1.842   2.893  17.935  0.00  0.00    +0.000 C 
ATOM     29  C   UNL     1       1.164   3.430  20.267  0.00  0.00    +0.000 C 
ENDBRANCH  19  27
ENDBRANCH   1  19
TORSDOF 6
ENDMDL
MODEL 2
REMARK VINA RESULT:      -7.5      2.417      7.795
REMARK  Name = 
REMARK  9 active torsions:
REMARK  status: ('A' for Active; 'I' for Inactive)
REMARK    1  A    between atoms: C_1  and  C_2
REMARK    2  A    between atoms: C_7  and  C_8
REMARK    3  A    between atoms: C_8  and  N_9
REMARK    4  A    between atoms: C_8  and  C_25
REMARK    5  A    between atoms: N_12  and  C_13
REMARK    6  A    between atoms: N_16  and  C_17
REMARK    7  A    between atoms: C_17  and  C_18
REMARK    8  A    between atoms: C_25  and  C_26
REMARK    9  A    between atoms: C_25  and  C_27
REMARK                            x       y       z     vdW  Elec       q    Type
REMARK                         _______ _______ _______ _____ _____    ______ ____
ROOT
ATOM      1  N   UNL     1       6.192   4.000  18.935  0.00  0.00    +0.000 N 
ATOM      2  C   UNL     1       4.976   3.450  19.247  0.00  0.00    +0.000 C 
ATOM      3  O   UNL     1       4.897   2.374  19.824  0.00  0.00    +0.000 OA
ATOM      4  N   UNL     1       3.922   4.219  18.891  0.00  0.00    +0.000 N 
ATOM      5  H   UNL     1       6.969   3.383  19.141  0.00  0.00    +0.000 HD
ATOM      6  H   UNL     1       4.114   4.687  18.026  0.00  0.00    +0.000 HD
ENDROOT
BRANCH   4   7
ATOM      7  C   UNL     1       2.504   3.897  19.033  0.00  0.00    +0.000 C 
ATOM      8  C   UNL     1       1.704   4.834  18.122  0.00  0.00    +0.000 C 
ATOM      9  C   UNL     1       1.830   6.288  18.593  0.00  0.00    +0.000 C 
ATOM     10  N   UNL     1       1.363   6.486  19.972  0.00  0.00    +0.000 NA
ATOM     11  C   UNL     1       1.933   5.498  20.917  0.00  0.00    +0.000 C 
ATOM     12  C   UNL     1       1.943   4.044  20.441  0.00  0.00    +0.000 C 
BRANCH  10  13
ATOM     13  C   UNL     1       1.681   7.848  20.477  0.00  0.00    +0.000 C 
BRANCH  13  14
ATOM     14  C   UNL     1       0.474   8.778  20.707  0.00  0.00    +0.000 C 
ATOM     15  C   UNL     1       0.595  10.079  19.925  0.00  0.00    +0.000 C 
ATOM     16  C   UNL     1       1.056  11.115  20.931  0.00  0.00    +0.000 C 
ATOM     17  O   UNL     1       1.030  10.518  22.227  0.00  0.00    +0.000 OA
ATOM     18  C   UNL     1       0.366   9.254  22.144  0.00  0.00    +0.000 C 
ENDBRANCH  13  14
ENDBRANCH  10  13
ENDBRANCH   4   7
BRANCH   1  19
ATOM     19  C   UNL     1       6.455   5.279  18.260  0.00  0.00    +0.000 C 
BRANCH  19  26
ATOM     20  C   UNL     1       4.594   7.158  16.669  0.00  0.00    +0.000 C 
ATOM     21  C   UNL     1       5.310   5.992  16.042  0.00  0.00    +0.000 A 
ATOM     22  C   UNL     1       5.068   5.752  14.674  0.00  0.00    +0.000 A 
ATOM     23  C   UNL     1       5.676   4.696  14.008  0.00  0.00    +0.000 A 
ATOM     24  C   UNL     1       6.534   3.852  14.698  0.00  0.00    +0.000 A 
ATOM     25  C   UNL     1       6.777   4.060  16.057  0.00  0.00    +0.000 A 
ATOM     26  C   UNL     1       6.172   5.126  16.760  0.00  0.00    +0.000 A 
ENDBRANCH  19  26
BRANCH  19  27
ATOM     27  C   UNL     1       7.869   5.844  18.573  0.00  0.00    +0.000 C 
ATOM     28  C   UNL     1       7.917   7.344  18.234  0.00  0.00    +0.000 C 
ATOM     29  C   UNL     1       8.244   5.680  20.054  0.00  0.00    +0.000 C 
ENDBRANCH  19  27
ENDBRANCH   1  19
TORSDOF 6
ENDMDL
MODEL 3
REMARK VINA RESULT:      -7.3      2.441      7.311
REMARK  Name = 
REMARK  9 active torsions:
REMARK  status: ('A' for Active; 'I' for Inactive)
REMARK    1  A    between atoms: C_1  and  C_2
REMARK    2  A    between atoms: C_7  and  C_8
REMARK    3  A    between atoms: C_8  and  N_9
REMARK    4  A    between atoms: C_8  and  C_25
REMARK    5  A    between atoms: N_12  and  C_13
REMARK    6  A    between atoms: N_16  and  C_17
REMARK    7  A    between atoms: C_17  and  C_18
REMARK    8  A    between atoms: C_25  and  C_26
REMARK    9  A    between atoms: C_25  and  C_27
REMARK                            x       y       z     vdW  Elec       q    Type
REMARK                         _______ _______ _______ _____ _____    ______ ____
ROOT
ATOM      1  N   UNL     1       6.105   3.962  18.931  0.00  0.00    +0.000 N 
ATOM      2  C   UNL     1       4.869   3.527  19.332  0.00  0.00    +0.000 C 
ATOM      3  O   UNL     1       4.726   2.441  19.876  0.00  0.00    +0.000 OA
ATOM      4  N   UNL     1       3.876   4.415  19.099  0.00  0.00    +0.000 N 
ATOM      5  H   UNL     1       6.826   3.259  19.044  0.00  0.00    +0.000 HD
ATOM      6  H   UNL     1       4.042   4.899  18.237  0.00  0.00    +0.000 HD
ENDROOT
BRANCH   4   7
ATOM      7  C   UNL     1       2.449   4.235  19.357  0.00  0.00    +0.000 C 
ATOM      8  C   UNL     1       1.667   4.862  18.198  0.00  0.00    +0.000 C 
ATOM      9  C   UNL     1       1.876   6.381  18.161  0.00  0.00    +0.000 C 
ATOM     10  N   UNL     1       1.459   7.047  19.402  0.00  0.00    +0.000 NA
ATOM     11  C   UNL     1       2.010   6.395  20.613  0.00  0.00    +0.000 C 
ATOM     12  C   UNL     1       1.938   4.868  20.644  0.00  0.00    +0.000 C 
BRANCH  10  13
ATOM     13  C   UNL     1       1.856   8.480  19.425  0.00  0.00    +0.000 C 
BRANCH  13  14
ATOM     14  C   UNL     1       1.359   9.333  18.241  0.00  0.00    +0.000 C 
ATOM     15  C   UNL     1       2.232  10.558  18.012  0.00  0.00    +0.000 C 
ATOM     16  C   UNL     1       1.474  11.718  18.626  0.00  0.00    +0.000 C 
ATOM     17  O   UNL     1       0.185  11.248  19.019  0.00  0.00    +0.000 OA
ATOM     18  C   UNL     1      -0.012   9.934  18.487  0.00  0.00    +0.000 C 
ENDBRANCH  13  14
ENDBRANCH  10  13
ENDBRANCH   4   7
BRANCH   1  19
ATOM     19  C   UNL     1       6.444   5.236  18.279  0.00  0.00    +0.000 C 
BRANCH  19  26
ATOM     20  C   UNL     1       4.703   7.217  16.675  0.00  0.00    +0.000 C 
ATOM     21  C   UNL     1       5.381   6.029  16.047  0.00  0.00    +0.000 A 
ATOM     22  C   UNL     1       5.159   5.818  14.671  0.00  0.00    +0.000 A 
ATOM     23  C   UNL     1       5.735   4.745  14.003  0.00  0.00    +0.000 A 
ATOM     24  C   UNL     1       6.540   3.855  14.700  0.00  0.00    +0.000 A 
ATOM     25  C   UNL     1       6.761   4.034  16.067  0.00  0.00    +0.000 A 
ATOM     26  C   UNL     1       6.188   5.115  16.771  0.00  0.00    +0.000 A 
ENDBRANCH  19  26
BRANCH  19  27
ATOM     27  C   UNL     1       7.876   5.729  18.631  0.00  0.00    +0.000 C 
ATOM     28  C   UNL     1       8.010   7.223  18.292  0.00  0.00    +0.000 C 
ATOM     29  C   UNL     1       8.199   5.551  20.123  0.00  0.00    +0.000 C 
ENDBRANCH  19  27
ENDBRANCH   1  19
TORSDOF 6
ENDMDL
MODEL 4
REMARK VINA RESULT:      -6.9      0.593      1.455
REMARK  Name = 
REMARK  9 active torsions:
REMARK  status: ('A' for Active; 'I' for Inactive)
REMARK    1  A    between atoms: C_1  and  C_2
REMARK    2  A    between atoms: C_7  and  C_8
REMARK    3  A    between atoms: C_8  and  N_9
REMARK    4  A    between atoms: C_8  and  C_25
REMARK    5  A    between atoms: N_12  and  C_13
REMARK    6  A    between atoms: N_16  and  C_17
REMARK    7  A    between atoms: C_17  and  C_18
REMARK    8  A    between atoms: C_25  and  C_26
REMARK    9  A    between atoms: C_25  and  C_27
REMARK                            x       y       z     vdW  Elec       q    Type
REMARK                         _______ _______ _______ _____ _____    ______ ____
ROOT
ATOM      1  N   UNL     1       3.928   4.905  19.734  0.00  0.00    +0.000 N 
ATOM      2  C   UNL     1       5.216   5.188  19.359  0.00  0.00    +0.000 C 
ATOM      3  O   UNL     1       6.157   4.970  20.110  0.00  0.00    +0.000 OA
ATOM      4  N   UNL     1       5.323   5.681  18.103  0.00  0.00    +0.000 N 
ATOM      5  H   UNL     1       3.856   4.606  20.699  0.00  0.00    +0.000 HD
ATOM      6  H   UNL     1       4.542   6.275  17.899  0.00  0.00    +0.000 HD
ENDROOT
BRANCH   4   7
ATOM      7  C   UNL     1       6.539   6.130  17.430  0.00  0.00    +0.000 C 
ATOM      8  C   UNL     1       6.136   6.871  16.151  0.00  0.00    +0.000 C 
ATOM      9  C   UNL     1       5.462   5.915  15.159  0.00  0.00    +0.000 C 
ATOM     10  N   UNL     1       6.322   4.786  14.778  0.00  0.00    +0.000 NA
ATOM     11  C   UNL     1       6.927   4.108  15.947  0.00  0.00    +0.000 C 
ATOM     12  C   UNL     1       7.504   5.023  17.028  0.00  0.00    +0.000 C 
BRANCH  10  13
ATOM     13  C   UNL     1       5.584   3.769  13.982  0.00  0.00    +0.000 C 
BRANCH  13  14
ATOM     14  C   UNL     1       5.674   3.919  12.451  0.00  0.00    +0.000 C 
ATOM     15  C   UNL     1       4.770   2.934  11.724  0.00  0.00    +0.000 C 
ATOM     16  C   UNL     1       5.681   1.819  11.251  0.00  0.00    +0.000 C 
ATOM     17  O   UNL     1       7.029   2.205  11.516  0.00  0.00    +0.000 OA
ATOM     18  C   UNL     1       7.051   3.581  11.910  0.00  0.00    +0.000 C 
ENDBRANCH  13  14
ENDBRANCH  10  13
ENDBRANCH   4   7
BRANCH   1  19
ATOM     19  C   UNL     1       2.700   5.095  18.949  0.00  0.00    +0.000 C 
BRANCH  19  26
ATOM     20  C   UNL     1       1.526   6.638  21.351  0.00  0.00    +0.000 C 
ATOM     21  C   UNL     1       1.807   7.285  20.021  0.00  0.00    +0.000 A 
ATOM     22  C   UNL     1       1.470   8.648  19.887  0.00  0.00    +0.000 A 
ATOM     23  C   UNL     1       1.684   9.330  18.697  0.00  0.00    +0.000 A 
ATOM     24  C   UNL     1       2.231   8.662  17.611  0.00  0.00    +0.000 A 
ATOM     25  C   UNL     1       2.557   7.308  17.714  0.00  0.00    +0.000 A 
ATOM     26  C   UNL     1       2.351   6.589  18.912  0.00  0.00    +0.000 A 
ENDBRANCH  19  26
BRANCH  19  27
ATOM     27  C   UNL     1       1.531   4.194  19.436  0.00  0.00    +0.000 C 
ATOM     28  C   UNL     1       1.112   3.232  18.311  0.00  0.00    +0.000 C 
ATOM     29  C   UNL     1       1.920   3.351  20.660  0.00  0.00    +0.000 C 
ENDBRANCH  19  27
ENDBRANCH   1  19
TORSDOF 6
ENDMDL
MODEL 5
REMARK VINA RESULT:      -6.8      4.912      8.519
REMARK  Name = 
REMARK  9 active torsions:
REMARK  status: ('A' for Active; 'I' for Inactive)
REMARK    1  A    between atoms: C_1  and  C_2
REMARK    2  A    between atoms: C_7  and  C_8
REMARK    3  A    between atoms: C_8  and  N_9
REMARK    4  A    between atoms: C_8  and  C_25
REMARK    5  A    between atoms: N_12  and  C_13
REMARK    6  A    between atoms: N_16  and  C_17
REMARK    7  A    between atoms: C_17  and  C_18
REMARK    8  A    between atoms: C_25  and  C_26
REMARK    9  A    between atoms: C_25  and  C_27
REMARK                            x       y       z     vdW  Elec       q    Type
REMARK                         _______ _______ _______ _____ _____    ______ ____
ROOT
ATOM      1  N   UNL     1       1.942   7.282  21.082  0.00  0.00    +0.000 N 
ATOM      2  C   UNL     1       1.170   8.377  21.373  0.00  0.00    +0.000 C 
ATOM      3  O   UNL     1       1.152   8.859  22.497  0.00  0.00    +0.000 OA
ATOM      4  N   UNL     1       0.488   8.862  20.310  0.00  0.00    +0.000 N 
ATOM      5  H   UNL     1       2.389   6.887  21.900  0.00  0.00    +0.000 HD
ATOM      6  H   UNL     1       0.184   8.109  19.722  0.00  0.00    +0.000 HD
ENDROOT
BRANCH   4   7
ATOM      7  C   UNL     1      -0.457   9.976  20.298  0.00  0.00    +0.000 C 
ATOM      8  C   UNL     1      -0.713  10.376  18.842  0.00  0.00    +0.000 C 
ATOM      9  C   UNL     1       0.564  10.931  18.199  0.00  0.00    +0.000 C 
ATOM     10  N   UNL     1       1.097  12.105  18.905  0.00  0.00    +0.000 NA
ATOM     11  C   UNL     1       1.205  11.891  20.367  0.00  0.00    +0.000 C 
ATOM     12  C   UNL     1       0.004  11.225  21.038  0.00  0.00    +0.000 C 
BRANCH  10  13
ATOM     13  C   UNL     1       2.436  12.501  18.394  0.00  0.00    +0.000 C 
BRANCH  13  14
ATOM     14  C   UNL     1       2.633  14.005  18.122  0.00  0.00    +0.000 C 
ATOM     15  C   UNL     1       3.870  14.556  18.815  0.00  0.00    +0.000 C 
ATOM     16  C   UNL     1       3.359  15.271  20.050  0.00  0.00    +0.000 C 
ATOM     17  O   UNL     1       1.934  15.297  19.990  0.00  0.00    +0.000 OA
ATOM     18  C   UNL     1       1.514  14.855  18.695  0.00  0.00    +0.000 C 
ENDBRANCH  13  14
ENDBRANCH  10  13
ENDBRANCH   4   7
BRANCH   1  19
ATOM     19  C   UNL     1       2.081   6.597  19.789  0.00  0.00    +0.000 C 
BRANCH  19  26
ATOM     20  C   UNL     1       1.223   4.620  17.579  0.00  0.00    +0.000 C 
ATOM     21  C   UNL     1       1.554   4.186  18.982  0.00  0.00    +0.000 A 
ATOM     22  C   UNL     1       1.419   2.814  19.277  0.00  0.00    +0.000 A 
ATOM     23  C   UNL     1       1.693   2.318  20.545  0.00  0.00    +0.000 A 
ATOM     24  C   UNL     1       2.103   3.186  21.548  0.00  0.00    +0.000 A 
ATOM     25  C   UNL     1       2.229   4.551  21.284  0.00  0.00    +0.000 A 
ATOM     26  C   UNL     1       1.956   5.083  20.004  0.00  0.00    +0.000 A 
ENDBRANCH  19  26
BRANCH  19  27
ATOM     27  C   UNL     1       3.369   7.013  19.024  0.00  0.00    +0.000 C 
ATOM     28  C   UNL     1       4.228   5.770  18.736  0.00  0.00    +0.000 C 
ATOM     29  C   UNL     1       3.053   7.692  17.683  0.00  0.00    +0.000 C 
ENDBRANCH  19  27
ENDBRANCH   1  19
TORSDOF 6
ENDMDL
MODEL 6
REMARK VINA RESULT:      -6.8      4.898      8.340
REMARK  Name = 
REMARK  9 active torsions:
REMARK  status: ('A' for Active; 'I' for Inactive)
REMARK    1  A    between atoms: C_1  and  C_2
REMARK    2  A    between atoms: C_7  and  C_8
REMARK    3  A    between atoms: C_8  and  N_9
REMARK    4  A    between atoms: C_8  and  C_25
REMARK    5  A    between atoms: N_12  and  C_13
REMARK    6  A    between atoms: N_16  and  C_17
REMARK    7  A    between atoms: C_17  and  C_18
REMARK    8  A    between atoms: C_25  and  C_26
REMARK    9  A    between atoms: C_25  and  C_27
REMARK                            x       y       z     vdW  Elec       q    Type
REMARK                         _______ _______ _______ _____ _____    ______ ____
ROOT
ATOM      1  N   UNL     1       2.031   7.319  21.054  0.00  0.00    +0.000 N 
ATOM      2  C   UNL     1       1.238   8.398  21.346  0.00  0.00    +0.000 C 
ATOM      3  O   UNL     1       1.235   8.898  22.462  0.00  0.00    +0.000 OA
ATOM      4  N   UNL     1       0.518   8.847  20.292  0.00  0.00    +0.000 N 
ATOM      5  H   UNL     1       2.508   6.949  21.867  0.00  0.00    +0.000 HD
ATOM      6  H   UNL     1       0.220   8.076  19.725  0.00  0.00    +0.000 HD
ENDROOT
BRANCH   4   7
ATOM      7  C   UNL     1      -0.457   9.936  20.286  0.00  0.00    +0.000 C 
ATOM      8  C   UNL     1      -0.718  10.340  18.832  0.00  0.00    +0.000 C 
ATOM      9  C   UNL     1       0.546  10.934  18.198  0.00  0.00    +0.000 C 
ATOM     10  N   UNL     1       1.045  12.115  18.915  0.00  0.00    +0.000 NA
ATOM     11  C   UNL     1       1.154  11.894  20.376  0.00  0.00    +0.000 C 
ATOM     12  C   UNL     1      -0.032  11.190  21.037  0.00  0.00    +0.000 C 
BRANCH  10  13
ATOM     13  C   UNL     1       2.375  12.551  18.411  0.00  0.00    +0.000 C 
BRANCH  13  14
ATOM     14  C   UNL     1       2.976  13.796  19.092  0.00  0.00    +0.000 C 
ATOM     15  C   UNL     1       2.055  15.003  18.996  0.00  0.00    +0.000 C 
ATOM     16  C   UNL     1       2.619  15.856  17.876  0.00  0.00    +0.000 C 
ATOM     17  O   UNL     1       3.866  15.292  17.474  0.00  0.00    +0.000 OA
ATOM     18  C   UNL     1       4.243  14.280  18.412  0.00  0.00    +0.000 C 
ENDBRANCH  13  14
ENDBRANCH  10  13
ENDBRANCH   4   7
BRANCH   1  19
ATOM     19  C   UNL     1       2.157   6.616  19.769  0.00  0.00    +0.000 C 
BRANCH  19  26
ATOM     20  C   UNL     1       1.239   4.648  17.576  0.00  0.00    +0.000 C 
ATOM     21  C   UNL     1       1.550   4.217  18.984  0.00  0.00    +0.000 A 
ATOM     22  C   UNL     1       1.365   2.853  19.292  0.00  0.00    +0.000 A 
ATOM     23  C   UNL     1       1.617   2.361  20.566  0.00  0.00    +0.000 A 
ATOM     24  C   UNL     1       2.053   3.223  21.561  0.00  0.00    +0.000 A 
ATOM     25  C   UNL     1       2.228   4.581  21.284  0.00  0.00    +0.000 A 
ATOM     26  C   UNL     1       1.978   5.109  19.999  0.00  0.00    +0.000 A 
ENDBRANCH  19  26
BRANCH  19  27
ATOM     27  C   UNL     1       3.465   6.979  19.011  0.00  0.00    +0.000 C 
ATOM     28  C   UNL     1       4.318   5.715  18.809  0.00  0.00    +0.000 C 
ATOM     29  C   UNL     1       3.183   7.587  17.628  0.00  0.00    +0.000 C 
ENDBRANCH  19  27
ENDBRANCH   1  19
TORSDOF 6
ENDMDL
MODEL 7
REMARK VINA RESULT:      -6.7      8.797     11.847
REMARK  Name = 
REMARK  9 active torsions:
REMARK  status: ('A' for Active; 'I' for Inactive)
REMARK    1  A    between atoms: C_1  and  C_2
REMARK    2  A    between atoms: C_7  and  C_8
REMARK    3  A    between atoms: C_8  and  N_9
REMARK    4  A    between atoms: C_8  and  C_25
REMARK    5  A    between atoms: N_12  and  C_13
REMARK    6  A    between atoms: N_16  and  C_17
REMARK    7  A    between atoms: C_17  and  C_18
REMARK    8  A    between atoms: C_25  and  C_26
REMARK    9  A    between atoms: C_25  and  C_27
REMARK                            x       y       z     vdW  Elec       q    Type
REMARK                         _______ _______ _______ _____ _____    ______ ____
ROOT
ATOM      1  N   UNL     1      -3.071  12.419  23.091  0.00  0.00    +0.000 N 
ATOM      2  C   UNL     1      -4.419  12.650  22.990  0.00  0.00    +0.000 C 
ATOM      3  O   UNL     1      -5.174  12.415  23.923  0.00  0.00    +0.000 OA
ATOM      4  N   UNL     1      -4.794  13.179  21.802  0.00  0.00    +0.000 N 
ATOM      5  H   UNL     1      -2.815  11.957  23.956  0.00  0.00    +0.000 HD
ATOM      6  H   UNL     1      -4.239  12.792  21.062  0.00  0.00    +0.000 HD
ENDROOT
BRANCH   4   7
ATOM      7  C   UNL     1      -6.152  13.487  21.360  0.00  0.00    +0.000 C 
ATOM      8  C   UNL     1      -6.950  12.181  21.309  0.00  0.00    +0.000 C 
ATOM      9  C   UNL     1      -6.386  11.241  20.236  0.00  0.00    +0.000 C 
ATOM     10  N   UNL     1      -6.399  11.833  18.892  0.00  0.00    +0.000 NA
ATOM     11  C   UNL     1      -5.817  13.195  18.862  0.00  0.00    +0.000 C 
ATOM     12  C   UNL     1      -6.254  14.136  19.986  0.00  0.00    +0.000 C 
BRANCH  10  13
ATOM     13  C   UNL     1      -5.666  10.994  17.907  0.00  0.00    +0.000 C 
BRANCH  13  14
ATOM     14  C   UNL     1      -4.267  11.498  17.504  0.00  0.00    +0.000 C 
ATOM     15  C   UNL     1      -3.937  11.176  16.054  0.00  0.00    +0.000 C 
ATOM     16  C   UNL     1      -3.029   9.963  16.104  0.00  0.00    +0.000 C 
ATOM     17  O   UNL     1      -2.705   9.707  17.470  0.00  0.00    +0.000 OA
ATOM     18  C   UNL     1      -3.153  10.807  18.268  0.00  0.00    +0.000 C 
ENDBRANCH  13  14
ENDBRANCH  10  13
ENDBRANCH   4   7
BRANCH   1  19
ATOM     19  C   UNL     1      -2.037  12.659  22.074  0.00  0.00    +0.000 C 
BRANCH  19  26
ATOM     20  C   UNL     1      -0.204  12.016  19.676  0.00  0.00    +0.000 C 
ATOM     21  C   UNL     1      -0.254  11.168  20.918  0.00  0.00    +0.000 A 
ATOM     22  C   UNL     1       0.557  10.014  20.939  0.00  0.00    +0.000 A 
ATOM     23  C   UNL     1       0.573   9.164  22.037  0.00  0.00    +0.000 A 
ATOM     24  C   UNL     1      -0.226   9.446  23.135  0.00  0.00    +0.000 A 
ATOM     25  C   UNL     1      -1.049  10.574  23.132  0.00  0.00    +0.000 A 
ATOM     26  C   UNL     1      -1.087  11.455  22.029  0.00  0.00    +0.000 A 
ENDBRANCH  19  26
BRANCH  19  27
ATOM     27  C   UNL     1      -1.311  14.020  22.264  0.00  0.00    +0.000 C 
ATOM     28  C   UNL     1      -2.029  15.111  21.451  0.00  0.00    +0.000 C 
ATOM     29  C   UNL     1      -1.287  14.463  23.735  0.00  0.00    +0.000 C 
ENDBRANCH  19  27
ENDBRANCH   1  19
TORSDOF 6
ENDMDL
MODEL 8
REMARK VINA RESULT:      -6.6      7.077     11.863
REMARK  Name = 
REMARK  9 active torsions:
REMARK  status: ('A' for Active; 'I' for Inactive)
REMARK    1  A    between atoms: C_1  and  C_2
REMARK    2  A    between atoms: C_7  and  C_8
REMARK    3  A    between atoms: C_8  and  N_9
REMARK    4  A    between atoms: C_8  and  C_25
REMARK    5  A    between atoms: N_12  and  C_13
REMARK    6  A    between atoms: N_16  and  C_17
REMARK    7  A    between atoms: C_17  and  C_18
REMARK    8  A    between atoms: C_25  and  C_26
REMARK    9  A    between atoms: C_25  and  C_27
REMARK                            x       y       z     vdW  Elec       q    Type
REMARK                         _______ _______ _______ _____ _____    ______ ____
ROOT
ATOM      1  N   UNL     1       0.645  12.389  20.655  0.00  0.00    +0.000 N 
ATOM      2  C   UNL     1       0.255  13.206  21.684  0.00  0.00    +0.000 C 
ATOM      3  O   UNL     1       1.030  14.010  22.184  0.00  0.00    +0.000 OA
ATOM      4  N   UNL     1      -1.041  13.052  22.042  0.00  0.00    +0.000 N 
ATOM      5  H   UNL     1       1.634  12.464  20.446  0.00  0.00    +0.000 HD
ATOM      6  H   UNL     1      -1.307  12.088  21.966  0.00  0.00    +0.000 HD
ENDROOT
BRANCH   4   7
ATOM      7  C   UNL     1      -1.745  13.726  23.130  0.00  0.00    +0.000 C 
ATOM      8  C   UNL     1      -2.883  12.817  23.605  0.00  0.00    +0.000 C 
ATOM      9  C   UNL     1      -3.932  12.639  22.501  0.00  0.00    +0.000 C 
ATOM     10  N   UNL     1      -4.522  13.911  22.061  0.00  0.00    +0.000 NA
ATOM     11  C   UNL     1      -3.501  14.940  21.757  0.00  0.00    +0.000 C 
ATOM     12  C   UNL     1      -2.360  15.072  22.768  0.00  0.00    +0.000 C 
BRANCH  10  13
ATOM     13  C   UNL     1      -5.381  13.740  20.860  0.00  0.00    +0.000 C 
BRANCH  13  14
ATOM     14  C   UNL     1      -5.598  12.289  20.390  0.00  0.00    +0.000 C 
ATOM     15  C   UNL     1      -5.419  12.139  18.886  0.00  0.00    +0.000 C 
ATOM     16  C   UNL     1      -6.821  12.095  18.313  0.00  0.00    +0.000 C 
ATOM     17  O   UNL     1      -7.744  12.037  19.399  0.00  0.00    +0.000 OA
ATOM     18  C   UNL     1      -7.020  11.808  20.612  0.00  0.00    +0.000 C 
ENDBRANCH  13  14
ENDBRANCH  10  13
ENDBRANCH   4   7
BRANCH   1  19
ATOM     19  C   UNL     1      -0.163  11.388  19.944  0.00  0.00    +0.000 C 
BRANCH  19  26
ATOM     20  C   UNL     1      -0.302   9.525  22.400  0.00  0.00    +0.000 C 
ATOM     21  C   UNL     1       0.473   9.183  21.156  0.00  0.00    +0.000 A 
ATOM     22  C   UNL     1       1.189   7.967  21.161  0.00  0.00    +0.000 A 
ATOM     23  C   UNL     1       1.940   7.568  20.064  0.00  0.00    +0.000 A 
ATOM     24  C   UNL     1       1.999   8.380  18.940  0.00  0.00    +0.000 A 
ATOM     25  C   UNL     1       1.312   9.595  18.917  0.00  0.00    +0.000 A 
ATOM     26  C   UNL     1       0.540  10.027  20.019  0.00  0.00    +0.000 A 
ENDBRANCH  19  26
BRANCH  19  27
ATOM     27  C   UNL     1      -0.522  11.824  18.496  0.00  0.00    +0.000 C 
ATOM     28  C   UNL     1      -1.944  11.352  18.148  0.00  0.00    +0.000 C 
ATOM     29  C   UNL     1      -0.474  13.350  18.321  0.00  0.00    +0.000 C 
ENDBRANCH  19  27
ENDBRANCH   1  19
TORSDOF 6
ENDMDL
MODEL 9
REMARK VINA RESULT:      -6.5      6.362     11.473
REMARK  Name = 
REMARK  9 active torsions:
REMARK  status: ('A' for Active; 'I' for Inactive)
REMARK    1  A    between atoms: C_1  and  C_2
REMARK    2  A    between atoms: C_7  and  C_8
REMARK    3  A    between atoms: C_8  and  N_9
REMARK    4  A    between atoms: C_8  and  C_25
REMARK    5  A    between atoms: N_12  and  C_13
REMARK    6  A    between atoms: N_16  and  C_17
REMARK    7  A    between atoms: C_17  and  C_18
REMARK    8  A    between atoms: C_25  and  C_26
REMARK    9  A    between atoms: C_25  and  C_27
REMARK                            x       y       z     vdW  Elec       q    Type
REMARK                         _______ _______ _______ _____ _____    ______ ____
ROOT
ATOM      1  N   UNL     1       1.569  12.153  18.285  0.00  0.00    +0.000 N 
ATOM      2  C   UNL     1       1.667  13.513  18.433  0.00  0.00    +0.000 C 
ATOM      3  O   UNL     1       2.506  14.158  17.821  0.00  0.00    +0.000 OA
ATOM      4  N   UNL     1       0.743  14.038  19.272  0.00  0.00    +0.000 N 
ATOM      5  H   UNL     1       2.310  11.766  17.713  0.00  0.00    +0.000 HD
ATOM      6  H   UNL     1       0.570  13.406  20.031  0.00  0.00    +0.000 HD
ENDROOT
BRANCH   4   7
ATOM      7  C   UNL     1       0.614  15.433  19.683  0.00  0.00    +0.000 C 
ATOM      8  C   UNL     1       1.349  15.613  21.015  0.00  0.00    +0.000 C 
ATOM      9  C   UNL     1       0.666  14.806  22.125  0.00  0.00    +0.000 C 
ATOM     10  N   UNL     1      -0.740  15.185  22.328  0.00  0.00    +0.000 NA
ATOM     11  C   UNL     1      -1.507  15.231  21.062  0.00  0.00    +0.000 C 
ATOM     12  C   UNL     1      -0.816  15.919  19.884  0.00  0.00    +0.000 C 
BRANCH  10  13
ATOM     13  C   UNL     1      -1.437  14.259  23.259  0.00  0.00    +0.000 C 
BRANCH  13  14
ATOM     14  C   UNL     1      -2.853  13.822  22.837  0.00  0.00    +0.000 C 
ATOM     15  C   UNL     1      -3.897  14.166  23.890  0.00  0.00    +0.000 C 
ATOM     16  C   UNL     1      -4.169  12.871  24.630  0.00  0.00    +0.000 C 
ATOM     17  O   UNL     1      -3.483  11.819  23.952  0.00  0.00    +0.000 OA
ATOM     18  C   UNL     1      -2.986  12.316  22.705  0.00  0.00    +0.000 C 
ENDBRANCH  13  14
ENDBRANCH  10  13
ENDBRANCH   4   7
BRANCH   1  19
ATOM     19  C   UNL     1       0.615  11.243  18.934  0.00  0.00    +0.000 C 
BRANCH  19  26
ATOM     20  C   UNL     1       0.357   9.363  21.369  0.00  0.00    +0.000 C 
ATOM     21  C   UNL     1       1.100   8.983  20.116  0.00  0.00    +0.000 A 
ATOM     22  C   UNL     1       1.727   7.720  20.102  0.00  0.00    +0.000 A 
ATOM     23  C   UNL     1       2.443   7.282  18.995  0.00  0.00    +0.000 A 
ATOM     24  C   UNL     1       2.553   8.101  17.881  0.00  0.00    +0.000 A 
ATOM     25  C   UNL     1       1.953   9.362  17.877  0.00  0.00    +0.000 A 
ATOM     26  C   UNL     1       1.220   9.834  18.989  0.00  0.00    +0.000 A 
ENDBRANCH  19  26
BRANCH  19  27
ATOM     27  C   UNL     1      -0.797  11.289  18.285  0.00  0.00    +0.000 C 
ATOM     28  C   UNL     1      -1.124   9.926  17.653  0.00  0.00    +0.000 C 
ATOM     29  C   UNL     1      -1.895  11.612  19.311  0.00  0.00    +0.000 C 
ENDBRANCH  19  27
ENDBRANCH   1  19
TORSDOF 6
ENDMDL
