MODEL 1
REMARK VINA RESULT:      -5.1      0.000      0.000
REMARK  Name = 
REMARK  2 active torsions:
REMARK  status: ('A' for Active; 'I' for Inactive)
REMARK    1  A    between atoms: C_1  and  N_2
REMARK    2  A    between atoms: C_7  and  N_8
REMARK                            x       y       z     vdW  Elec       q    Type
REMARK                         _______ _______ _______ _____ _____    ______ ____
ROOT
ATOM      1  C   UNL     1       2.907   5.433  18.114  0.00  0.00    +0.000 C 
ATOM      2  N   UNL     1       3.630   4.209  18.391  0.00  0.00    +0.000 N 
ATOM      3  C   UNL     1       2.977   3.183  19.229  0.00  0.00    +0.000 C 
ATOM      4  C   UNL     1       4.155   2.579  20.022  0.00  0.00    +0.000 C 
ATOM      5  N   UNL     1       5.304   2.956  19.208  0.00  0.00    +0.000 N 
ATOM      6  C   UNL     1       5.016   4.046  18.409  0.00  0.00    +0.000 C 
ATOM      7  C   UNL     1       5.879   4.845  17.761  0.00  0.00    +0.000 C 
ATOM      8  H   UNL     1       6.243   2.930  19.608  0.00  0.00    +0.000 HD
ENDROOT
BRANCH   7   9
ATOM      9  N   UNL     1       7.304   4.667  17.829  0.00  0.00    +0.000 N 
ATOM     10  O   UNL     1       7.948   4.404  16.802  0.00  0.00    +0.000 OA
ATOM     11  O   UNL     1       7.796   4.754  18.963  0.00  0.00    +0.000 OA
ENDBRANCH   7   9
TORSDOF 1
ENDMDL
MODEL 2
REMARK VINA RESULT:      -5.0      0.404      1.057
REMARK  Name = 
REMARK  2 active torsions:
REMARK  status: ('A' for Active; 'I' for Inactive)
REMARK    1  A    between atoms: C_1  and  N_2
REMARK    2  A    between atoms: C_7  and  N_8
REMARK                            x       y       z     vdW  Elec       q    Type
REMARK                         _______ _______ _______ _____ _____    ______ ____
ROOT
ATOM      1  C   UNL     1       3.267   5.964  17.982  0.00  0.00    +0.000 C 
ATOM      2  N   UNL     1       3.813   4.648  18.240  0.00  0.00    +0.000 N 
ATOM      3  C   UNL     1       2.987   3.682  18.992  0.00  0.00    +0.000 C 
ATOM      4  C   UNL     1       4.030   2.901  19.820  0.00  0.00    +0.000 C 
ATOM      5  N   UNL     1       5.265   3.159  19.087  0.00  0.00    +0.000 N 
ATOM      6  C   UNL     1       5.164   4.307  18.325  0.00  0.00    +0.000 C 
ATOM      7  C   UNL     1       6.157   5.014  17.763  0.00  0.00    +0.000 C 
ATOM      8  H   UNL     1       6.166   2.997  19.536  0.00  0.00    +0.000 HD
ENDROOT
BRANCH   7   9
ATOM      9  N   UNL     1       7.542   4.652  17.899  0.00  0.00    +0.000 N 
ATOM     10  O   UNL     1       8.123   4.809  18.984  0.00  0.00    +0.000 OA
ATOM     11  O   UNL     1       8.084   4.229  16.868  0.00  0.00    +0.000 OA
ENDBRANCH   7   9
TORSDOF 1
ENDMDL
MODEL 3
REMARK VINA RESULT:      -4.9      0.997      1.073
REMARK  Name = 
REMARK  2 active torsions:
REMARK  status: ('A' for Active; 'I' for Inactive)
REMARK    1  A    between atoms: C_1  and  N_2
REMARK    2  A    between atoms: C_7  and  N_8
REMARK                            x       y       z     vdW  Elec       q    Type
REMARK                         _______ _______ _______ _____ _____    ______ ____
ROOT
ATOM      1  C   UNL     1       2.660   5.548  19.378  0.00  0.00    +0.000 C 
ATOM      2  N   UNL     1       3.446   4.383  19.029  0.00  0.00    +0.000 N 
ATOM      3  C   UNL     1       2.808   3.054  19.124  0.00  0.00    +0.000 C 
ATOM      4  C   UNL     1       3.966   2.143  19.584  0.00  0.00    +0.000 C 
ATOM      5  N   UNL     1       5.141   2.922  19.211  0.00  0.00    +0.000 N 
ATOM      6  C   UNL     1       4.835   4.264  19.092  0.00  0.00    +0.000 C 
ATOM      7  C   UNL     1       5.683   5.304  19.057  0.00  0.00    +0.000 C 
ATOM      8  H   UNL     1       6.048   2.705  19.625  0.00  0.00    +0.000 HD
ENDROOT
BRANCH   7   9
ATOM      9  N   UNL     1       7.109   5.147  19.157  0.00  0.00    +0.000 N 
ATOM     10  O   UNL     1       7.744   4.619  18.231  0.00  0.00    +0.000 OA
ATOM     11  O   UNL     1       7.611   5.531  20.223  0.00  0.00    +0.000 OA
ENDBRANCH   7   9
TORSDOF 1
ENDMDL
MODEL 4
REMARK VINA RESULT:      -4.8      1.686      2.019
REMARK  Name = 
REMARK  2 active torsions:
REMARK  status: ('A' for Active; 'I' for Inactive)
REMARK    1  A    between atoms: C_1  and  N_2
REMARK    2  A    between atoms: C_7  and  N_8
REMARK                            x       y       z     vdW  Elec       q    Type
REMARK                         _______ _______ _______ _____ _____    ______ ____
ROOT
ATOM      1  C   UNL     1       3.402   6.489  17.971  0.00  0.00    +0.000 C 
ATOM      2  N   UNL     1       3.697   5.191  17.402  0.00  0.00    +0.000 N 
ATOM      3  C   UNL     1       2.845   4.047  17.788  0.00  0.00    +0.000 C 
ATOM      4  C   UNL     1       3.839   2.866  17.814  0.00  0.00    +0.000 C 
ATOM      5  N   UNL     1       4.935   3.364  16.991  0.00  0.00    +0.000 N 
ATOM      6  C   UNL     1       4.935   4.745  16.939  0.00  0.00    +0.000 C 
ATOM      7  C   UNL     1       5.928   5.555  16.540  0.00  0.00    +0.000 C 
ATOM      8  H   UNL     1       5.852   2.918  17.039  0.00  0.00    +0.000 HD
ENDROOT
BRANCH   7   9
ATOM      9  N   UNL     1       7.205   5.061  16.099  0.00  0.00    +0.000 N 
ATOM     10  O   UNL     1       7.900   4.368  16.858  0.00  0.00    +0.000 OA
ATOM     11  O   UNL     1       7.545   5.414  14.961  0.00  0.00    +0.000 OA
ENDBRANCH   7   9
TORSDOF 1
ENDMDL
MODEL 5
REMARK VINA RESULT:      -4.7      2.506      3.591
REMARK  Name = 
REMARK  2 active torsions:
REMARK  status: ('A' for Active; 'I' for Inactive)
REMARK    1  A    between atoms: C_1  and  N_2
REMARK    2  A    between atoms: C_7  and  N_8
REMARK                            x       y       z     vdW  Elec       q    Type
REMARK                         _______ _______ _______ _____ _____    ______ ____
ROOT
ATOM      1  C   UNL     1       4.192   6.558  17.514  0.00  0.00    +0.000 C 
ATOM      2  N   UNL     1       5.300   5.820  18.082  0.00  0.00    +0.000 N 
ATOM      3  C   UNL     1       6.673   6.232  17.724  0.00  0.00    +0.000 C 
ATOM      4  C   UNL     1       7.438   4.892  17.677  0.00  0.00    +0.000 C 
ATOM      5  N   UNL     1       6.581   4.017  18.469  0.00  0.00    +0.000 N 
ATOM      6  C   UNL     1       5.285   4.493  18.514  0.00  0.00    +0.000 C 
ATOM      7  C   UNL     1       4.176   3.833  18.883  0.00  0.00    +0.000 C 
ATOM      8  H   UNL     1       6.684   3.004  18.399  0.00  0.00    +0.000 HD
ENDROOT
BRANCH   7   9
ATOM      9  N   UNL     1       4.192   2.454  19.292  0.00  0.00    +0.000 N 
ATOM     10  O   UNL     1       3.471   1.625  18.716  0.00  0.00    +0.000 OA
ATOM     11  O   UNL     1       4.927   2.196  20.256  0.00  0.00    +0.000 OA
ENDBRANCH   7   9
TORSDOF 1
ENDMDL
MODEL 6
REMARK VINA RESULT:      -4.7      2.442      3.452
REMARK  Name = 
REMARK  2 active torsions:
REMARK  status: ('A' for Active; 'I' for Inactive)
REMARK    1  A    between atoms: C_1  and  N_2
REMARK    2  A    between atoms: C_7  and  N_8
REMARK                            x       y       z     vdW  Elec       q    Type
REMARK                         _______ _______ _______ _____ _____    ______ ____
ROOT
ATOM      1  C   UNL     1       4.215   3.802  16.951  0.00  0.00    +0.000 C 
ATOM      2  N   UNL     1       5.226   4.695  16.426  0.00  0.00    +0.000 N 
ATOM      3  C   UNL     1       5.523   4.644  14.980  0.00  0.00    +0.000 C 
ATOM      4  C   UNL     1       7.040   4.922  14.926  0.00  0.00    +0.000 C 
ATOM      5  N   UNL     1       7.286   5.563  16.212  0.00  0.00    +0.000 N 
ATOM      6  C   UNL     1       6.302   5.242  17.127  0.00  0.00    +0.000 C 
ATOM      7  C   UNL     1       6.335   5.392  18.461  0.00  0.00    +0.000 C 
ATOM      8  H   UNL     1       8.236   5.623  16.578  0.00  0.00    +0.000 HD
ENDROOT
BRANCH   7   9
ATOM      9  N   UNL     1       7.474   5.930  19.154  0.00  0.00    +0.000 N 
ATOM     10  O   UNL     1       8.114   6.873  18.664  0.00  0.00    +0.000 OA
ATOM     11  O   UNL     1       7.767   5.359  20.215  0.00  0.00    +0.000 OA
ENDBRANCH   7   9
TORSDOF 1
ENDMDL
MODEL 7
REMARK VINA RESULT:      -4.7      2.599      3.567
REMARK  Name = 
REMARK  2 active torsions:
REMARK  status: ('A' for Active; 'I' for Inactive)
REMARK    1  A    between atoms: C_1  and  N_2
REMARK    2  A    between atoms: C_7  and  N_8
REMARK                            x       y       z     vdW  Elec       q    Type
REMARK                         _______ _______ _______ _____ _____    ______ ____
ROOT
ATOM      1  C   UNL     1       3.985   4.869  17.319  0.00  0.00    +0.000 C 
ATOM      2  N   UNL     1       5.387   4.507  17.318  0.00  0.00    +0.000 N 
ATOM      3  C   UNL     1       6.135   4.600  18.589  0.00  0.00    +0.000 C 
ATOM      4  C   UNL     1       7.541   5.045  18.133  0.00  0.00    +0.000 C 
ATOM      5  N   UNL     1       7.547   4.667  16.725  0.00  0.00    +0.000 N 
ATOM      6  C   UNL     1       6.261   4.558  16.231  0.00  0.00    +0.000 C 
ATOM      7  C   UNL     1       5.871   4.521  14.947  0.00  0.00    +0.000 C 
ATOM      8  H   UNL     1       8.237   5.071  16.092  0.00  0.00    +0.000 HD
ENDROOT
BRANCH   7   9
ATOM      9  N   UNL     1       6.798   4.609  13.851  0.00  0.00    +0.000 N 
ATOM     10  O   UNL     1       6.656   3.881  12.856  0.00  0.00    +0.000 OA
ATOM     11  O   UNL     1       7.730   5.410  14.007  0.00  0.00    +0.000 OA
ENDBRANCH   7   9
TORSDOF 1
ENDMDL
MODEL 8
REMARK VINA RESULT:      -4.7      2.265      3.325
REMARK  Name = 
REMARK  2 active torsions:
REMARK  status: ('A' for Active; 'I' for Inactive)
REMARK    1  A    between atoms: C_1  and  N_2
REMARK    2  A    between atoms: C_7  and  N_8
REMARK                            x       y       z     vdW  Elec       q    Type
REMARK                         _______ _______ _______ _____ _____    ______ ____
ROOT
ATOM      1  C   UNL     1       3.944   4.131  17.266  0.00  0.00    +0.000 C 
ATOM      2  N   UNL     1       5.106   4.771  16.685  0.00  0.00    +0.000 N 
ATOM      3  C   UNL     1       5.397   4.530  15.257  0.00  0.00    +0.000 C 
ATOM      4  C   UNL     1       6.940   4.518  15.213  0.00  0.00    +0.000 C 
ATOM      5  N   UNL     1       7.292   5.223  16.440  0.00  0.00    +0.000 N 
ATOM      6  C   UNL     1       6.260   5.176  17.358  0.00  0.00    +0.000 C 
ATOM      7  C   UNL     1       6.312   5.443  18.672  0.00  0.00    +0.000 C 
ATOM      8  H   UNL     1       8.234   5.143  16.822  0.00  0.00    +0.000 HD
ENDROOT
BRANCH   7   9
ATOM      9  N   UNL     1       7.527   5.826  19.340  0.00  0.00    +0.000 N 
ATOM     10  O   UNL     1       7.854   5.276  20.403  0.00  0.00    +0.000 OA
ATOM     11  O   UNL     1       8.161   6.744  18.800  0.00  0.00    +0.000 OA
ENDBRANCH   7   9
TORSDOF 1
ENDMDL
MODEL 9
REMARK VINA RESULT:      -4.6      2.980      3.609
REMARK  Name = 
REMARK  2 active torsions:
REMARK  status: ('A' for Active; 'I' for Inactive)
REMARK    1  A    between atoms: C_1  and  N_2
REMARK    2  A    between atoms: C_7  and  N_8
REMARK                            x       y       z     vdW  Elec       q    Type
REMARK                         _______ _______ _______ _____ _____    ______ ____
ROOT
ATOM      1  C   UNL     1       4.398   6.470  17.478  0.00  0.00    +0.000 C 
ATOM      2  N   UNL     1       5.512   5.546  17.537  0.00  0.00    +0.000 N 
ATOM      3  C   UNL     1       6.212   5.375  18.826  0.00  0.00    +0.000 C 
ATOM      4  C   UNL     1       7.679   5.157  18.400  0.00  0.00    +0.000 C 
ATOM      5  N   UNL     1       7.541   4.742  17.009  0.00  0.00    +0.000 N 
ATOM      6  C   UNL     1       6.338   5.166  16.478  0.00  0.00    +0.000 C 
ATOM      7  C   UNL     1       5.985   5.234  15.184  0.00  0.00    +0.000 C 
ATOM      8  H   UNL     1       8.345   4.782  16.383  0.00  0.00    +0.000 HD
ENDROOT
BRANCH   7   9
ATOM      9  N   UNL     1       6.874   4.864  14.116  0.00  0.00    +0.000 N 
ATOM     10  O   UNL     1       7.938   5.479  13.950  0.00  0.00    +0.000 OA
ATOM     11  O   UNL     1       6.473   3.946  13.387  0.00  0.00    +0.000 OA
ENDBRANCH   7   9
TORSDOF 1
ENDMDL
