MODEL 1
REMARK VINA RESULT:      -9.7      0.000      0.000
REMARK  Name = 
REMARK  7 active torsions:
REMARK  status: ('A' for Active; 'I' for Inactive)
REMARK    1  A    between atoms: C_1  and  C_2
REMARK    2  A    between atoms: N_6  and  C_7
REMARK    3  A    between atoms: C_7  and  C_8
REMARK    4  A    between atoms: C_10  and  C_11
REMARK    5  A    between atoms: N_13  and  C_14
REMARK    6  A    between atoms: N_20  and  C_21
REMARK    7  A    between atoms: C_28  and  C_29
REMARK                            x       y       z     vdW  Elec       q    Type
REMARK                         _______ _______ _______ _____ _____    ______ ____
ROOT
ATOM      1  C   UNL     1       3.209   6.397  19.261  0.00  0.00    +0.000 A 
ATOM      2  C   UNL     1       2.217   7.266  19.806  0.00  0.00    +0.000 A 
ATOM      3  C   UNL     1       1.777   8.413  19.116  0.00  0.00    +0.000 A 
ATOM      4  C   UNL     1       2.295   8.677  17.863  0.00  0.00    +0.000 A 
ATOM      5  C   UNL     1       3.249   7.830  17.312  0.00  0.00    +0.000 A 
ATOM      6  C   UNL     1       3.758   6.682  17.977  0.00  0.00    +0.000 A 
ENDROOT
BRANCH   6   7
ATOM      7  C   UNL     1       4.827   5.916  17.262  0.00  0.00    +0.000 A 
ATOM      8  C   UNL     1       6.166   6.370  17.298  0.00  0.00    +0.000 A 
ATOM      9  C   UNL     1       7.209   5.680  16.666  0.00  0.00    +0.000 A 
ATOM     10  C   UNL     1       6.951   4.492  16.009  0.00  0.00    +0.000 A 
ATOM     11  C   UNL     1       5.636   4.030  15.930  0.00  0.00    +0.000 A 
ATOM     12  C   UNL     1       4.597   4.754  16.523  0.00  0.00    +0.000 A 
ENDBRANCH   6   7
BRANCH   3  13
ATOM     13  C   UNL     1       0.675   9.284  19.582  0.00  0.00    +0.000 C 
ATOM     14  O   UNL     1       0.372   9.206  20.767  0.00  0.00    +0.000 OA
ATOM     15  N   UNL     1       0.042  10.055  18.634  0.00  0.00    +0.000 N 
ATOM     16  H   UNL     1       0.300   9.927  17.662  0.00  0.00    +0.000 HD
BRANCH  15  17
ATOM     17  C   UNL     1      -0.903  11.081  18.902  0.00  0.00    +0.000 A 
ATOM     18  C   UNL     1      -2.206  11.066  18.381  0.00  0.00    +0.000 A 
ATOM     19  C   UNL     1      -3.212  11.833  18.965  0.00  0.00    +0.000 A 
ATOM     20  C   UNL     1      -2.891  12.642  20.045  0.00  0.00    +0.000 A 
ATOM     21  C   UNL     1      -1.551  12.932  20.308  0.00  0.00    +0.000 A 
ATOM     22  C   UNL     1      -0.560  12.083  19.817  0.00  0.00    +0.000 A 
ATOM     23  N   UNL     1      -1.259  13.854  21.352  0.00  0.00    +0.000 N 
ATOM     24  C   UNL     1      -1.722  15.228  21.078  0.00  0.00    +0.000 C 
ATOM     25  C   UNL     1      -1.784  13.384  22.559  0.00  0.00    +0.000 C 
ATOM     26  O   UNL     1      -1.109  13.281  23.579  0.00  0.00    +0.000 OA
ATOM     27  C   UNL     1      -3.259  12.972  22.491  0.00  0.00    +0.000 C 
ATOM     28  C   UNL     1      -3.896  13.049  21.085  0.00  0.00    +0.000 C 
ENDBRANCH  15  17
ENDBRANCH   3  13
BRANCH   1  29
ATOM     29  C   UNL     1       3.511   5.155  20.113  0.00  0.00    +0.000 C 
BRANCH  29  35
ATOM     30  C   UNL     1       1.359   3.407  17.806  0.00  0.00    +0.000 C 
ATOM     31  C   UNL     1       1.593   3.981  19.204  0.00  0.00    +0.000 C 
ATOM     32  C   UNL     1       0.753   3.240  20.250  0.00  0.00    +0.000 C 
ATOM     33  C   UNL     1       1.722   2.922  21.369  0.00  0.00    +0.000 C 
ATOM     34  C   UNL     1       3.049   2.810  20.645  0.00  0.00    +0.000 C 
ATOM     35  N   UNL     1       3.020   3.857  19.612  0.00  0.00    +0.000 NA
ENDBRANCH  29  35
ENDBRANCH   1  29
TORSDOF 5
ENDMDL
MODEL 2
REMARK VINA RESULT:      -9.5      0.466      1.157
REMARK  Name = 
REMARK  7 active torsions:
REMARK  status: ('A' for Active; 'I' for Inactive)
REMARK    1  A    between atoms: C_1  and  C_2
REMARK    2  A    between atoms: N_6  and  C_7
REMARK    3  A    between atoms: C_7  and  C_8
REMARK    4  A    between atoms: C_10  and  C_11
REMARK    5  A    between atoms: N_13  and  C_14
REMARK    6  A    between atoms: N_20  and  C_21
REMARK    7  A    between atoms: C_28  and  C_29
REMARK                            x       y       z     vdW  Elec       q    Type
REMARK                         _______ _______ _______ _____ _____    ______ ____
ROOT
ATOM      1  C   UNL     1       3.059   6.434  19.129  0.00  0.00    +0.000 A 
ATOM      2  C   UNL     1       2.070   7.298  19.685  0.00  0.00    +0.000 A 
ATOM      3  C   UNL     1       1.741   8.530  19.086  0.00  0.00    +0.000 A 
ATOM      4  C   UNL     1       2.368   8.887  17.908  0.00  0.00    +0.000 A 
ATOM      5  C   UNL     1       3.321   8.048  17.345  0.00  0.00    +0.000 A 
ATOM      6  C   UNL     1       3.721   6.813  17.924  0.00  0.00    +0.000 A 
ENDROOT
BRANCH   6   7
ATOM      7  C   UNL     1       4.805   6.063  17.215  0.00  0.00    +0.000 A 
ATOM      8  C   UNL     1       6.140   6.527  17.273  0.00  0.00    +0.000 A 
ATOM      9  C   UNL     1       7.196   5.852  16.648  0.00  0.00    +0.000 A 
ATOM     10  C   UNL     1       6.956   4.670  15.974  0.00  0.00    +0.000 A 
ATOM     11  C   UNL     1       5.646   4.200  15.871  0.00  0.00    +0.000 A 
ATOM     12  C   UNL     1       4.594   4.908  16.459  0.00  0.00    +0.000 A 
ENDBRANCH   6   7
BRANCH   3  13
ATOM     13  C   UNL     1       0.648   9.411  19.557  0.00  0.00    +0.000 C 
ATOM     14  O   UNL     1       0.434   9.429  20.763  0.00  0.00    +0.000 OA
ATOM     15  N   UNL     1      -0.075  10.080  18.596  0.00  0.00    +0.000 N 
ATOM     16  H   UNL     1       0.116   9.874  17.622  0.00  0.00    +0.000 HD
BRANCH  15  17
ATOM     17  C   UNL     1      -1.031  11.101  18.845  0.00  0.00    +0.000 A 
ATOM     18  C   UNL     1      -2.338  11.055  18.338  0.00  0.00    +0.000 A 
ATOM     19  C   UNL     1      -3.348  11.826  18.911  0.00  0.00    +0.000 A 
ATOM     20  C   UNL     1      -3.026  12.668  19.965  0.00  0.00    +0.000 A 
ATOM     21  C   UNL     1      -1.688  12.982  20.206  0.00  0.00    +0.000 A 
ATOM     22  C   UNL     1      -0.691  12.132  19.729  0.00  0.00    +0.000 A 
ATOM     23  N   UNL     1      -1.397  13.936  21.222  0.00  0.00    +0.000 N 
ATOM     24  C   UNL     1      -1.880  15.296  20.915  0.00  0.00    +0.000 C 
ATOM     25  C   UNL     1      -1.905  13.493  22.446  0.00  0.00    +0.000 C 
ATOM     26  O   UNL     1      -1.219  13.427  23.462  0.00  0.00    +0.000 OA
ATOM     27  C   UNL     1      -3.375  13.061  22.404  0.00  0.00    +0.000 C 
ATOM     28  C   UNL     1      -4.026  13.092  21.003  0.00  0.00    +0.000 C 
ENDBRANCH  15  17
ENDBRANCH   3  13
BRANCH   1  29
ATOM     29  C   UNL     1       3.235   5.099  19.869  0.00  0.00    +0.000 C 
BRANCH  29  35
ATOM     30  C   UNL     1       1.543   2.472  21.672  0.00  0.00    +0.000 C 
ATOM     31  C   UNL     1       2.450   2.897  20.516  0.00  0.00    +0.000 C 
ATOM     32  C   UNL     1       2.378   1.888  19.363  0.00  0.00    +0.000 C 
ATOM     33  C   UNL     1       2.176   2.733  18.123  0.00  0.00    +0.000 C 
ATOM     34  C   UNL     1       1.445   3.948  18.658  0.00  0.00    +0.000 C 
ATOM     35  N   UNL     1       2.052   4.223  19.970  0.00  0.00    +0.000 NA
ENDBRANCH  29  35
ENDBRANCH   1  29
TORSDOF 5
ENDMDL
MODEL 3
REMARK VINA RESULT:      -9.4      1.361      1.997
REMARK  Name = 
REMARK  7 active torsions:
REMARK  status: ('A' for Active; 'I' for Inactive)
REMARK    1  A    between atoms: C_1  and  C_2
REMARK    2  A    between atoms: N_6  and  C_7
REMARK    3  A    between atoms: C_7  and  C_8
REMARK    4  A    between atoms: C_10  and  C_11
REMARK    5  A    between atoms: N_13  and  C_14
REMARK    6  A    between atoms: N_20  and  C_21
REMARK    7  A    between atoms: C_28  and  C_29
REMARK                            x       y       z     vdW  Elec       q    Type
REMARK                         _______ _______ _______ _____ _____    ______ ____
ROOT
ATOM      1  C   UNL     1       3.241   6.331  19.290  0.00  0.00    +0.000 A 
ATOM      2  C   UNL     1       2.243   7.244  19.746  0.00  0.00    +0.000 A 
ATOM      3  C   UNL     1       1.905   8.397  19.012  0.00  0.00    +0.000 A 
ATOM      4  C   UNL     1       2.530   8.626  17.802  0.00  0.00    +0.000 A 
ATOM      5  C   UNL     1       3.491   7.737  17.337  0.00  0.00    +0.000 A 
ATOM      6  C   UNL     1       3.901   6.579  18.051  0.00  0.00    +0.000 A 
ENDROOT
BRANCH   6   7
ATOM      7  C   UNL     1       4.992   5.763  17.431  0.00  0.00    +0.000 A 
ATOM      8  C   UNL     1       4.818   5.214  16.139  0.00  0.00    +0.000 A 
ATOM      9  C   UNL     1       5.815   4.463  15.503  0.00  0.00    +0.000 A 
ATOM     10  C   UNL     1       7.033   4.268  16.124  0.00  0.00    +0.000 A 
ATOM     11  C   UNL     1       7.228   4.770  17.412  0.00  0.00    +0.000 A 
ATOM     12  C   UNL     1       6.208   5.477  18.055  0.00  0.00    +0.000 A 
ENDBRANCH   6   7
BRANCH   3  13
ATOM     13  C   UNL     1       0.804   9.316  19.381  0.00  0.00    +0.000 C 
ATOM     14  O   UNL     1       0.085   9.710  18.470  0.00  0.00    +0.000 OA
ATOM     15  N   UNL     1       0.723   9.701  20.699  0.00  0.00    +0.000 N 
ATOM     16  H   UNL     1       1.463   9.409  21.329  0.00  0.00    +0.000 HD
BRANCH  15  17
ATOM     17  C   UNL     1      -0.352  10.420  21.285  0.00  0.00    +0.000 A 
ATOM     18  C   UNL     1      -0.743  10.244  22.620  0.00  0.00    +0.000 A 
ATOM     19  C   UNL     1      -1.500  11.215  23.272  0.00  0.00    +0.000 A 
ATOM     20  C   UNL     1      -1.892  12.341  22.562  0.00  0.00    +0.000 A 
ATOM     21  C   UNL     1      -1.824  12.328  21.168  0.00  0.00    +0.000 A 
ATOM     22  C   UNL     1      -0.968  11.429  20.535  0.00  0.00    +0.000 A 
ATOM     23  N   UNL     1      -2.339  13.452  20.463  0.00  0.00    +0.000 N 
ATOM     24  C   UNL     1      -3.798  13.624  20.602  0.00  0.00    +0.000 C 
ATOM     25  C   UNL     1      -1.664  14.610  20.861  0.00  0.00    +0.000 C 
ATOM     26  O   UNL     1      -1.146  15.383  20.059  0.00  0.00    +0.000 OA
ATOM     27  C   UNL     1      -1.589  14.811  22.378  0.00  0.00    +0.000 C 
ATOM     28  C   UNL     1      -2.183  13.660  23.221  0.00  0.00    +0.000 C 
ENDBRANCH  15  17
ENDBRANCH   3  13
BRANCH   1  29
ATOM     29  C   UNL     1       3.426   5.089  20.175  0.00  0.00    +0.000 C 
BRANCH  29  35
ATOM     30  C   UNL     1       1.969   3.276  17.417  0.00  0.00    +0.000 C 
ATOM     31  C   UNL     1       1.838   3.840  18.833  0.00  0.00    +0.000 C 
ATOM     32  C   UNL     1       0.811   3.045  19.648  0.00  0.00    +0.000 C 
ATOM     33  C   UNL     1       1.502   2.756  20.964  0.00  0.00    +0.000 C 
ATOM     34  C   UNL     1       2.967   2.717  20.574  0.00  0.00    +0.000 C 
ATOM     35  N   UNL     1       3.131   3.777  19.567  0.00  0.00    +0.000 NA
ENDBRANCH  29  35
ENDBRANCH   1  29
TORSDOF 5
ENDMDL
MODEL 4
REMARK VINA RESULT:      -9.3      1.467      2.163
REMARK  Name = 
REMARK  7 active torsions:
REMARK  status: ('A' for Active; 'I' for Inactive)
REMARK    1  A    between atoms: C_1  and  C_2
REMARK    2  A    between atoms: N_6  and  C_7
REMARK    3  A    between atoms: C_7  and  C_8
REMARK    4  A    between atoms: C_10  and  C_11
REMARK    5  A    between atoms: N_13  and  C_14
REMARK    6  A    between atoms: N_20  and  C_21
REMARK    7  A    between atoms: C_28  and  C_29
REMARK                            x       y       z     vdW  Elec       q    Type
REMARK                         _______ _______ _______ _____ _____    ______ ____
ROOT
ATOM      1  C   UNL     1       3.075   6.465  19.094  0.00  0.00    +0.000 A 
ATOM      2  C   UNL     1       2.117   7.400  19.587  0.00  0.00    +0.000 A 
ATOM      3  C   UNL     1       1.843   8.605  18.911  0.00  0.00    +0.000 A 
ATOM      4  C   UNL     1       2.493   8.865  17.721  0.00  0.00    +0.000 A 
ATOM      5  C   UNL     1       3.416   7.956  17.219  0.00  0.00    +0.000 A 
ATOM      6  C   UNL     1       3.761   6.744  17.876  0.00  0.00    +0.000 A 
ENDROOT
BRANCH   6   7
ATOM      7  C   UNL     1       4.819   5.909  17.225  0.00  0.00    +0.000 A 
ATOM      8  C   UNL     1       6.180   6.278  17.339  0.00  0.00    +0.000 A 
ATOM      9  C   UNL     1       7.212   5.521  16.770  0.00  0.00    +0.000 A 
ATOM     10  C   UNL     1       6.919   4.350  16.098  0.00  0.00    +0.000 A 
ATOM     11  C   UNL     1       5.584   3.972  15.940  0.00  0.00    +0.000 A 
ATOM     12  C   UNL     1       4.560   4.762  16.472  0.00  0.00    +0.000 A 
ENDBRANCH   6   7
BRANCH   3  13
ATOM     13  C   UNL     1       0.783   9.556  19.317  0.00  0.00    +0.000 C 
ATOM     14  O   UNL     1      -0.044   9.857  18.464  0.00  0.00    +0.000 OA
ATOM     15  N   UNL     1       0.856  10.070  20.591  0.00  0.00    +0.000 N 
ATOM     16  H   UNL     1       1.669   9.843  21.153  0.00  0.00    +0.000 HD
BRANCH  15  17
ATOM     17  C   UNL     1      -0.151  10.844  21.228  0.00  0.00    +0.000 A 
ATOM     18  C   UNL     1      -0.747  10.462  22.438  0.00  0.00    +0.000 A 
ATOM     19  C   UNL     1      -1.408  11.399  23.230  0.00  0.00    +0.000 A 
ATOM     20  C   UNL     1      -1.499  12.708  22.778  0.00  0.00    +0.000 A 
ATOM     21  C   UNL     1      -1.241  12.986  21.434  0.00  0.00    +0.000 A 
ATOM     22  C   UNL     1      -0.473  12.095  20.687  0.00  0.00    +0.000 A 
ATOM     23  N   UNL     1      -1.451  14.317  20.975  0.00  0.00    +0.000 N 
ATOM     24  C   UNL     1      -2.864  14.742  21.012  0.00  0.00    +0.000 C 
ATOM     25  C   UNL     1      -0.649  15.201  21.702  0.00  0.00    +0.000 C 
ATOM     26  O   UNL     1       0.100  16.011  21.162  0.00  0.00    +0.000 OA
ATOM     27  C   UNL     1      -0.752  15.046  23.223  0.00  0.00    +0.000 C 
ATOM     28  C   UNL     1      -1.647  13.882  23.704  0.00  0.00    +0.000 C 
ENDBRANCH  15  17
ENDBRANCH   3  13
BRANCH   1  29
ATOM     29  C   UNL     1       3.190   5.171  19.915  0.00  0.00    +0.000 C 
BRANCH  29  35
ATOM     30  C   UNL     1       1.426   2.555  21.664  0.00  0.00    +0.000 C 
ATOM     31  C   UNL     1       2.367   2.974  20.534  0.00  0.00    +0.000 C 
ATOM     32  C   UNL     1       2.318   1.970  19.376  0.00  0.00    +0.000 C 
ATOM     33  C   UNL     1       2.156   2.821  18.134  0.00  0.00    +0.000 C 
ATOM     34  C   UNL     1       1.422   4.041  18.653  0.00  0.00    +0.000 C 
ATOM     35  N   UNL     1       1.996   4.306  19.981  0.00  0.00    +0.000 NA
ENDBRANCH  29  35
ENDBRANCH   1  29
TORSDOF 5
ENDMDL
MODEL 5
REMARK VINA RESULT:      -9.3      2.596      9.974
REMARK  Name = 
REMARK  7 active torsions:
REMARK  status: ('A' for Active; 'I' for Inactive)
REMARK    1  A    between atoms: C_1  and  C_2
REMARK    2  A    between atoms: N_6  and  C_7
REMARK    3  A    between atoms: C_7  and  C_8
REMARK    4  A    between atoms: C_10  and  C_11
REMARK    5  A    between atoms: N_13  and  C_14
REMARK    6  A    between atoms: N_20  and  C_21
REMARK    7  A    between atoms: C_28  and  C_29
REMARK                            x       y       z     vdW  Elec       q    Type
REMARK                         _______ _______ _______ _____ _____    ______ ____
ROOT
ATOM      1  C   UNL     1      -0.644  10.727  18.857  0.00  0.00    +0.000 A 
ATOM      2  C   UNL     1       0.258   9.865  18.164  0.00  0.00    +0.000 A 
ATOM      3  C   UNL     1       1.271   9.156  18.838  0.00  0.00    +0.000 A 
ATOM      4  C   UNL     1       1.366   9.273  20.211  0.00  0.00    +0.000 A 
ATOM      5  C   UNL     1       0.484  10.095  20.902  0.00  0.00    +0.000 A 
ATOM      6  C   UNL     1      -0.532  10.863  20.272  0.00  0.00    +0.000 A 
ENDROOT
BRANCH   6   7
ATOM      7  C   UNL     1      -1.354  11.742  21.162  0.00  0.00    +0.000 A 
ATOM      8  C   UNL     1      -1.582  11.370  22.507  0.00  0.00    +0.000 A 
ATOM      9  C   UNL     1      -2.324  12.165  23.389  0.00  0.00    +0.000 A 
ATOM     10  C   UNL     1      -2.832  13.378  22.964  0.00  0.00    +0.000 A 
ATOM     11  C   UNL     1      -2.650  13.762  21.634  0.00  0.00    +0.000 A 
ATOM     12  C   UNL     1      -1.949  12.937  20.751  0.00  0.00    +0.000 A 
ENDBRANCH   6   7
BRANCH   3  13
ATOM     13  C   UNL     1       2.159   8.166  18.188  0.00  0.00    +0.000 C 
ATOM     14  O   UNL     1       2.729   8.525  17.164  0.00  0.00    +0.000 OA
ATOM     15  N   UNL     1       2.216   6.911  18.749  0.00  0.00    +0.000 N 
ATOM     16  H   UNL     1       1.591   6.702  19.519  0.00  0.00    +0.000 HD
BRANCH  15  17
ATOM     17  C   UNL     1       3.134   5.888  18.391  0.00  0.00    +0.000 A 
ATOM     18  C   UNL     1       2.734   4.690  17.783  0.00  0.00    +0.000 A 
ATOM     19  C   UNL     1       3.652   3.905  17.088  0.00  0.00    +0.000 A 
ATOM     20  C   UNL     1       4.977   4.313  17.045  0.00  0.00    +0.000 A 
ATOM     21  C   UNL     1       5.426   5.278  17.948  0.00  0.00    +0.000 A 
ATOM     22  C   UNL     1       4.503   6.137  18.543  0.00  0.00    +0.000 A 
ATOM     23  N   UNL     1       6.814   5.593  17.955  0.00  0.00    +0.000 N 
ATOM     24  C   UNL     1       7.674   4.478  18.394  0.00  0.00    +0.000 C 
ATOM     25  C   UNL     1       7.201   6.052  16.693  0.00  0.00    +0.000 C 
ATOM     26  O   UNL     1       7.803   7.110  16.529  0.00  0.00    +0.000 OA
ATOM     27  C   UNL     1       6.777   5.147  15.532  0.00  0.00    +0.000 C 
ATOM     28  C   UNL     1       5.911   3.931  15.932  0.00  0.00    +0.000 C 
ENDBRANCH  15  17
ENDBRANCH   3  13
BRANCH   1  29
ATOM     29  C   UNL     1      -1.733  11.359  17.976  0.00  0.00    +0.000 C 
BRANCH  29  35
ATOM     30  C   UNL     1      -2.958  10.251  14.769  0.00  0.00    +0.000 C 
ATOM     31  C   UNL     1      -3.142  11.118  16.016  0.00  0.00    +0.000 C 
ATOM     32  C   UNL     1      -4.625  11.416  16.265  0.00  0.00    +0.000 C 
ATOM     33  C   UNL     1      -4.838  11.114  17.733  0.00  0.00    +0.000 C 
ATOM     34  C   UNL     1      -3.799  10.047  18.013  0.00  0.00    +0.000 C 
ATOM     35  N   UNL     1      -2.616  10.440  17.233  0.00  0.00    +0.000 NA
ENDBRANCH  29  35
ENDBRANCH   1  29
TORSDOF 5
ENDMDL
MODEL 6
REMARK VINA RESULT:      -9.1      0.825      1.439
REMARK  Name = 
REMARK  7 active torsions:
REMARK  status: ('A' for Active; 'I' for Inactive)
REMARK    1  A    between atoms: C_1  and  C_2
REMARK    2  A    between atoms: N_6  and  C_7
REMARK    3  A    between atoms: C_7  and  C_8
REMARK    4  A    between atoms: C_10  and  C_11
REMARK    5  A    between atoms: N_13  and  C_14
REMARK    6  A    between atoms: N_20  and  C_21
REMARK    7  A    between atoms: C_28  and  C_29
REMARK                            x       y       z     vdW  Elec       q    Type
REMARK                         _______ _______ _______ _____ _____    ______ ____
ROOT
ATOM      1  C   UNL     1       3.386   6.136  19.154  0.00  0.00    +0.000 A 
ATOM      2  C   UNL     1       2.368   6.993  19.671  0.00  0.00    +0.000 A 
ATOM      3  C   UNL     1       2.006   8.189  19.022  0.00  0.00    +0.000 A 
ATOM      4  C   UNL     1       2.629   8.518  17.834  0.00  0.00    +0.000 A 
ATOM      5  C   UNL     1       3.610   7.685  17.308  0.00  0.00    +0.000 A 
ATOM      6  C   UNL     1       4.042   6.487  17.938  0.00  0.00    +0.000 A 
ENDROOT
BRANCH   6   7
ATOM      7  C   UNL     1       5.152   5.742  17.264  0.00  0.00    +0.000 A 
ATOM      8  C   UNL     1       5.078   5.463  15.880  0.00  0.00    +0.000 A 
ATOM      9  C   UNL     1       6.098   4.790  15.194  0.00  0.00    +0.000 A 
ATOM     10  C   UNL     1       7.242   4.406  15.866  0.00  0.00    +0.000 A 
ATOM     11  C   UNL     1       7.335   4.638  17.239  0.00  0.00    +0.000 A 
ATOM     12  C   UNL     1       6.290   5.268  17.921  0.00  0.00    +0.000 A 
ENDBRANCH   6   7
BRANCH   3  13
ATOM     13  C   UNL     1       0.886   9.055  19.452  0.00  0.00    +0.000 C 
ATOM     14  O   UNL     1       0.517   8.944  20.615  0.00  0.00    +0.000 OA
ATOM     15  N   UNL     1       0.312   9.860  18.495  0.00  0.00    +0.000 N 
ATOM     16  H   UNL     1       0.624   9.760  17.535  0.00  0.00    +0.000 HD
BRANCH  15  17
ATOM     17  C   UNL     1      -0.640  10.885  18.741  0.00  0.00    +0.000 A 
ATOM     18  C   UNL     1      -1.919  10.884  18.167  0.00  0.00    +0.000 A 
ATOM     19  C   UNL     1      -2.946  11.645  18.722  0.00  0.00    +0.000 A 
ATOM     20  C   UNL     1      -2.667  12.435  19.828  0.00  0.00    +0.000 A 
ATOM     21  C   UNL     1      -1.338  12.715  20.150  0.00  0.00    +0.000 A 
ATOM     22  C   UNL     1      -0.330  11.870  19.686  0.00  0.00    +0.000 A 
ATOM     23  N   UNL     1      -1.085  13.618  21.220  0.00  0.00    +0.000 N 
ATOM     24  C   UNL     1      -1.532  14.999  20.951  0.00  0.00    +0.000 C 
ATOM     25  C   UNL     1      -1.661  13.131  22.397  0.00  0.00    +0.000 C 
ATOM     26  O   UNL     1      -1.029  13.008  23.442  0.00  0.00    +0.000 OA
ATOM     27  C   UNL     1      -3.133  12.726  22.261  0.00  0.00    +0.000 C 
ATOM     28  C   UNL     1      -3.712  12.830  20.832  0.00  0.00    +0.000 C 
ENDBRANCH  15  17
ENDBRANCH   3  13
BRANCH   1  29
ATOM     29  C   UNL     1       3.596   4.838  19.947  0.00  0.00    +0.000 C 
BRANCH  29  35
ATOM     30  C   UNL     1       3.503   1.466  18.667  0.00  0.00    +0.000 C 
ATOM     31  C   UNL     1       3.392   2.970  18.412  0.00  0.00    +0.000 C 
ATOM     32  C   UNL     1       2.521   3.257  17.183  0.00  0.00    +0.000 C 
ATOM     33  C   UNL     1       1.556   4.332  17.635  0.00  0.00    +0.000 C 
ATOM     34  C   UNL     1       1.425   4.064  19.122  0.00  0.00    +0.000 C 
ATOM     35  N   UNL     1       2.771   3.674  19.568  0.00  0.00    +0.000 NA
ENDBRANCH  29  35
ENDBRANCH   1  29
TORSDOF 5
ENDMDL
MODEL 7
REMARK VINA RESULT:      -9.0      1.399      1.890
REMARK  Name = 
REMARK  7 active torsions:
REMARK  status: ('A' for Active; 'I' for Inactive)
REMARK    1  A    between atoms: C_1  and  C_2
REMARK    2  A    between atoms: N_6  and  C_7
REMARK    3  A    between atoms: C_7  and  C_8
REMARK    4  A    between atoms: C_10  and  C_11
REMARK    5  A    between atoms: N_13  and  C_14
REMARK    6  A    between atoms: N_20  and  C_21
REMARK    7  A    between atoms: C_28  and  C_29
REMARK                            x       y       z     vdW  Elec       q    Type
REMARK                         _______ _______ _______ _____ _____    ______ ____
ROOT
ATOM      1  C   UNL     1       3.129   6.433  19.349  0.00  0.00    +0.000 A 
ATOM      2  C   UNL     1       2.165   7.395  19.776  0.00  0.00    +0.000 A 
ATOM      3  C   UNL     1       1.880   8.546  19.015  0.00  0.00    +0.000 A 
ATOM      4  C   UNL     1       2.526   8.723  17.806  0.00  0.00    +0.000 A 
ATOM      5  C   UNL     1       3.454   7.786  17.370  0.00  0.00    +0.000 A 
ATOM      6  C   UNL     1       3.810   6.628  18.112  0.00  0.00    +0.000 A 
ENDROOT
BRANCH   6   7
ATOM      7  C   UNL     1       4.874   5.756  17.521  0.00  0.00    +0.000 A 
ATOM      8  C   UNL     1       4.610   5.021  16.341  0.00  0.00    +0.000 A 
ATOM      9  C   UNL     1       5.576   4.209  15.733  0.00  0.00    +0.000 A 
ATOM     10  C   UNL     1       6.848   4.134  16.265  0.00  0.00    +0.000 A 
ATOM     11  C   UNL     1       7.134   4.822  17.446  0.00  0.00    +0.000 A 
ATOM     12  C   UNL     1       6.147   5.592  18.070  0.00  0.00    +0.000 A 
ENDBRANCH   6   7
BRANCH   3  13
ATOM     13  C   UNL     1       0.813   9.515  19.352  0.00  0.00    +0.000 C 
ATOM     14  O   UNL     1       0.112   9.249  20.321  0.00  0.00    +0.000 OA
ATOM     15  N   UNL     1       0.659  10.595  18.513  0.00  0.00    +0.000 N 
ATOM     16  H   UNL     1       1.219  10.628  17.668  0.00  0.00    +0.000 HD
BRANCH  15  17
ATOM     17  C   UNL     1      -0.172  11.720  18.759  0.00  0.00    +0.000 A 
ATOM     18  C   UNL     1      -1.488  11.601  19.228  0.00  0.00    +0.000 A 
ATOM     19  C   UNL     1      -2.125  12.681  19.836  0.00  0.00    +0.000 A 
ATOM     20  C   UNL     1      -1.445  13.886  19.933  0.00  0.00    +0.000 A 
ATOM     21  C   UNL     1      -0.312  14.097  19.146  0.00  0.00    +0.000 A 
ATOM     22  C   UNL     1       0.386  12.999  18.645  0.00  0.00    +0.000 A 
ATOM     23  N   UNL     1       0.298  15.383  19.183  0.00  0.00    +0.000 N 
ATOM     24  C   UNL     1      -0.548  16.457  18.627  0.00  0.00    +0.000 C 
ATOM     25  C   UNL     1       0.688  15.685  20.491  0.00  0.00    +0.000 C 
ATOM     26  O   UNL     1       1.826  16.045  20.776  0.00  0.00    +0.000 OA
ATOM     27  C   UNL     1      -0.411  15.489  21.541  0.00  0.00    +0.000 C 
ATOM     28  C   UNL     1      -1.735  14.901  21.002  0.00  0.00    +0.000 C 
ENDBRANCH  15  17
ENDBRANCH   3  13
BRANCH   1  29
ATOM     29  C   UNL     1       3.256   5.204  20.262  0.00  0.00    +0.000 C 
BRANCH  29  35
ATOM     30  C   UNL     1       1.661   3.364  17.600  0.00  0.00    +0.000 C 
ATOM     31  C   UNL     1       1.613   3.915  19.026  0.00  0.00    +0.000 C 
ATOM     32  C   UNL     1       0.672   3.084  19.906  0.00  0.00    +0.000 C 
ATOM     33  C   UNL     1       1.464   2.809  21.166  0.00  0.00    +0.000 C 
ATOM     34  C   UNL     1       2.897   2.817  20.673  0.00  0.00    +0.000 C 
ATOM     35  N   UNL     1       2.957   3.888  19.666  0.00  0.00    +0.000 NA
ENDBRANCH  29  35
ENDBRANCH   1  29
TORSDOF 5
ENDMDL
MODEL 8
REMARK VINA RESULT:      -9.0      1.255      1.723
REMARK  Name = 
REMARK  7 active torsions:
REMARK  status: ('A' for Active; 'I' for Inactive)
REMARK    1  A    between atoms: C_1  and  C_2
REMARK    2  A    between atoms: N_6  and  C_7
REMARK    3  A    between atoms: C_7  and  C_8
REMARK    4  A    between atoms: C_10  and  C_11
REMARK    5  A    between atoms: N_13  and  C_14
REMARK    6  A    between atoms: N_20  and  C_21
REMARK    7  A    between atoms: C_28  and  C_29
REMARK                            x       y       z     vdW  Elec       q    Type
REMARK                         _______ _______ _______ _____ _____    ______ ____
ROOT
ATOM      1  C   UNL     1       3.049   6.483  19.170  0.00  0.00    +0.000 A 
ATOM      2  C   UNL     1       2.153   7.446  19.724  0.00  0.00    +0.000 A 
ATOM      3  C   UNL     1       1.893   8.672  19.081  0.00  0.00    +0.000 A 
ATOM      4  C   UNL     1       2.495   8.927  17.864  0.00  0.00    +0.000 A 
ATOM      5  C   UNL     1       3.357   7.992  17.304  0.00  0.00    +0.000 A 
ATOM      6  C   UNL     1       3.686   6.757  17.924  0.00  0.00    +0.000 A 
ENDROOT
BRANCH   6   7
ATOM      7  C   UNL     1       4.679   5.895  17.209  0.00  0.00    +0.000 A 
ATOM      8  C   UNL     1       6.042   6.270  17.170  0.00  0.00    +0.000 A 
ATOM      9  C   UNL     1       7.017   5.489  16.535  0.00  0.00    +0.000 A 
ATOM     10  C   UNL     1       6.664   4.288  15.951  0.00  0.00    +0.000 A 
ATOM     11  C   UNL     1       5.323   3.901  15.945  0.00  0.00    +0.000 A 
ATOM     12  C   UNL     1       4.352   4.713  16.540  0.00  0.00    +0.000 A 
ENDBRANCH   6   7
BRANCH   3  13
ATOM     13  C   UNL     1       0.892   9.655  19.552  0.00  0.00    +0.000 C 
ATOM     14  O   UNL     1      -0.119   9.205  20.077  0.00  0.00    +0.000 OA
ATOM     15  N   UNL     1       1.150  10.983  19.300  0.00  0.00    +0.000 N 
ATOM     16  H   UNL     1       1.961  11.215  18.736  0.00  0.00    +0.000 HD
BRANCH  15  17
ATOM     17  C   UNL     1       0.417  12.080  19.824  0.00  0.00    +0.000 A 
ATOM     18  C   UNL     1      -0.088  13.109  19.016  0.00  0.00    +0.000 A 
ATOM     19  C   UNL     1      -1.119  13.928  19.472  0.00  0.00    +0.000 A 
ATOM     20  C   UNL     1      -1.608  13.731  20.756  0.00  0.00    +0.000 A 
ATOM     21  C   UNL     1      -0.862  12.978  21.663  0.00  0.00    +0.000 A 
ATOM     22  C   UNL     1       0.083  12.071  21.184  0.00  0.00    +0.000 A 
ATOM     23  N   UNL     1      -1.332  12.887  23.003  0.00  0.00    +0.000 N 
ATOM     24  C   UNL     1      -1.310  14.172  23.729  0.00  0.00    +0.000 C 
ATOM     25  C   UNL     1      -2.614  12.331  23.019  0.00  0.00    +0.000 C 
ATOM     26  O   UNL     1      -2.910  11.368  23.721  0.00  0.00    +0.000 OA
ATOM     27  C   UNL     1      -3.605  12.996  22.057  0.00  0.00    +0.000 C 
ATOM     28  C   UNL     1      -3.006  14.104  21.162  0.00  0.00    +0.000 C 
ENDBRANCH  15  17
ENDBRANCH   3  13
BRANCH   1  29
ATOM     29  C   UNL     1       3.154   5.173  19.965  0.00  0.00    +0.000 C 
BRANCH  29  35
ATOM     30  C   UNL     1       1.367   2.581  21.726  0.00  0.00    +0.000 C 
ATOM     31  C   UNL     1       2.291   2.990  20.579  0.00  0.00    +0.000 C 
ATOM     32  C   UNL     1       2.190   2.001  19.411  0.00  0.00    +0.000 C 
ATOM     33  C   UNL     1       2.021   2.869  18.183  0.00  0.00    +0.000 C 
ATOM     34  C   UNL     1       1.330   4.101  18.732  0.00  0.00    +0.000 C 
ATOM     35  N   UNL     1       1.941   4.337  20.050  0.00  0.00    +0.000 NA
ENDBRANCH  29  35
ENDBRANCH   1  29
TORSDOF 5
ENDMDL
MODEL 9
REMARK VINA RESULT:      -9.0      1.099      1.476
REMARK  Name = 
REMARK  7 active torsions:
REMARK  status: ('A' for Active; 'I' for Inactive)
REMARK    1  A    between atoms: C_1  and  C_2
REMARK    2  A    between atoms: N_6  and  C_7
REMARK    3  A    between atoms: C_7  and  C_8
REMARK    4  A    between atoms: C_10  and  C_11
REMARK    5  A    between atoms: N_13  and  C_14
REMARK    6  A    between atoms: N_20  and  C_21
REMARK    7  A    between atoms: C_28  and  C_29
REMARK                            x       y       z     vdW  Elec       q    Type
REMARK                         _______ _______ _______ _____ _____    ______ ____
ROOT
ATOM      1  C   UNL     1       2.746   6.768  19.506  0.00  0.00    +0.000 A 
ATOM      2  C   UNL     1       1.810   7.776  19.886  0.00  0.00    +0.000 A 
ATOM      3  C   UNL     1       1.591   8.920  19.094  0.00  0.00    +0.000 A 
ATOM      4  C   UNL     1       2.275   9.045  17.900  0.00  0.00    +0.000 A 
ATOM      5  C   UNL     1       3.177   8.064  17.508  0.00  0.00    +0.000 A 
ATOM      6  C   UNL     1       3.466   6.908  18.284  0.00  0.00    +0.000 A 
ENDROOT
BRANCH   6   7
ATOM      7  C   UNL     1       4.510   5.983  17.740  0.00  0.00    +0.000 A 
ATOM      8  C   UNL     1       4.201   5.131  16.654  0.00  0.00    +0.000 A 
ATOM      9  C   UNL     1       5.145   4.262  16.091  0.00  0.00    +0.000 A 
ATOM     10  C   UNL     1       6.440   4.245  16.573  0.00  0.00    +0.000 A 
ATOM     11  C   UNL     1       6.770   5.051  17.663  0.00  0.00    +0.000 A 
ATOM     12  C   UNL     1       5.806   5.878  18.247  0.00  0.00    +0.000 A 
ENDBRANCH   6   7
BRANCH   3  13
ATOM     13  C   UNL     1       0.556   9.938  19.382  0.00  0.00    +0.000 C 
ATOM     14  O   UNL     1       0.791  10.721  20.294  0.00  0.00    +0.000 OA
ATOM     15  N   UNL     1      -0.607   9.874  18.649  0.00  0.00    +0.000 N 
ATOM     16  H   UNL     1      -0.732   9.092  18.015  0.00  0.00    +0.000 HD
BRANCH  15  17
ATOM     17  C   UNL     1      -1.634  10.856  18.644  0.00  0.00    +0.000 A 
ATOM     18  C   UNL     1      -2.603  10.932  17.633  0.00  0.00    +0.000 A 
ATOM     19  C   UNL     1      -3.801  11.610  17.849  0.00  0.00    +0.000 A 
ATOM     20  C   UNL     1      -3.998  12.242  19.069  0.00  0.00    +0.000 A 
ATOM     21  C   UNL     1      -2.903  12.476  19.902  0.00  0.00    +0.000 A 
ATOM     22  C   UNL     1      -1.753  11.703  19.752  0.00  0.00    +0.000 A 
ATOM     23  N   UNL     1      -3.118  13.225  21.094  0.00  0.00    +0.000 N 
ATOM     24  C   UNL     1      -3.502  14.629  20.852  0.00  0.00    +0.000 C 
ATOM     25  C   UNL     1      -4.066  12.581  21.893  0.00  0.00    +0.000 C 
ATOM     26  O   UNL     1      -3.866  12.317  23.075  0.00  0.00    +0.000 OA
ATOM     27  C   UNL     1      -5.357  12.198  21.161  0.00  0.00    +0.000 C 
ATOM     28  C   UNL     1      -5.363  12.496  19.644  0.00  0.00    +0.000 C 
ENDBRANCH  15  17
ENDBRANCH   3  13
BRANCH   1  29
ATOM     29  C   UNL     1       2.799   5.554  20.447  0.00  0.00    +0.000 C 
BRANCH  29  35
ATOM     30  C   UNL     1       1.352   3.501  17.857  0.00  0.00    +0.000 C 
ATOM     31  C   UNL     1       1.325   4.005  19.301  0.00  0.00    +0.000 C 
ATOM     32  C   UNL     1       0.633   2.993  20.224  0.00  0.00    +0.000 C 
ATOM     33  C   UNL     1       1.568   2.847  21.406  0.00  0.00    +0.000 C 
ATOM     34  C   UNL     1       2.927   3.135  20.800  0.00  0.00    +0.000 C 
ATOM     35  N   UNL     1       2.701   4.218  19.830  0.00  0.00    +0.000 NA
ENDBRANCH  29  35
ENDBRANCH   1  29
TORSDOF 5
ENDMDL
