MODEL 1
REMARK VINA RESULT:      -8.3      0.000      0.000
REMARK  Name = 
REMARK  8 active torsions:
REMARK  status: ('A' for Active; 'I' for Inactive)
REMARK    1  A    between atoms: C_1  and  C_2
REMARK    2  A    between atoms: C_2  and  C_3
REMARK    3  A    between atoms: N_5  and  C_6
REMARK    4  A    between atoms: N_5  and  C_22
REMARK    5  A    between atoms: C_6  and  C_7
REMARK    6  A    between atoms: C_10  and  C_11
REMARK    7  A    between atoms: C_16  and  C_17
REMARK    8  A    between atoms: C_17  and  O_19
REMARK                            x       y       z     vdW  Elec       q    Type
REMARK                         _______ _______ _______ _____ _____    ______ ____
ROOT
ATOM      1  C   UNL     1       2.311   7.187  19.385  0.00  0.00    +0.000 A 
ATOM      2  C   UNL     1       1.695   7.883  20.430  0.00  0.00    +0.000 A 
ATOM      3  C   UNL     1       1.190   9.176  20.239  0.00  0.00    +0.000 A 
ATOM      4  C   UNL     1       1.232   9.815  18.989  0.00  0.00    +0.000 A 
ATOM      5  C   UNL     1       1.838   9.097  17.940  0.00  0.00    +0.000 A 
ATOM      6  C   UNL     1       2.373   7.809  18.133  0.00  0.00    +0.000 A 
ENDROOT
BRANCH   4   7
ATOM      7  C   UNL     1       0.678  11.182  18.790  0.00  0.00    +0.000 A 
ATOM      8  C   UNL     1       1.459  12.294  19.191  0.00  0.00    +0.000 A 
ATOM      9  C   UNL     1       1.000  13.615  19.105  0.00  0.00    +0.000 A 
ATOM     10  C   UNL     1      -0.276  13.868  18.620  0.00  0.00    +0.000 A 
ATOM     11  C   UNL     1      -1.074  12.806  18.207  0.00  0.00    +0.000 A 
ATOM     12  C   UNL     1      -0.607  11.474  18.269  0.00  0.00    +0.000 A 
BRANCH  12  13
ATOM     13  C   UNL     1      -1.592  10.464  17.773  0.00  0.00    +0.000 C 
ATOM     14  O   UNL     1      -2.198   9.729  18.541  0.00  0.00    +0.000 OA
BRANCH  13  15
ATOM     15  O   UNL     1      -1.830  10.494  16.454  0.00  0.00    +0.000 OA
ATOM     16  H   UNL     1      -1.176  10.031  15.897  0.00  0.00    +0.000 HD
ENDBRANCH  13  15
ENDBRANCH  12  13
ENDBRANCH   4   7
BRANCH   1  17
ATOM     17  C   UNL     1       2.948   5.831  19.623  0.00  0.00    +0.000 C 
BRANCH  17  20
ATOM     18  C   UNL     1       3.255   4.404  17.528  0.00  0.00    +0.000 C 
ATOM     19  O   UNL     1       3.954   3.958  16.615  0.00  0.00    +0.000 OA
ATOM     20  N   UNL     1       3.727   5.320  18.479  0.00  0.00    +0.000 N 
BRANCH  20  21
ATOM     21  C   UNL     1       5.084   5.750  18.390  0.00  0.00    +0.000 A 
ATOM     22  C   UNL     1       5.471   6.666  17.403  0.00  0.00    +0.000 A 
ATOM     23  C   UNL     1       6.791   7.109  17.331  0.00  0.00    +0.000 A 
ATOM     24  C   UNL     1       7.746   6.615  18.221  0.00  0.00    +0.000 A 
ATOM     25  C   UNL     1       7.375   5.683  19.186  0.00  0.00    +0.000 A 
ATOM     26  C   UNL     1       6.048   5.259  19.278  0.00  0.00    +0.000 A 
ENDBRANCH  20  21
BRANCH  18  28
ATOM     27  C   UNL     1       1.713   2.541  18.307  0.00  0.00    +0.000 C 
ATOM     28  C   UNL     1       1.815   3.924  17.679  0.00  0.00    +0.000 C 
ENDBRANCH  18  28
ENDBRANCH  17  20
ENDBRANCH   1  17
TORSDOF 7
ENDMDL
MODEL 2
REMARK VINA RESULT:      -8.3      2.276      8.217
REMARK  Name = 
REMARK  8 active torsions:
REMARK  status: ('A' for Active; 'I' for Inactive)
REMARK    1  A    between atoms: C_1  and  C_2
REMARK    2  A    between atoms: C_2  and  C_3
REMARK    3  A    between atoms: N_5  and  C_6
REMARK    4  A    between atoms: N_5  and  C_22
REMARK    5  A    between atoms: C_6  and  C_7
REMARK    6  A    between atoms: C_10  and  C_11
REMARK    7  A    between atoms: C_16  and  C_17
REMARK    8  A    between atoms: C_17  and  O_19
REMARK                            x       y       z     vdW  Elec       q    Type
REMARK                         _______ _______ _______ _____ _____    ______ ____
ROOT
ATOM      1  C   UNL     1       1.034   9.342  19.536  0.00  0.00    +0.000 A 
ATOM      2  C   UNL     1       1.446   9.405  18.201  0.00  0.00    +0.000 A 
ATOM      3  C   UNL     1       2.297   8.433  17.660  0.00  0.00    +0.000 A 
ATOM      4  C   UNL     1       2.737   7.328  18.409  0.00  0.00    +0.000 A 
ATOM      5  C   UNL     1       2.301   7.266  19.745  0.00  0.00    +0.000 A 
ATOM      6  C   UNL     1       1.469   8.255  20.303  0.00  0.00    +0.000 A 
ENDROOT
BRANCH   4   7
ATOM      7  C   UNL     1       3.627   6.290  17.821  0.00  0.00    +0.000 A 
ATOM      8  C   UNL     1       4.911   6.679  17.365  0.00  0.00    +0.000 A 
ATOM      9  C   UNL     1       5.795   5.790  16.740  0.00  0.00    +0.000 A 
ATOM     10  C   UNL     1       5.415   4.470  16.537  0.00  0.00    +0.000 A 
ATOM     11  C   UNL     1       4.165   4.044  16.977  0.00  0.00    +0.000 A 
ATOM     12  C   UNL     1       3.279   4.930  17.630  0.00  0.00    +0.000 A 
BRANCH  12  13
ATOM     13  C   UNL     1       1.988   4.298  18.043  0.00  0.00    +0.000 C 
ATOM     14  O   UNL     1       1.036   4.224  17.277  0.00  0.00    +0.000 OA
BRANCH  13  15
ATOM     15  O   UNL     1       1.987   3.740  19.262  0.00  0.00    +0.000 OA
ATOM     16  H   UNL     1       2.174   4.346  20.003  0.00  0.00    +0.000 HD
ENDBRANCH  13  15
ENDBRANCH  12  13
ENDBRANCH   4   7
BRANCH   1  17
ATOM     17  C   UNL     1       0.198  10.452  20.146  0.00  0.00    +0.000 C 
BRANCH  17  20
ATOM     18  C   UNL     1       0.330  12.588  18.755  0.00  0.00    +0.000 C 
ATOM     19  O   UNL     1      -0.166  13.403  17.973  0.00  0.00    +0.000 OA
ATOM     20  N   UNL     1      -0.327  11.421  19.166  0.00  0.00    +0.000 N 
BRANCH  20  21
ATOM     21  C   UNL     1      -1.637  11.167  18.661  0.00  0.00    +0.000 A 
ATOM     22  C   UNL     1      -2.731  11.901  19.138  0.00  0.00    +0.000 A 
ATOM     23  C   UNL     1      -4.009  11.674  18.627  0.00  0.00    +0.000 A 
ATOM     24  C   UNL     1      -4.213  10.688  17.661  0.00  0.00    +0.000 A 
ATOM     25  C   UNL     1      -3.135   9.935  17.203  0.00  0.00    +0.000 A 
ATOM     26  C   UNL     1      -1.851  10.180  17.693  0.00  0.00    +0.000 A 
ENDBRANCH  20  21
BRANCH  18  28
ATOM     27  C   UNL     1       2.749  13.217  18.300  0.00  0.00    +0.000 C 
ATOM     28  C   UNL     1       1.708  12.857  19.351  0.00  0.00    +0.000 C 
ENDBRANCH  18  28
ENDBRANCH  17  20
ENDBRANCH   1  17
TORSDOF 7
ENDMDL
MODEL 3
REMARK VINA RESULT:      -8.3      1.564      2.221
REMARK  Name = 
REMARK  8 active torsions:
REMARK  status: ('A' for Active; 'I' for Inactive)
REMARK    1  A    between atoms: C_1  and  C_2
REMARK    2  A    between atoms: C_2  and  C_3
REMARK    3  A    between atoms: N_5  and  C_6
REMARK    4  A    between atoms: N_5  and  C_22
REMARK    5  A    between atoms: C_6  and  C_7
REMARK    6  A    between atoms: C_10  and  C_11
REMARK    7  A    between atoms: C_16  and  C_17
REMARK    8  A    between atoms: C_17  and  O_19
REMARK                            x       y       z     vdW  Elec       q    Type
REMARK                         _______ _______ _______ _____ _____    ______ ____
ROOT
ATOM      1  C   UNL     1       2.513   6.969  19.388  0.00  0.00    +0.000 A 
ATOM      2  C   UNL     1       2.335   7.551  18.129  0.00  0.00    +0.000 A 
ATOM      3  C   UNL     1       1.525   8.682  17.963  0.00  0.00    +0.000 A 
ATOM      4  C   UNL     1       0.897   9.313  19.049  0.00  0.00    +0.000 A 
ATOM      5  C   UNL     1       1.098   8.729  20.313  0.00  0.00    +0.000 A 
ATOM      6  C   UNL     1       1.887   7.576  20.482  0.00  0.00    +0.000 A 
ENDROOT
BRANCH   4   7
ATOM      7  C   UNL     1       0.052  10.526  18.867  0.00  0.00    +0.000 A 
ATOM      8  C   UNL     1      -1.356  10.371  18.828  0.00  0.00    +0.000 A 
ATOM      9  C   UNL     1      -2.231  11.440  18.597  0.00  0.00    +0.000 A 
ATOM     10  C   UNL     1      -1.719  12.713  18.383  0.00  0.00    +0.000 A 
ATOM     11  C   UNL     1      -0.342  12.911  18.420  0.00  0.00    +0.000 A 
ATOM     12  C   UNL     1       0.543  11.841  18.677  0.00  0.00    +0.000 A 
BRANCH  12  13
ATOM     13  C   UNL     1       1.985  12.240  18.692  0.00  0.00    +0.000 C 
ATOM     14  O   UNL     1       2.510  12.709  19.694  0.00  0.00    +0.000 OA
BRANCH  13  15
ATOM     15  O   UNL     1       2.670  11.958  17.575  0.00  0.00    +0.000 OA
ATOM     16  H   UNL     1       2.313  11.228  17.035  0.00  0.00    +0.000 HD
ENDBRANCH  13  15
ENDBRANCH  12  13
ENDBRANCH   4   7
BRANCH   1  17
ATOM     17  C   UNL     1       3.305   5.684  19.546  0.00  0.00    +0.000 C 
BRANCH  17  20
ATOM     18  C   UNL     1       3.712   4.439  17.354  0.00  0.00    +0.000 C 
ATOM     19  O   UNL     1       4.438   4.120  16.410  0.00  0.00    +0.000 OA
ATOM     20  N   UNL     1       4.113   5.322  18.366  0.00  0.00    +0.000 N 
BRANCH  20  21
ATOM     21  C   UNL     1       5.428   5.871  18.304  0.00  0.00    +0.000 A 
ATOM     22  C   UNL     1       5.727   6.885  17.385  0.00  0.00    +0.000 A 
ATOM     23  C   UNL     1       7.005   7.443  17.341  0.00  0.00    +0.000 A 
ATOM     24  C   UNL     1       8.006   6.969  18.190  0.00  0.00    +0.000 A 
ATOM     25  C   UNL     1       7.724   5.941  19.085  0.00  0.00    +0.000 A 
ATOM     26  C   UNL     1       6.439   5.401  19.151  0.00  0.00    +0.000 A 
ENDBRANCH  20  21
BRANCH  18  28
ATOM     27  C   UNL     1       2.346   2.361  17.875  0.00  0.00    +0.000 C 
ATOM     28  C   UNL     1       2.318   3.830  17.474  0.00  0.00    +0.000 C 
ENDBRANCH  18  28
ENDBRANCH  17  20
ENDBRANCH   1  17
TORSDOF 7
ENDMDL
MODEL 4
REMARK VINA RESULT:      -8.3      2.277      8.170
REMARK  Name = 
REMARK  8 active torsions:
REMARK  status: ('A' for Active; 'I' for Inactive)
REMARK    1  A    between atoms: C_1  and  C_2
REMARK    2  A    between atoms: C_2  and  C_3
REMARK    3  A    between atoms: N_5  and  C_6
REMARK    4  A    between atoms: N_5  and  C_22
REMARK    5  A    between atoms: C_6  and  C_7
REMARK    6  A    between atoms: C_10  and  C_11
REMARK    7  A    between atoms: C_16  and  C_17
REMARK    8  A    between atoms: C_17  and  O_19
REMARK                            x       y       z     vdW  Elec       q    Type
REMARK                         _______ _______ _______ _____ _____    ______ ____
ROOT
ATOM      1  C   UNL     1       1.086   9.306  19.528  0.00  0.00    +0.000 A 
ATOM      2  C   UNL     1       1.529   8.221  20.291  0.00  0.00    +0.000 A 
ATOM      3  C   UNL     1       2.318   7.212  19.724  0.00  0.00    +0.000 A 
ATOM      4  C   UNL     1       2.743   7.262  18.386  0.00  0.00    +0.000 A 
ATOM      5  C   UNL     1       2.306   8.367  17.633  0.00  0.00    +0.000 A 
ATOM      6  C   UNL     1       1.489   9.369  18.189  0.00  0.00    +0.000 A 
ENDROOT
BRANCH   4   7
ATOM      7  C   UNL     1       3.597   6.194  17.796  0.00  0.00    +0.000 A 
ATOM      8  C   UNL     1       4.891   6.540  17.336  0.00  0.00    +0.000 A 
ATOM      9  C   UNL     1       5.743   5.622  16.708  0.00  0.00    +0.000 A 
ATOM     10  C   UNL     1       5.318   4.315  16.507  0.00  0.00    +0.000 A 
ATOM     11  C   UNL     1       4.056   3.931  16.951  0.00  0.00    +0.000 A 
ATOM     12  C   UNL     1       3.203   4.846  17.607  0.00  0.00    +0.000 A 
BRANCH  12  13
ATOM     13  C   UNL     1       1.893   4.257  18.025  0.00  0.00    +0.000 C 
ATOM     14  O   UNL     1       0.953   4.168  17.247  0.00  0.00    +0.000 OA
BRANCH  13  15
ATOM     15  O   UNL     1       1.861   3.753  19.267  0.00  0.00    +0.000 OA
ATOM     16  H   UNL     1       1.451   2.872  19.353  0.00  0.00    +0.000 HD
ENDBRANCH  13  15
ENDBRANCH  12  13
ENDBRANCH   4   7
BRANCH   1  17
ATOM     17  C   UNL     1       0.145  10.340  20.117  0.00  0.00    +0.000 C 
BRANCH  17  20
ATOM     18  C   UNL     1       0.335  12.507  18.783  0.00  0.00    +0.000 C 
ATOM     19  O   UNL     1      -0.131  13.344  18.006  0.00  0.00    +0.000 OA
ATOM     20  N   UNL     1      -0.344  11.336  19.146  0.00  0.00    +0.000 N 
BRANCH  20  21
ATOM     21  C   UNL     1      -1.640  11.106  18.597  0.00  0.00    +0.000 A 
ATOM     22  C   UNL     1      -1.813  10.179  17.561  0.00  0.00    +0.000 A 
ATOM     23  C   UNL     1      -3.083   9.932  17.041  0.00  0.00    +0.000 A 
ATOM     24  C   UNL     1      -4.188  10.633  17.525  0.00  0.00    +0.000 A 
ATOM     25  C   UNL     1      -4.020  11.577  18.534  0.00  0.00    +0.000 A 
ATOM     26  C   UNL     1      -2.754  11.806  19.076  0.00  0.00    +0.000 A 
ENDBRANCH  20  21
BRANCH  18  28
ATOM     27  C   UNL     1       2.747  13.223  18.428  0.00  0.00    +0.000 C 
ATOM     28  C   UNL     1       1.697  12.750  19.424  0.00  0.00    +0.000 C 
ENDBRANCH  18  28
ENDBRANCH  17  20
ENDBRANCH   1  17
TORSDOF 7
ENDMDL
MODEL 5
REMARK VINA RESULT:      -8.2      0.229      1.327
REMARK  Name = 
REMARK  8 active torsions:
REMARK  status: ('A' for Active; 'I' for Inactive)
REMARK    1  A    between atoms: C_1  and  C_2
REMARK    2  A    between atoms: C_2  and  C_3
REMARK    3  A    between atoms: N_5  and  C_6
REMARK    4  A    between atoms: N_5  and  C_22
REMARK    5  A    between atoms: C_6  and  C_7
REMARK    6  A    between atoms: C_10  and  C_11
REMARK    7  A    between atoms: C_16  and  C_17
REMARK    8  A    between atoms: C_17  and  O_19
REMARK                            x       y       z     vdW  Elec       q    Type
REMARK                         _______ _______ _______ _____ _____    ______ ____
ROOT
ATOM      1  C   UNL     1       2.346   7.143  19.455  0.00  0.00    +0.000 A 
ATOM      2  C   UNL     1       2.397   7.766  18.204  0.00  0.00    +0.000 A 
ATOM      3  C   UNL     1       1.807   9.020  17.996  0.00  0.00    +0.000 A 
ATOM      4  C   UNL     1       1.185   9.731  19.035  0.00  0.00    +0.000 A 
ATOM      5  C   UNL     1       1.156   9.103  20.293  0.00  0.00    +0.000 A 
ATOM      6  C   UNL     1       1.721   7.830  20.501  0.00  0.00    +0.000 A 
ENDROOT
BRANCH   4   7
ATOM      7  C   UNL     1       0.576  11.071  18.810  0.00  0.00    +0.000 A 
ATOM      8  C   UNL     1       1.317  12.222  19.177  0.00  0.00    +0.000 A 
ATOM      9  C   UNL     1       0.806  13.521  19.065  0.00  0.00    +0.000 A 
ATOM     10  C   UNL     1      -0.483  13.714  18.587  0.00  0.00    +0.000 A 
ATOM     11  C   UNL     1      -1.243  12.612  18.206  0.00  0.00    +0.000 A 
ATOM     12  C   UNL     1      -0.724  11.301  18.295  0.00  0.00    +0.000 A 
BRANCH  12  13
ATOM     13  C   UNL     1      -1.674  10.242  17.832  0.00  0.00    +0.000 C 
ATOM     14  O   UNL     1      -2.620   9.885  18.521  0.00  0.00    +0.000 OA
BRANCH  13  15
ATOM     15  O   UNL     1      -1.471   9.794  16.585  0.00  0.00    +0.000 OA
ATOM     16  H   UNL     1      -1.843  10.347  15.873  0.00  0.00    +0.000 HD
ENDBRANCH  13  15
ENDBRANCH  12  13
ENDBRANCH   4   7
BRANCH   1  17
ATOM     17  C   UNL     1       2.893   5.741  19.649  0.00  0.00    +0.000 C 
BRANCH  17  20
ATOM     18  C   UNL     1       3.197   4.312  17.555  0.00  0.00    +0.000 C 
ATOM     19  O   UNL     1       3.894   3.867  16.640  0.00  0.00    +0.000 OA
ATOM     20  N   UNL     1       3.668   5.231  18.502  0.00  0.00    +0.000 N 
BRANCH  20  21
ATOM     21  C   UNL     1       5.024   5.666  18.408  0.00  0.00    +0.000 A 
ATOM     22  C   UNL     1       5.973   5.224  19.337  0.00  0.00    +0.000 A 
ATOM     23  C   UNL     1       7.304   5.626  19.232  0.00  0.00    +0.000 A 
ATOM     24  C   UNL     1       7.694   6.502  18.218  0.00  0.00    +0.000 A 
ATOM     25  C   UNL     1       6.750   6.969  17.308  0.00  0.00    +0.000 A 
ATOM     26  C   UNL     1       5.423   6.546  17.395  0.00  0.00    +0.000 A 
ENDBRANCH  20  21
BRANCH  18  28
ATOM     27  C   UNL     1       1.655   2.516  18.480  0.00  0.00    +0.000 C 
ATOM     28  C   UNL     1       1.759   3.827  17.712  0.00  0.00    +0.000 C 
ENDBRANCH  18  28
ENDBRANCH  17  20
ENDBRANCH   1  17
TORSDOF 7
ENDMDL
MODEL 6
REMARK VINA RESULT:      -8.1      2.283      8.201
REMARK  Name = 
REMARK  8 active torsions:
REMARK  status: ('A' for Active; 'I' for Inactive)
REMARK    1  A    between atoms: C_1  and  C_2
REMARK    2  A    between atoms: C_2  and  C_3
REMARK    3  A    between atoms: N_5  and  C_6
REMARK    4  A    between atoms: N_5  and  C_22
REMARK    5  A    between atoms: C_6  and  C_7
REMARK    6  A    between atoms: C_10  and  C_11
REMARK    7  A    between atoms: C_16  and  C_17
REMARK    8  A    between atoms: C_17  and  O_19
REMARK                            x       y       z     vdW  Elec       q    Type
REMARK                         _______ _______ _______ _____ _____    ______ ____
ROOT
ATOM      1  C   UNL     1       1.073   9.274  19.529  0.00  0.00    +0.000 A 
ATOM      2  C   UNL     1       1.524   8.186  20.282  0.00  0.00    +0.000 A 
ATOM      3  C   UNL     1       2.331   7.194  19.710  0.00  0.00    +0.000 A 
ATOM      4  C   UNL     1       2.766   7.266  18.376  0.00  0.00    +0.000 A 
ATOM      5  C   UNL     1       2.321   8.375  17.633  0.00  0.00    +0.000 A 
ATOM      6  C   UNL     1       1.486   9.360  18.195  0.00  0.00    +0.000 A 
ENDROOT
BRANCH   4   7
ATOM      7  C   UNL     1       3.638   6.218  17.780  0.00  0.00    +0.000 A 
ATOM      8  C   UNL     1       4.920   6.592  17.306  0.00  0.00    +0.000 A 
ATOM      9  C   UNL     1       5.787   5.692  16.672  0.00  0.00    +0.000 A 
ATOM     10  C   UNL     1       5.390   4.376  16.478  0.00  0.00    +0.000 A 
ATOM     11  C   UNL     1       4.142   3.964  16.935  0.00  0.00    +0.000 A 
ATOM     12  C   UNL     1       3.274   4.860  17.597  0.00  0.00    +0.000 A 
BRANCH  12  13
ATOM     13  C   UNL     1       1.982   4.243  18.029  0.00  0.00    +0.000 C 
ATOM     14  O   UNL     1       1.016   4.187  17.279  0.00  0.00    +0.000 OA
BRANCH  13  15
ATOM     15  O   UNL     1       1.995   3.676  19.243  0.00  0.00    +0.000 OA
ATOM     16  H   UNL     1       2.878   3.485  19.610  0.00  0.00    +0.000 HD
ENDBRANCH  13  15
ENDBRANCH  12  13
ENDBRANCH   4   7
BRANCH   1  17
ATOM     17  C   UNL     1       0.114  10.289  20.124  0.00  0.00    +0.000 C 
BRANCH  17  20
ATOM     18  C   UNL     1       0.342  12.514  18.894  0.00  0.00    +0.000 C 
ATOM     19  O   UNL     1      -0.097  13.379  18.132  0.00  0.00    +0.000 OA
ATOM     20  N   UNL     1      -0.339  11.321  19.173  0.00  0.00    +0.000 N 
BRANCH  20  21
ATOM     21  C   UNL     1      -1.605  11.102  18.553  0.00  0.00    +0.000 A 
ATOM     22  C   UNL     1      -2.742  11.780  19.011  0.00  0.00    +0.000 A 
ATOM     23  C   UNL     1      -3.976  11.589  18.389  0.00  0.00    +0.000 A 
ATOM     24  C   UNL     1      -4.093  10.692  17.326  0.00  0.00    +0.000 A 
ATOM     25  C   UNL     1      -2.974   9.993  16.884  0.00  0.00    +0.000 A 
ATOM     26  C   UNL     1      -1.733  10.204  17.487  0.00  0.00    +0.000 A 
ENDBRANCH  20  21
BRANCH  18  28
ATOM     27  C   UNL     1       1.555  13.719  20.773  0.00  0.00    +0.000 C 
ATOM     28  C   UNL     1       1.669  12.742  19.611  0.00  0.00    +0.000 C 
ENDBRANCH  18  28
ENDBRANCH  17  20
ENDBRANCH   1  17
TORSDOF 7
ENDMDL
MODEL 7
REMARK VINA RESULT:      -8.1      2.248      3.671
REMARK  Name = 
REMARK  8 active torsions:
REMARK  status: ('A' for Active; 'I' for Inactive)
REMARK    1  A    between atoms: C_1  and  C_2
REMARK    2  A    between atoms: C_2  and  C_3
REMARK    3  A    between atoms: N_5  and  C_6
REMARK    4  A    between atoms: N_5  and  C_22
REMARK    5  A    between atoms: C_6  and  C_7
REMARK    6  A    between atoms: C_10  and  C_11
REMARK    7  A    between atoms: C_16  and  C_17
REMARK    8  A    between atoms: C_17  and  O_19
REMARK                            x       y       z     vdW  Elec       q    Type
REMARK                         _______ _______ _______ _____ _____    ______ ____
ROOT
ATOM      1  C   UNL     1       3.857   5.658  17.623  0.00  0.00    +0.000 A 
ATOM      2  C   UNL     1       3.544   6.942  17.166  0.00  0.00    +0.000 A 
ATOM      3  C   UNL     1       2.798   7.828  17.953  0.00  0.00    +0.000 A 
ATOM      4  C   UNL     1       2.373   7.495  19.250  0.00  0.00    +0.000 A 
ATOM      5  C   UNL     1       2.709   6.207  19.706  0.00  0.00    +0.000 A 
ATOM      6  C   UNL     1       3.433   5.302  18.908  0.00  0.00    +0.000 A 
ENDROOT
BRANCH   4   7
ATOM      7  C   UNL     1       1.596   8.450  20.087  0.00  0.00    +0.000 A 
ATOM      8  C   UNL     1       1.573   8.256  21.491  0.00  0.00    +0.000 A 
ATOM      9  C   UNL     1       0.820   9.060  22.356  0.00  0.00    +0.000 A 
ATOM     10  C   UNL     1       0.046  10.090  21.838  0.00  0.00    +0.000 A 
ATOM     11  C   UNL     1       0.045  10.321  20.465  0.00  0.00    +0.000 A 
ATOM     12  C   UNL     1       0.822   9.528  19.591  0.00  0.00    +0.000 A 
BRANCH  12  13
ATOM     13  C   UNL     1       0.709   9.926  18.154  0.00  0.00    +0.000 C 
ATOM     14  O   UNL     1      -0.229   9.558  17.459  0.00  0.00    +0.000 OA
BRANCH  13  15
ATOM     15  O   UNL     1       1.644  10.782  17.720  0.00  0.00    +0.000 OA
ATOM     16  H   UNL     1       1.971  10.625  16.814  0.00  0.00    +0.000 HD
ENDBRANCH  13  15
ENDBRANCH  12  13
ENDBRANCH   4   7
BRANCH   1  17
ATOM     17  C   UNL     1       4.574   4.666  16.726  0.00  0.00    +0.000 C 
BRANCH  17  20
ATOM     18  C   UNL     1       6.385   4.886  14.941  0.00  0.00    +0.000 C 
ATOM     19  O   UNL     1       7.504   5.252  14.574  0.00  0.00    +0.000 OA
ATOM     20  N   UNL     1       5.877   5.137  16.223  0.00  0.00    +0.000 N 
BRANCH  20  21
ATOM     21  C   UNL     1       6.699   5.843  17.151  0.00  0.00    +0.000 A 
ATOM     22  C   UNL     1       7.221   5.187  18.273  0.00  0.00    +0.000 A 
ATOM     23  C   UNL     1       8.046   5.867  19.168  0.00  0.00    +0.000 A 
ATOM     24  C   UNL     1       8.331   7.219  18.970  0.00  0.00    +0.000 A 
ATOM     25  C   UNL     1       7.793   7.886  17.873  0.00  0.00    +0.000 A 
ATOM     26  C   UNL     1       6.989   7.199  16.961  0.00  0.00    +0.000 A 
ENDBRANCH  20  21
BRANCH  18  28
ATOM     27  C   UNL     1       6.230   3.664  12.719  0.00  0.00    +0.000 C 
ATOM     28  C   UNL     1       5.503   4.086  13.988  0.00  0.00    +0.000 C 
ENDBRANCH  18  28
ENDBRANCH  17  20
ENDBRANCH   1  17
TORSDOF 7
ENDMDL
MODEL 8
REMARK VINA RESULT:      -8.1      1.901      2.494
REMARK  Name = 
REMARK  8 active torsions:
REMARK  status: ('A' for Active; 'I' for Inactive)
REMARK    1  A    between atoms: C_1  and  C_2
REMARK    2  A    between atoms: C_2  and  C_3
REMARK    3  A    between atoms: N_5  and  C_6
REMARK    4  A    between atoms: N_5  and  C_22
REMARK    5  A    between atoms: C_6  and  C_7
REMARK    6  A    between atoms: C_10  and  C_11
REMARK    7  A    between atoms: C_16  and  C_17
REMARK    8  A    between atoms: C_17  and  O_19
REMARK                            x       y       z     vdW  Elec       q    Type
REMARK                         _______ _______ _______ _____ _____    ______ ____
ROOT
ATOM      1  C   UNL     1       2.728   7.082  19.217  0.00  0.00    +0.000 A 
ATOM      2  C   UNL     1       1.966   7.540  20.297  0.00  0.00    +0.000 A 
ATOM      3  C   UNL     1       1.131   8.657  20.170  0.00  0.00    +0.000 A 
ATOM      4  C   UNL     1       0.979   9.340  18.952  0.00  0.00    +0.000 A 
ATOM      5  C   UNL     1       1.737   8.859  17.868  0.00  0.00    +0.000 A 
ATOM      6  C   UNL     1       2.600   7.755  17.997  0.00  0.00    +0.000 A 
ENDROOT
BRANCH   4   7
ATOM      7  C   UNL     1       0.076  10.516  18.821  0.00  0.00    +0.000 A 
ATOM      8  C   UNL     1      -1.323  10.295  18.787  0.00  0.00    +0.000 A 
ATOM      9  C   UNL     1      -2.251  11.328  18.603  0.00  0.00    +0.000 A 
ATOM     10  C   UNL     1      -1.803  12.631  18.432  0.00  0.00    +0.000 A 
ATOM     11  C   UNL     1      -0.437  12.895  18.466  0.00  0.00    +0.000 A 
ATOM     12  C   UNL     1       0.501  11.860  18.677  0.00  0.00    +0.000 A 
BRANCH  12  13
ATOM     13  C   UNL     1       1.922  12.327  18.696  0.00  0.00    +0.000 C 
ATOM     14  O   UNL     1       2.450  12.732  19.723  0.00  0.00    +0.000 OA
BRANCH  13  15
ATOM     15  O   UNL     1       2.591  12.177  17.543  0.00  0.00    +0.000 OA
ATOM     16  H   UNL     1       2.481  11.315  17.102  0.00  0.00    +0.000 HD
ENDBRANCH  13  15
ENDBRANCH  12  13
ENDBRANCH   4   7
BRANCH   1  17
ATOM     17  C   UNL     1       3.710   5.938  19.387  0.00  0.00    +0.000 C 
BRANCH  17  20
ATOM     18  C   UNL     1       2.697   4.046  18.006  0.00  0.00    +0.000 C 
ATOM     19  O   UNL     1       2.760   3.218  17.094  0.00  0.00    +0.000 OA
ATOM     20  N   UNL     1       3.713   4.973  18.271  0.00  0.00    +0.000 N 
BRANCH  20  21
ATOM     21  C   UNL     1       4.881   4.952  17.453  0.00  0.00    +0.000 A 
ATOM     22  C   UNL     1       6.107   4.531  17.983  0.00  0.00    +0.000 A 
ATOM     23  C   UNL     1       7.245   4.484  17.178  0.00  0.00    +0.000 A 
ATOM     24  C   UNL     1       7.178   4.890  15.844  0.00  0.00    +0.000 A 
ATOM     25  C   UNL     1       5.969   5.338  15.318  0.00  0.00    +0.000 A 
ATOM     26  C   UNL     1       4.823   5.359  16.114  0.00  0.00    +0.000 A 
ENDBRANCH  20  21
BRANCH  18  28
ATOM     27  C   UNL     1       1.510   2.940  19.961  0.00  0.00    +0.000 C 
ATOM     28  C   UNL     1       1.483   4.060  18.929  0.00  0.00    +0.000 C 
ENDBRANCH  18  28
ENDBRANCH  17  20
ENDBRANCH   1  17
TORSDOF 7
ENDMDL
MODEL 9
REMARK VINA RESULT:      -8.1      2.177      7.493
REMARK  Name = 
REMARK  8 active torsions:
REMARK  status: ('A' for Active; 'I' for Inactive)
REMARK    1  A    between atoms: C_1  and  C_2
REMARK    2  A    between atoms: C_2  and  C_3
REMARK    3  A    between atoms: N_5  and  C_6
REMARK    4  A    between atoms: N_5  and  C_22
REMARK    5  A    between atoms: C_6  and  C_7
REMARK    6  A    between atoms: C_10  and  C_11
REMARK    7  A    between atoms: C_16  and  C_17
REMARK    8  A    between atoms: C_17  and  O_19
REMARK                            x       y       z     vdW  Elec       q    Type
REMARK                         _______ _______ _______ _____ _____    ______ ____
ROOT
ATOM      1  C   UNL     1       1.117   9.144  19.607  0.00  0.00    +0.000 A 
ATOM      2  C   UNL     1       1.631   8.066  20.336  0.00  0.00    +0.000 A 
ATOM      3  C   UNL     1       2.432   7.095  19.721  0.00  0.00    +0.000 A 
ATOM      4  C   UNL     1       2.798   7.178  18.368  0.00  0.00    +0.000 A 
ATOM      5  C   UNL     1       2.290   8.277  17.650  0.00  0.00    +0.000 A 
ATOM      6  C   UNL     1       1.461   9.240  18.254  0.00  0.00    +0.000 A 
ENDROOT
BRANCH   4   7
ATOM      7  C   UNL     1       3.664   6.151  17.727  0.00  0.00    +0.000 A 
ATOM      8  C   UNL     1       4.917   6.553  17.203  0.00  0.00    +0.000 A 
ATOM      9  C   UNL     1       5.774   5.676  16.525  0.00  0.00    +0.000 A 
ATOM     10  C   UNL     1       5.394   4.353  16.337  0.00  0.00    +0.000 A 
ATOM     11  C   UNL     1       4.174   3.914  16.843  0.00  0.00    +0.000 A 
ATOM     12  C   UNL     1       3.318   4.788  17.548  0.00  0.00    +0.000 A 
BRANCH  12  13
ATOM     13  C   UNL     1       2.057   4.142  18.029  0.00  0.00    +0.000 C 
ATOM     14  O   UNL     1       1.038   4.142  17.351  0.00  0.00    +0.000 OA
BRANCH  13  15
ATOM     15  O   UNL     1       2.156   3.489  19.195  0.00  0.00    +0.000 OA
ATOM     16  H   UNL     1       2.916   3.738  19.754  0.00  0.00    +0.000 HD
ENDBRANCH  13  15
ENDBRANCH  12  13
ENDBRANCH   4   7
BRANCH   1  17
ATOM     17  C   UNL     1       0.165  10.135  20.251  0.00  0.00    +0.000 C 
BRANCH  17  20
ATOM     18  C   UNL     1      -1.031  11.616  18.551  0.00  0.00    +0.000 C 
ATOM     19  O   UNL     1      -1.117  12.655  17.892  0.00  0.00    +0.000 OA
ATOM     20  N   UNL     1      -0.015  11.384  19.488  0.00  0.00    +0.000 N 
BRANCH  20  21
ATOM     21  C   UNL     1       0.973  12.395  19.681  0.00  0.00    +0.000 A 
ATOM     22  C   UNL     1       1.017  13.118  20.879  0.00  0.00    +0.000 A 
ATOM     23  C   UNL     1       1.998  14.089  21.082  0.00  0.00    +0.000 A 
ATOM     24  C   UNL     1       2.923  14.371  20.076  0.00  0.00    +0.000 A 
ATOM     25  C   UNL     1       2.868  13.677  18.871  0.00  0.00    +0.000 A 
ATOM     26  C   UNL     1       1.904  12.685  18.677  0.00  0.00    +0.000 A 
ENDBRANCH  20  21
BRANCH  18  28
ATOM     27  C   UNL     1      -2.026   9.953  16.908  0.00  0.00    +0.000 C 
ATOM     28  C   UNL     1      -2.043  10.496  18.330  0.00  0.00    +0.000 C 
ENDBRANCH  18  28
ENDBRANCH  17  20
ENDBRANCH   1  17
TORSDOF 7
ENDMDL
