MODEL 1
REMARK VINA RESULT:      -7.6      0.000      0.000
REMARK  Name = 
REMARK  8 active torsions:
REMARK  status: ('A' for Active; 'I' for Inactive)
REMARK    1  A    between atoms: C_1  and  O_2
REMARK    2  A    between atoms: O_2  and  C_3
REMARK    3  A    between atoms: C_3  and  C_4
REMARK    4  A    between atoms: C_4  and  N_5
REMARK    5  A    between atoms: N_5  and  C_6
REMARK    6  A    between atoms: C_7  and  C_9
REMARK    7  A    between atoms: C_15  and  C_16
REMARK    8  A    between atoms: C_19  and  C_20
REMARK                            x       y       z     vdW  Elec       q    Type
REMARK                         _______ _______ _______ _____ _____    ______ ____
ROOT
ATOM      1  C   UNL     1       4.731   4.253  17.472  0.00  0.00    +0.000 A 
ATOM      2  C   UNL     1       5.803   4.881  18.126  0.00  0.00    +0.000 A 
ATOM      3  C   UNL     1       6.881   5.422  17.418  0.00  0.00    +0.000 A 
ATOM      4  C   UNL     1       6.887   5.205  16.046  0.00  0.00    +0.000 A 
ATOM      5  O   UNL     1       7.853   5.623  15.188  0.00  0.00    +0.000 OA
ATOM      6  N   UNL     1       7.576   5.152  13.919  0.00  0.00    +0.000 NA
ATOM      7  C   UNL     1       6.431   4.459  14.033  0.00  0.00    +0.000 A 
ATOM      8  C   UNL     1       5.918   4.497  15.356  0.00  0.00    +0.000 A 
ATOM      9  C   UNL     1       4.803   4.019  16.079  0.00  0.00    +0.000 A 
ENDROOT
BRANCH   7  10
ATOM     10  C   UNL     1       5.868   3.736  12.898  0.00  0.00    +0.000 A 
ATOM     11  C   UNL     1       6.461   2.725  12.178  0.00  0.00    +0.000 A 
ATOM     12  O   UNL     1       5.583   2.313  11.225  0.00  0.00    +0.000 OA
ATOM     13  C   UNL     1       4.487   3.108  11.422  0.00  0.00    +0.000 A 
ATOM     14  C   UNL     1       3.347   2.895  10.507  0.00  0.00    +0.000 C 
ATOM     15  N   UNL     1       4.606   3.973  12.411  0.00  0.00    +0.000 NA
ENDBRANCH   7  10
BRANCH   1  18
ATOM     16  N   UNL     1       2.497   4.652  18.589  0.00  0.00    +0.000 N 
ATOM     17  C   UNL     1       2.365   6.034  18.148  0.00  0.00    +0.000 C 
ATOM     18  C   UNL     1       3.517   3.767  18.203  0.00  0.00    +0.000 C 
ATOM     19  O   UNL     1       3.448   2.557  18.432  0.00  0.00    +0.000 OA
BRANCH  16  20
ATOM     20  C   UNL     1       1.350   4.100  19.327  0.00  0.00    +0.000 C 
BRANCH  20  21
ATOM     21  C   UNL     1       1.406   4.260  20.853  0.00  0.00    +0.000 C 
BRANCH  21  23
ATOM     22  C   UNL     1       2.534   2.387  21.710  0.00  0.00    +0.000 C 
ATOM     23  O   UNL     1       1.261   2.989  21.497  0.00  0.00    +0.000 OA
ENDBRANCH  21  23
ENDBRANCH  20  21
ENDBRANCH  16  20
ENDBRANCH   1  18
TORSDOF 5
ENDMDL
MODEL 2
REMARK VINA RESULT:      -7.5      1.302      1.531
REMARK  Name = 
REMARK  8 active torsions:
REMARK  status: ('A' for Active; 'I' for Inactive)
REMARK    1  A    between atoms: C_1  and  O_2
REMARK    2  A    between atoms: O_2  and  C_3
REMARK    3  A    between atoms: C_3  and  C_4
REMARK    4  A    between atoms: C_4  and  N_5
REMARK    5  A    between atoms: N_5  and  C_6
REMARK    6  A    between atoms: C_7  and  C_9
REMARK    7  A    between atoms: C_15  and  C_16
REMARK    8  A    between atoms: C_19  and  C_20
REMARK                            x       y       z     vdW  Elec       q    Type
REMARK                         _______ _______ _______ _____ _____    ______ ____
ROOT
ATOM      1  C   UNL     1       4.666   3.914  18.076  0.00  0.00    +0.000 A 
ATOM      2  C   UNL     1       5.368   4.665  19.033  0.00  0.00    +0.000 A 
ATOM      3  C   UNL     1       6.357   5.583  18.665  0.00  0.00    +0.000 A 
ATOM      4  C   UNL     1       6.683   5.629  17.316  0.00  0.00    +0.000 A 
ATOM      5  O   UNL     1       7.630   6.428  16.763  0.00  0.00    +0.000 OA
ATOM      6  N   UNL     1       7.745   6.142  15.416  0.00  0.00    +0.000 NA
ATOM      7  C   UNL     1       6.849   5.170  15.176  0.00  0.00    +0.000 A 
ATOM      8  C   UNL     1       6.107   4.834  16.339  0.00  0.00    +0.000 A 
ATOM      9  C   UNL     1       5.063   3.963  16.720  0.00  0.00    +0.000 A 
ENDROOT
BRANCH   7  10
ATOM     10  C   UNL     1       6.743   4.546  13.861  0.00  0.00    +0.000 A 
ATOM     11  C   UNL     1       7.523   4.795  12.756  0.00  0.00    +0.000 A 
ATOM     12  O   UNL     1       7.105   3.980  11.751  0.00  0.00    +0.000 OA
ATOM     13  C   UNL     1       6.077   3.270  12.310  0.00  0.00    +0.000 A 
ATOM     14  C   UNL     1       5.403   2.291  11.433  0.00  0.00    +0.000 C 
ATOM     15  N   UNL     1       5.822   3.569  13.569  0.00  0.00    +0.000 NA
ENDBRANCH   7  10
BRANCH   1  18
ATOM     16  N   UNL     1       2.198   3.456  18.393  0.00  0.00    +0.000 N 
ATOM     17  C   UNL     1       1.746   4.700  17.786  0.00  0.00    +0.000 C 
ATOM     18  C   UNL     1       3.529   3.009  18.442  0.00  0.00    +0.000 C 
ATOM     19  O   UNL     1       3.815   1.854  18.767  0.00  0.00    +0.000 OA
BRANCH  16  20
ATOM     20  C   UNL     1       1.141   2.514  18.793  0.00  0.00    +0.000 C 
BRANCH  20  21
ATOM     21  C   UNL     1       0.561   2.727  20.199  0.00  0.00    +0.000 C 
BRANCH  21  23
ATOM     22  C   UNL     1       2.129   3.443  21.794  0.00  0.00    +0.000 C 
ATOM     23  O   UNL     1       1.501   2.312  21.197  0.00  0.00    +0.000 OA
ENDBRANCH  21  23
ENDBRANCH  20  21
ENDBRANCH  16  20
ENDBRANCH   1  18
TORSDOF 5
ENDMDL
MODEL 3
REMARK VINA RESULT:      -7.5      1.140      1.387
REMARK  Name = 
REMARK  8 active torsions:
REMARK  status: ('A' for Active; 'I' for Inactive)
REMARK    1  A    between atoms: C_1  and  O_2
REMARK    2  A    between atoms: O_2  and  C_3
REMARK    3  A    between atoms: C_3  and  C_4
REMARK    4  A    between atoms: C_4  and  N_5
REMARK    5  A    between atoms: N_5  and  C_6
REMARK    6  A    between atoms: C_7  and  C_9
REMARK    7  A    between atoms: C_15  and  C_16
REMARK    8  A    between atoms: C_19  and  C_20
REMARK                            x       y       z     vdW  Elec       q    Type
REMARK                         _______ _______ _______ _____ _____    ______ ____
ROOT
ATOM      1  C   UNL     1       4.111   4.811  17.496  0.00  0.00    +0.000 A 
ATOM      2  C   UNL     1       5.106   5.386  18.303  0.00  0.00    +0.000 A 
ATOM      3  C   UNL     1       6.330   5.805  17.772  0.00  0.00    +0.000 A 
ATOM      4  C   UNL     1       6.550   5.519  16.431  0.00  0.00    +0.000 A 
ATOM      5  O   UNL     1       7.679   5.816  15.739  0.00  0.00    +0.000 OA
ATOM      6  N   UNL     1       7.582   5.304  14.459  0.00  0.00    +0.000 NA
ATOM      7  C   UNL     1       6.380   4.709  14.398  0.00  0.00    +0.000 A 
ATOM      8  C   UNL     1       5.655   4.854  15.611  0.00  0.00    +0.000 A 
ATOM      9  C   UNL     1       4.397   4.501  16.146  0.00  0.00    +0.000 A 
ENDROOT
BRANCH   7  10
ATOM     10  C   UNL     1       5.957   3.974  13.210  0.00  0.00    +0.000 A 
ATOM     11  C   UNL     1       6.723   3.135  12.435  0.00  0.00    +0.000 A 
ATOM     12  O   UNL     1       5.934   2.639  11.444  0.00  0.00    +0.000 OA
ATOM     13  C   UNL     1       4.714   3.213  11.676  0.00  0.00    +0.000 A 
ATOM     14  C   UNL     1       3.633   2.862  10.733  0.00  0.00    +0.000 C 
ATOM     15  N   UNL     1       4.674   4.017  12.721  0.00  0.00    +0.000 NA
ENDBRANCH   7  10
BRANCH   1  18
ATOM     16  N   UNL     1       2.355   3.120  18.171  0.00  0.00    +0.000 N 
ATOM     17  C   UNL     1       3.231   1.961  18.072  0.00  0.00    +0.000 C 
ATOM     18  C   UNL     1       2.753   4.459  18.024  0.00  0.00    +0.000 C 
ATOM     19  O   UNL     1       2.014   5.395  18.339  0.00  0.00    +0.000 OA
BRANCH  16  20
ATOM     20  C   UNL     1       0.996   2.858  18.671  0.00  0.00    +0.000 C 
BRANCH  20  21
ATOM     21  C   UNL     1       0.898   2.484  20.157  0.00  0.00    +0.000 C 
BRANCH  21  23
ATOM     22  C   UNL     1       2.254   3.529  21.764  0.00  0.00    +0.000 C 
ATOM     23  O   UNL     1       1.072   3.644  20.978  0.00  0.00    +0.000 OA
ENDBRANCH  21  23
ENDBRANCH  20  21
ENDBRANCH  16  20
ENDBRANCH   1  18
TORSDOF 5
ENDMDL
MODEL 4
REMARK VINA RESULT:      -7.3      0.886      1.068
REMARK  Name = 
REMARK  8 active torsions:
REMARK  status: ('A' for Active; 'I' for Inactive)
REMARK    1  A    between atoms: C_1  and  O_2
REMARK    2  A    between atoms: O_2  and  C_3
REMARK    3  A    between atoms: C_3  and  C_4
REMARK    4  A    between atoms: C_4  and  N_5
REMARK    5  A    between atoms: N_5  and  C_6
REMARK    6  A    between atoms: C_7  and  C_9
REMARK    7  A    between atoms: C_15  and  C_16
REMARK    8  A    between atoms: C_19  and  C_20
REMARK                            x       y       z     vdW  Elec       q    Type
REMARK                         _______ _______ _______ _____ _____    ______ ____
ROOT
ATOM      1  C   UNL     1       5.023   3.850  17.667  0.00  0.00    +0.000 A 
ATOM      2  C   UNL     1       6.072   4.561  18.272  0.00  0.00    +0.000 A 
ATOM      3  C   UNL     1       7.018   5.260  17.515  0.00  0.00    +0.000 A 
ATOM      4  C   UNL     1       6.928   5.120  16.136  0.00  0.00    +0.000 A 
ATOM      5  O   UNL     1       7.764   5.692  15.232  0.00  0.00    +0.000 OA
ATOM      6  N   UNL     1       7.431   5.262  13.962  0.00  0.00    +0.000 NA
ATOM      7  C   UNL     1       6.384   4.436  14.123  0.00  0.00    +0.000 A 
ATOM      8  C   UNL     1       5.987   4.343  15.483  0.00  0.00    +0.000 A 
ATOM      9  C   UNL     1       4.999   3.701  16.261  0.00  0.00    +0.000 A 
ENDROOT
BRANCH   7  10
ATOM     10  C   UNL     1       5.808   3.715  12.993  0.00  0.00    +0.000 A 
ATOM     11  C   UNL     1       6.329   2.613  12.356  0.00  0.00    +0.000 A 
ATOM     12  O   UNL     1       5.463   2.242  11.375  0.00  0.00    +0.000 OA
ATOM     13  C   UNL     1       4.447   3.154  11.473  0.00  0.00    +0.000 A 
ATOM     14  C   UNL     1       3.339   3.009  10.506  0.00  0.00    +0.000 C 
ATOM     15  N   UNL     1       4.604   4.053  12.425  0.00  0.00    +0.000 NA
ENDBRANCH   7  10
BRANCH   1  18
ATOM     16  N   UNL     1       2.626   3.687  18.458  0.00  0.00    +0.000 N 
ATOM     17  C   UNL     1       2.110   4.704  17.552  0.00  0.00    +0.000 C 
ATOM     18  C   UNL     1       3.938   3.188  18.462  0.00  0.00    +0.000 C 
ATOM     19  O   UNL     1       4.247   2.179  19.099  0.00  0.00    +0.000 OA
BRANCH  16  20
ATOM     20  C   UNL     1       1.624   2.996  19.285  0.00  0.00    +0.000 C 
BRANCH  20  21
ATOM     21  C   UNL     1       0.891   3.874  20.309  0.00  0.00    +0.000 C 
BRANCH  21  23
ATOM     22  C   UNL     1       1.524   6.046  20.938  0.00  0.00    +0.000 C 
ATOM     23  O   UNL     1       1.826   4.659  21.057  0.00  0.00    +0.000 OA
ENDBRANCH  21  23
ENDBRANCH  20  21
ENDBRANCH  16  20
ENDBRANCH   1  18
TORSDOF 5
ENDMDL
MODEL 5
REMARK VINA RESULT:      -7.2      1.423      1.814
REMARK  Name = 
REMARK  8 active torsions:
REMARK  status: ('A' for Active; 'I' for Inactive)
REMARK    1  A    between atoms: C_1  and  O_2
REMARK    2  A    between atoms: O_2  and  C_3
REMARK    3  A    between atoms: C_3  and  C_4
REMARK    4  A    between atoms: C_4  and  N_5
REMARK    5  A    between atoms: N_5  and  C_6
REMARK    6  A    between atoms: C_7  and  C_9
REMARK    7  A    between atoms: C_15  and  C_16
REMARK    8  A    between atoms: C_19  and  C_20
REMARK                            x       y       z     vdW  Elec       q    Type
REMARK                         _______ _______ _______ _____ _____    ______ ____
ROOT
ATOM      1  C   UNL     1       3.999   4.730  17.440  0.00  0.00    +0.000 A 
ATOM      2  C   UNL     1       4.887   5.462  18.245  0.00  0.00    +0.000 A 
ATOM      3  C   UNL     1       6.085   5.976  17.737  0.00  0.00    +0.000 A 
ATOM      4  C   UNL     1       6.399   5.629  16.429  0.00  0.00    +0.000 A 
ATOM      5  O   UNL     1       7.523   6.001  15.765  0.00  0.00    +0.000 OA
ATOM      6  N   UNL     1       7.542   5.399  14.522  0.00  0.00    +0.000 NA
ATOM      7  C   UNL     1       6.415   4.673  14.454  0.00  0.00    +0.000 A 
ATOM      8  C   UNL     1       5.620   4.817  15.622  0.00  0.00    +0.000 A 
ATOM      9  C   UNL     1       4.382   4.365  16.128  0.00  0.00    +0.000 A 
ENDROOT
BRANCH   7  10
ATOM     10  C   UNL     1       6.131   3.821  13.304  0.00  0.00    +0.000 A 
ATOM     11  C   UNL     1       4.922   3.654  12.670  0.00  0.00    +0.000 A 
ATOM     12  O   UNL     1       5.103   2.794  11.632  0.00  0.00    +0.000 OA
ATOM     13  C   UNL     1       6.434   2.480  11.695  0.00  0.00    +0.000 A 
ATOM     14  C   UNL     1       6.934   1.534  10.677  0.00  0.00    +0.000 C 
ATOM     15  N   UNL     1       7.093   3.069  12.674  0.00  0.00    +0.000 NA
ENDBRANCH   7  10
BRANCH   1  18
ATOM     16  N   UNL     1       2.415   2.910  18.198  0.00  0.00    +0.000 N 
ATOM     17  C   UNL     1       3.424   1.862  18.260  0.00  0.00    +0.000 C 
ATOM     18  C   UNL     1       2.663   4.267  17.935  0.00  0.00    +0.000 C 
ATOM     19  O   UNL     1       1.802   5.131  18.117  0.00  0.00    +0.000 OA
BRANCH  16  20
ATOM     20  C   UNL     1       1.068   2.532  18.656  0.00  0.00    +0.000 C 
BRANCH  20  21
ATOM     21  C   UNL     1       0.700   2.988  20.075  0.00  0.00    +0.000 C 
BRANCH  21  23
ATOM     22  C   UNL     1       2.270   3.492  21.747  0.00  0.00    +0.000 C 
ATOM     23  O   UNL     1       1.620   2.447  21.030  0.00  0.00    +0.000 OA
ENDBRANCH  21  23
ENDBRANCH  20  21
ENDBRANCH  16  20
ENDBRANCH   1  18
TORSDOF 5
ENDMDL
MODEL 6
REMARK VINA RESULT:      -7.2      1.196      1.396
REMARK  Name = 
REMARK  8 active torsions:
REMARK  status: ('A' for Active; 'I' for Inactive)
REMARK    1  A    between atoms: C_1  and  O_2
REMARK    2  A    between atoms: O_2  and  C_3
REMARK    3  A    between atoms: C_3  and  C_4
REMARK    4  A    between atoms: C_4  and  N_5
REMARK    5  A    between atoms: N_5  and  C_6
REMARK    6  A    between atoms: C_7  and  C_9
REMARK    7  A    between atoms: C_15  and  C_16
REMARK    8  A    between atoms: C_19  and  C_20
REMARK                            x       y       z     vdW  Elec       q    Type
REMARK                         _______ _______ _______ _____ _____    ______ ____
ROOT
ATOM      1  C   UNL     1       4.647   3.793  17.801  0.00  0.00    +0.000 A 
ATOM      2  C   UNL     1       5.494   4.628  18.545  0.00  0.00    +0.000 A 
ATOM      3  C   UNL     1       6.453   5.440  17.928  0.00  0.00    +0.000 A 
ATOM      4  C   UNL     1       6.595   5.289  16.555  0.00  0.00    +0.000 A 
ATOM      5  O   UNL     1       7.484   5.960  15.779  0.00  0.00    +0.000 OA
ATOM      6  N   UNL     1       7.407   5.491  14.481  0.00  0.00    +0.000 NA
ATOM      7  C   UNL     1       6.457   4.542  14.496  0.00  0.00    +0.000 A 
ATOM      8  C   UNL     1       5.869   4.400  15.781  0.00  0.00    +0.000 A 
ATOM      9  C   UNL     1       4.858   3.641  16.410  0.00  0.00    +0.000 A 
ENDROOT
BRANCH   7  10
ATOM     10  C   UNL     1       6.155   3.754  13.306  0.00  0.00    +0.000 A 
ATOM     11  C   UNL     1       4.950   3.670  12.647  0.00  0.00    +0.000 A 
ATOM     12  O   UNL     1       5.111   2.848  11.575  0.00  0.00    +0.000 OA
ATOM     13  C   UNL     1       6.425   2.473  11.643  0.00  0.00    +0.000 A 
ATOM     14  C   UNL     1       6.900   1.550  10.591  0.00  0.00    +0.000 C 
ATOM     15  N   UNL     1       7.093   2.988  12.657  0.00  0.00    +0.000 NA
ENDBRANCH   7  10
BRANCH   1  18
ATOM     16  N   UNL     1       2.212   3.452  18.397  0.00  0.00    +0.000 N 
ATOM     17  C   UNL     1       1.714   4.553  17.585  0.00  0.00    +0.000 C 
ATOM     18  C   UNL     1       3.542   3.001  18.432  0.00  0.00    +0.000 C 
ATOM     19  O   UNL     1       3.851   1.933  18.964  0.00  0.00    +0.000 OA
BRANCH  16  20
ATOM     20  C   UNL     1       1.189   2.630  19.063  0.00  0.00    +0.000 C 
BRANCH  20  21
ATOM     21  C   UNL     1       0.583   3.233  20.338  0.00  0.00    +0.000 C 
BRANCH  21  23
ATOM     22  C   UNL     1       2.321   3.430  21.905  0.00  0.00    +0.000 C 
ATOM     23  O   UNL     1       1.192   2.662  21.501  0.00  0.00    +0.000 OA
ENDBRANCH  21  23
ENDBRANCH  20  21
ENDBRANCH  16  20
ENDBRANCH   1  18
TORSDOF 5
ENDMDL
MODEL 7
REMARK VINA RESULT:      -7.1      1.044      1.221
REMARK  Name = 
REMARK  8 active torsions:
REMARK  status: ('A' for Active; 'I' for Inactive)
REMARK    1  A    between atoms: C_1  and  O_2
REMARK    2  A    between atoms: O_2  and  C_3
REMARK    3  A    between atoms: C_3  and  C_4
REMARK    4  A    between atoms: C_4  and  N_5
REMARK    5  A    between atoms: N_5  and  C_6
REMARK    6  A    between atoms: C_7  and  C_9
REMARK    7  A    between atoms: C_15  and  C_16
REMARK    8  A    between atoms: C_19  and  C_20
REMARK                            x       y       z     vdW  Elec       q    Type
REMARK                         _______ _______ _______ _____ _____    ______ ____
ROOT
ATOM      1  C   UNL     1       5.330   4.100  17.770  0.00  0.00    +0.000 A 
ATOM      2  C   UNL     1       6.412   4.823  18.298  0.00  0.00    +0.000 A 
ATOM      3  C   UNL     1       7.326   5.485  17.472  0.00  0.00    +0.000 A 
ATOM      4  C   UNL     1       7.171   5.294  16.105  0.00  0.00    +0.000 A 
ATOM      5  O   UNL     1       7.968   5.824  15.142  0.00  0.00    +0.000 OA
ATOM      6  N   UNL     1       7.573   5.349  13.906  0.00  0.00    +0.000 NA
ATOM      7  C   UNL     1       6.529   4.540  14.146  0.00  0.00    +0.000 A 
ATOM      8  C   UNL     1       6.195   4.502  15.526  0.00  0.00    +0.000 A 
ATOM      9  C   UNL     1       5.239   3.898  16.373  0.00  0.00    +0.000 A 
ENDROOT
BRANCH   7  10
ATOM     10  C   UNL     1       5.894   3.782  13.073  0.00  0.00    +0.000 A 
ATOM     11  C   UNL     1       6.374   2.649  12.459  0.00  0.00    +0.000 A 
ATOM     12  O   UNL     1       5.461   2.251  11.532  0.00  0.00    +0.000 OA
ATOM     13  C   UNL     1       4.461   3.180  11.637  0.00  0.00    +0.000 A 
ATOM     14  C   UNL     1       3.311   3.012  10.726  0.00  0.00    +0.000 C 
ATOM     15  N   UNL     1       4.671   4.115  12.544  0.00  0.00    +0.000 NA
ENDBRANCH   7  10
BRANCH   1  18
ATOM     16  N   UNL     1       3.540   4.249  19.551  0.00  0.00    +0.000 N 
ATOM     17  C   UNL     1       3.518   5.704  19.606  0.00  0.00    +0.000 C 
ATOM     18  C   UNL     1       4.279   3.478  18.638  0.00  0.00    +0.000 C 
ATOM     19  O   UNL     1       4.082   2.269  18.500  0.00  0.00    +0.000 OA
BRANCH  16  20
ATOM     20  C   UNL     1       2.544   3.559  20.386  0.00  0.00    +0.000 C 
BRANCH  20  21
ATOM     21  C   UNL     1       1.076   3.848  20.041  0.00  0.00    +0.000 C 
BRANCH  21  23
ATOM     22  C   UNL     1       0.637   2.011  18.645  0.00  0.00    +0.000 C 
ATOM     23  O   UNL     1       0.783   3.426  18.704  0.00  0.00    +0.000 OA
ENDBRANCH  21  23
ENDBRANCH  20  21
ENDBRANCH  16  20
ENDBRANCH   1  18
TORSDOF 5
ENDMDL
MODEL 8
REMARK VINA RESULT:      -7.0      3.646      5.450
REMARK  Name = 
REMARK  8 active torsions:
REMARK  status: ('A' for Active; 'I' for Inactive)
REMARK    1  A    between atoms: C_1  and  O_2
REMARK    2  A    between atoms: O_2  and  C_3
REMARK    3  A    between atoms: C_3  and  C_4
REMARK    4  A    between atoms: C_4  and  N_5
REMARK    5  A    between atoms: N_5  and  C_6
REMARK    6  A    between atoms: C_7  and  C_9
REMARK    7  A    between atoms: C_15  and  C_16
REMARK    8  A    between atoms: C_19  and  C_20
REMARK                            x       y       z     vdW  Elec       q    Type
REMARK                         _______ _______ _______ _____ _____    ______ ____
ROOT
ATOM      1  C   UNL     1       2.500   7.215  18.818  0.00  0.00    +0.000 A 
ATOM      2  C   UNL     1       2.034   6.460  19.905  0.00  0.00    +0.000 A 
ATOM      3  C   UNL     1       2.677   5.286  20.313  0.00  0.00    +0.000 A 
ATOM      4  C   UNL     1       3.728   4.851  19.517  0.00  0.00    +0.000 A 
ATOM      5  O   UNL     1       4.459   3.727  19.725  0.00  0.00    +0.000 OA
ATOM      6  N   UNL     1       5.358   3.564  18.688  0.00  0.00    +0.000 NA
ATOM      7  C   UNL     1       5.156   4.608  17.869  0.00  0.00    +0.000 A 
ATOM      8  C   UNL     1       4.162   5.490  18.368  0.00  0.00    +0.000 A 
ATOM      9  C   UNL     1       3.547   6.710  18.012  0.00  0.00    +0.000 A 
ENDROOT
BRANCH   7  10
ATOM     10  C   UNL     1       5.876   4.729  16.605  0.00  0.00    +0.000 A 
ATOM     11  C   UNL     1       6.954   5.539  16.336  0.00  0.00    +0.000 A 
ATOM     12  O   UNL     1       7.333   5.324  15.047  0.00  0.00    +0.000 OA
ATOM     13  C   UNL     1       6.450   4.380  14.598  0.00  0.00    +0.000 A 
ATOM     14  C   UNL     1       6.609   3.946  13.195  0.00  0.00    +0.000 C 
ATOM     15  N   UNL     1       5.561   3.990  15.491  0.00  0.00    +0.000 NA
ENDBRANCH   7  10
BRANCH   1  18
ATOM     16  N   UNL     1       1.135   9.277  19.353  0.00  0.00    +0.000 N 
ATOM     17  C   UNL     1       1.043   9.017  20.782  0.00  0.00    +0.000 C 
ATOM     18  C   UNL     1       1.893   8.531  18.435  0.00  0.00    +0.000 C 
ATOM     19  O   UNL     1       2.105   8.933  17.289  0.00  0.00    +0.000 OA
BRANCH  16  20
ATOM     20  C   UNL     1       0.551  10.546  18.891  0.00  0.00    +0.000 C 
BRANCH  20  21
ATOM     21  C   UNL     1      -0.981  10.576  18.801  0.00  0.00    +0.000 C 
BRANCH  21  23
ATOM     22  C   UNL     1      -2.769   9.811  17.484  0.00  0.00    +0.000 C 
ATOM     23  O   UNL     1      -1.412  10.245  17.476  0.00  0.00    +0.000 OA
ENDBRANCH  21  23
ENDBRANCH  20  21
ENDBRANCH  16  20
ENDBRANCH   1  18
TORSDOF 5
ENDMDL
MODEL 9
REMARK VINA RESULT:      -7.0      3.757      5.928
REMARK  Name = 
REMARK  8 active torsions:
REMARK  status: ('A' for Active; 'I' for Inactive)
REMARK    1  A    between atoms: C_1  and  O_2
REMARK    2  A    between atoms: O_2  and  C_3
REMARK    3  A    between atoms: C_3  and  C_4
REMARK    4  A    between atoms: C_4  and  N_5
REMARK    5  A    between atoms: N_5  and  C_6
REMARK    6  A    between atoms: C_7  and  C_9
REMARK    7  A    between atoms: C_15  and  C_16
REMARK    8  A    between atoms: C_19  and  C_20
REMARK                            x       y       z     vdW  Elec       q    Type
REMARK                         _______ _______ _______ _____ _____    ______ ____
ROOT
ATOM      1  C   UNL     1       2.322   6.789  19.524  0.00  0.00    +0.000 A 
ATOM      2  C   UNL     1       1.668   5.952  20.442  0.00  0.00    +0.000 A 
ATOM      3  C   UNL     1       2.192   4.707  20.804  0.00  0.00    +0.000 A 
ATOM      4  C   UNL     1       3.332   4.298  20.124  0.00  0.00    +0.000 A 
ATOM      5  O   UNL     1       3.975   3.117  20.308  0.00  0.00    +0.000 OA
ATOM      6  N   UNL     1       5.011   3.011  19.399  0.00  0.00    +0.000 NA
ATOM      7  C   UNL     1       4.979   4.145  18.681  0.00  0.00    +0.000 A 
ATOM      8  C   UNL     1       3.959   5.027  19.128  0.00  0.00    +0.000 A 
ATOM      9  C   UNL     1       3.456   6.311  18.826  0.00  0.00    +0.000 A 
ENDROOT
BRANCH   7  10
ATOM     10  C   UNL     1       5.883   4.356  17.555  0.00  0.00    +0.000 A 
ATOM     11  C   UNL     1       7.218   4.682  17.611  0.00  0.00    +0.000 A 
ATOM     12  O   UNL     1       7.688   4.757  16.337  0.00  0.00    +0.000 OA
ATOM     13  C   UNL     1       6.595   4.467  15.566  0.00  0.00    +0.000 A 
ATOM     14  C   UNL     1       6.800   4.484  14.103  0.00  0.00    +0.000 C 
ATOM     15  N   UNL     1       5.493   4.218  16.246  0.00  0.00    +0.000 NA
ENDBRANCH   7  10
BRANCH   1  18
ATOM     16  N   UNL     1       1.238   8.975  20.193  0.00  0.00    +0.000 N 
ATOM     17  C   UNL     1       1.231   8.696  21.622  0.00  0.00    +0.000 C 
ATOM     18  C   UNL     1       1.835   8.171  19.208  0.00  0.00    +0.000 C 
ATOM     19  O   UNL     1       1.999   8.572  18.054  0.00  0.00    +0.000 OA
BRANCH  16  20
ATOM     20  C   UNL     1       0.763  10.310  19.796  0.00  0.00    +0.000 C 
BRANCH  20  21
ATOM     21  C   UNL     1      -0.710  10.387  19.367  0.00  0.00    +0.000 C 
BRANCH  21  23
ATOM     22  C   UNL     1      -0.881  12.546  18.459  0.00  0.00    +0.000 C 
ATOM     23  O   UNL     1      -1.220  11.711  19.562  0.00  0.00    +0.000 OA
ENDBRANCH  21  23
ENDBRANCH  20  21
ENDBRANCH  16  20
ENDBRANCH   1  18
TORSDOF 5
ENDMDL
