MODEL 1
REMARK VINA RESULT:      -8.0      0.000      0.000
REMARK  Name = 
REMARK  7 active torsions:
REMARK  status: ('A' for Active; 'I' for Inactive)
REMARK    1  A    between atoms: C_1  and  O_2
REMARK    2  A    between atoms: O_2  and  N_3
REMARK    3  A    between atoms: C_4  and  C_6
REMARK    4  A    between atoms: N_8  and  C_9
REMARK    5  A    between atoms: C_9  and  C_10
REMARK    6  A    between atoms: C_12  and  O_13
REMARK    7  A    between atoms: C_15  and  O_16
REMARK                            x       y       z     vdW  Elec       q    Type
REMARK                         _______ _______ _______ _____ _____    ______ ____
ROOT
ATOM      1  C   UNL     1       2.308   6.520  19.338  0.00  0.00    +0.000 A 
ATOM      2  C   UNL     1       3.243   6.526  18.377  0.00  0.00    +0.000 A 
ATOM      3  N   UNL     1       3.773   5.414  17.731  0.00  0.00    +0.000 N 
ATOM      4  C   UNL     1       3.348   4.122  18.127  0.00  0.00    +0.000 A 
ATOM      5  C   UNL     1       3.898   2.931  17.626  0.00  0.00    +0.000 A 
ATOM      6  C   UNL     1       3.483   1.677  18.093  0.00  0.00    +0.000 A 
ATOM      7  C   UNL     1       2.485   1.578  19.056  0.00  0.00    +0.000 A 
ATOM      8  C   UNL     1       1.909   2.736  19.563  0.00  0.00    +0.000 A 
ATOM      9  C   UNL     1       2.346   3.991  19.111  0.00  0.00    +0.000 A 
ATOM     10  C   UNL     1       1.767   5.202  19.738  0.00  0.00    +0.000 A 
ATOM     11  O   UNL     1       0.890   5.108  20.591  0.00  0.00    +0.000 OA
ENDROOT
BRANCH   1  13
ATOM     12  N   UNL     1       1.747   7.759  21.315  0.00  0.00    +0.000 N 
ATOM     13  C   UNL     1       1.897   7.813  19.954  0.00  0.00    +0.000 C 
ATOM     14  O   UNL     1       1.710   8.817  19.270  0.00  0.00    +0.000 OA
ATOM     15  H   UNL     1       2.112   6.978  21.864  0.00  0.00    +0.000 HD
BRANCH  12  17
ATOM     16  C   UNL     1       0.152   9.057  22.310  0.00  0.00    +0.000 C 
ATOM     17  O   UNL     1       1.539   8.975  21.996  0.00  0.00    +0.000 OA
ENDBRANCH  12  17
ENDBRANCH   1  13
BRANCH   3  18
ATOM     18  C   UNL     1       4.919   5.560  16.807  0.00  0.00    +0.000 C 
BRANCH  18  19
ATOM     19  C   UNL     1       6.157   6.152  17.461  0.00  0.00    +0.000 A 
ATOM     20  C   UNL     1       6.670   7.417  17.124  0.00  0.00    +0.000 A 
ATOM     21  C   UNL     1       7.764   7.942  17.807  0.00  0.00    +0.000 A 
ATOM     22  C   UNL     1       8.386   7.222  18.816  0.00  0.00    +0.000 A 
ATOM     23  C   UNL     1       7.909   5.955  19.128  0.00  0.00    +0.000 A 
ATOM     24  C   UNL     1       6.813   5.413  18.458  0.00  0.00    +0.000 A 
BRANCH  21  25
ATOM     25  O   UNL     1       8.243   9.185  17.516  0.00  0.00    +0.000 OA
ATOM     26  H   UNL     1       8.864   9.113  16.772  0.00  0.00    +0.000 HD
ENDBRANCH  21  25
BRANCH  23  27
ATOM     27  O   UNL     1       8.483   5.205  20.111  0.00  0.00    +0.000 OA
ATOM     28  H   UNL     1       7.974   4.381  20.202  0.00  0.00    +0.000 HD
ENDBRANCH  23  27
ENDBRANCH  18  19
ENDBRANCH   3  18
TORSDOF 6
ENDMDL
MODEL 2
REMARK VINA RESULT:      -7.8      0.270      1.673
REMARK  Name = 
REMARK  7 active torsions:
REMARK  status: ('A' for Active; 'I' for Inactive)
REMARK    1  A    between atoms: C_1  and  O_2
REMARK    2  A    between atoms: O_2  and  N_3
REMARK    3  A    between atoms: C_4  and  C_6
REMARK    4  A    between atoms: N_8  and  C_9
REMARK    5  A    between atoms: C_9  and  C_10
REMARK    6  A    between atoms: C_12  and  O_13
REMARK    7  A    between atoms: C_15  and  O_16
REMARK                            x       y       z     vdW  Elec       q    Type
REMARK                         _______ _______ _______ _____ _____    ______ ____
ROOT
ATOM      1  C   UNL     1       2.129   6.627  19.460  0.00  0.00    +0.000 A 
ATOM      2  C   UNL     1       3.072   6.602  18.508  0.00  0.00    +0.000 A 
ATOM      3  N   UNL     1       3.559   5.477  17.853  0.00  0.00    +0.000 N 
ATOM      4  C   UNL     1       3.074   4.200  18.229  0.00  0.00    +0.000 A 
ATOM      5  C   UNL     1       3.576   2.992  17.718  0.00  0.00    +0.000 A 
ATOM      6  C   UNL     1       3.102   1.752  18.165  0.00  0.00    +0.000 A 
ATOM      7  C   UNL     1       2.092   1.685  19.118  0.00  0.00    +0.000 A 
ATOM      8  C   UNL     1       1.562   2.861  19.634  0.00  0.00    +0.000 A 
ATOM      9  C   UNL     1       2.057   4.101  19.201  0.00  0.00    +0.000 A 
ATOM     10  C   UNL     1       1.527   5.329  19.839  0.00  0.00    +0.000 A 
ATOM     11  O   UNL     1       0.638   5.263  20.683  0.00  0.00    +0.000 OA
ENDROOT
BRANCH   1  13
ATOM     12  N   UNL     1       1.751   7.900  21.459  0.00  0.00    +0.000 N 
ATOM     13  C   UNL     1       1.769   7.928  20.089  0.00  0.00    +0.000 C 
ATOM     14  O   UNL     1       1.510   8.918  19.408  0.00  0.00    +0.000 OA
ATOM     15  H   UNL     1       2.172   7.132  21.984  0.00  0.00    +0.000 HD
BRANCH  12  17
ATOM     16  C   UNL     1       0.250   9.205  22.583  0.00  0.00    +0.000 C 
ATOM     17  O   UNL     1       1.600   9.128  22.133  0.00  0.00    +0.000 OA
ENDBRANCH  12  17
ENDBRANCH   1  13
BRANCH   3  18
ATOM     18  C   UNL     1       4.719   5.584  16.941  0.00  0.00    +0.000 C 
BRANCH  18  19
ATOM     19  C   UNL     1       5.975   6.114  17.613  0.00  0.00    +0.000 A 
ATOM     20  C   UNL     1       6.645   5.423  18.637  0.00  0.00    +0.000 A 
ATOM     21  C   UNL     1       7.833   5.920  19.167  0.00  0.00    +0.000 A 
ATOM     22  C   UNL     1       8.368   7.117  18.716  0.00  0.00    +0.000 A 
ATOM     23  C   UNL     1       7.690   7.826  17.731  0.00  0.00    +0.000 A 
ATOM     24  C   UNL     1       6.501   7.344  17.186  0.00  0.00    +0.000 A 
BRANCH  21  25
ATOM     25  O   UNL     1       8.513   5.236  20.131  0.00  0.00    +0.000 OA
ATOM     26  H   UNL     1       8.232   5.564  21.002  0.00  0.00    +0.000 HD
ENDBRANCH  21  25
BRANCH  23  27
ATOM     27  O   UNL     1       8.172   9.008  17.252  0.00  0.00    +0.000 OA
ATOM     28  H   UNL     1       7.866   9.721  17.838  0.00  0.00    +0.000 HD
ENDBRANCH  23  27
ENDBRANCH  18  19
ENDBRANCH   3  18
TORSDOF 6
ENDMDL
MODEL 3
REMARK VINA RESULT:      -7.5      0.948      1.157
REMARK  Name = 
REMARK  7 active torsions:
REMARK  status: ('A' for Active; 'I' for Inactive)
REMARK    1  A    between atoms: C_1  and  O_2
REMARK    2  A    between atoms: O_2  and  N_3
REMARK    3  A    between atoms: C_4  and  C_6
REMARK    4  A    between atoms: N_8  and  C_9
REMARK    5  A    between atoms: C_9  and  C_10
REMARK    6  A    between atoms: C_12  and  O_13
REMARK    7  A    between atoms: C_15  and  O_16
REMARK                            x       y       z     vdW  Elec       q    Type
REMARK                         _______ _______ _______ _____ _____    ______ ____
ROOT
ATOM      1  C   UNL     1       2.285   6.577  19.301  0.00  0.00    +0.000 A 
ATOM      2  C   UNL     1       3.224   6.584  18.346  0.00  0.00    +0.000 A 
ATOM      3  N   UNL     1       3.764   5.473  17.707  0.00  0.00    +0.000 N 
ATOM      4  C   UNL     1       3.344   4.180  18.106  0.00  0.00    +0.000 A 
ATOM      5  C   UNL     1       3.904   2.990  17.612  0.00  0.00    +0.000 A 
ATOM      6  C   UNL     1       3.493   1.736  18.081  0.00  0.00    +0.000 A 
ATOM      7  C   UNL     1       2.491   1.635  19.040  0.00  0.00    +0.000 A 
ATOM      8  C   UNL     1       1.905   2.792  19.539  0.00  0.00    +0.000 A 
ATOM      9  C   UNL     1       2.337   4.047  19.084  0.00  0.00    +0.000 A 
ATOM     10  C   UNL     1       1.749   5.258  19.704  0.00  0.00    +0.000 A 
ATOM     11  O   UNL     1       0.867   5.162  20.552  0.00  0.00    +0.000 OA
ENDROOT
BRANCH   1  13
ATOM     12  N   UNL     1       1.607   8.859  18.998  0.00  0.00    +0.000 N 
ATOM     13  C   UNL     1       1.863   7.870  19.910  0.00  0.00    +0.000 C 
ATOM     14  O   UNL     1       1.769   8.003  21.129  0.00  0.00    +0.000 OA
ATOM     15  H   UNL     1       1.491   8.654  18.004  0.00  0.00    +0.000 HD
BRANCH  12  17
ATOM     16  C   UNL     1      -0.116  10.324  18.673  0.00  0.00    +0.000 C 
ATOM     17  O   UNL     1       1.029  10.053  19.475  0.00  0.00    +0.000 OA
ENDBRANCH  12  17
ENDBRANCH   1  13
BRANCH   3  18
ATOM     18  C   UNL     1       4.915   5.622  16.789  0.00  0.00    +0.000 C 
BRANCH  18  19
ATOM     19  C   UNL     1       6.154   6.196  17.454  0.00  0.00    +0.000 A 
ATOM     20  C   UNL     1       6.676   7.463  17.140  0.00  0.00    +0.000 A 
ATOM     21  C   UNL     1       7.772   7.969  17.833  0.00  0.00    +0.000 A 
ATOM     22  C   UNL     1       8.388   7.229  18.830  0.00  0.00    +0.000 A 
ATOM     23  C   UNL     1       7.903   5.959  19.120  0.00  0.00    +0.000 A 
ATOM     24  C   UNL     1       6.806   5.435  18.439  0.00  0.00    +0.000 A 
BRANCH  21  25
ATOM     25  O   UNL     1       8.259   9.214  17.564  0.00  0.00    +0.000 OA
ATOM     26  H   UNL     1       8.986   9.404  18.181  0.00  0.00    +0.000 HD
ENDBRANCH  21  25
BRANCH  23  27
ATOM     27  O   UNL     1       8.472   5.188  20.090  0.00  0.00    +0.000 OA
ATOM     28  H   UNL     1       9.204   5.690  20.487  0.00  0.00    +0.000 HD
ENDBRANCH  23  27
ENDBRANCH  18  19
ENDBRANCH   3  18
TORSDOF 6
ENDMDL
MODEL 4
REMARK VINA RESULT:      -7.5      2.165      2.677
REMARK  Name = 
REMARK  7 active torsions:
REMARK  status: ('A' for Active; 'I' for Inactive)
REMARK    1  A    between atoms: C_1  and  O_2
REMARK    2  A    between atoms: O_2  and  N_3
REMARK    3  A    between atoms: C_4  and  C_6
REMARK    4  A    between atoms: N_8  and  C_9
REMARK    5  A    between atoms: C_9  and  C_10
REMARK    6  A    between atoms: C_12  and  O_13
REMARK    7  A    between atoms: C_15  and  O_16
REMARK                            x       y       z     vdW  Elec       q    Type
REMARK                         _______ _______ _______ _____ _____    ______ ____
ROOT
ATOM      1  C   UNL     1       2.250   6.915  18.645  0.00  0.00    +0.000 A 
ATOM      2  C   UNL     1       2.657   6.050  17.706  0.00  0.00    +0.000 A 
ATOM      3  N   UNL     1       2.850   4.682  17.868  0.00  0.00    +0.000 N 
ATOM      4  C   UNL     1       2.655   4.108  19.148  0.00  0.00    +0.000 A 
ATOM      5  C   UNL     1       2.932   2.764  19.451  0.00  0.00    +0.000 A 
ATOM      6  C   UNL     1       2.777   2.258  20.748  0.00  0.00    +0.000 A 
ATOM      7  C   UNL     1       2.316   3.075  21.774  0.00  0.00    +0.000 A 
ATOM      8  C   UNL     1       2.019   4.406  21.506  0.00  0.00    +0.000 A 
ATOM      9  C   UNL     1       2.199   4.915  20.210  0.00  0.00    +0.000 A 
ATOM     10  C   UNL     1       1.954   6.359  19.985  0.00  0.00    +0.000 A 
ATOM     11  O   UNL     1       1.551   7.076  20.895  0.00  0.00    +0.000 OA
ENDROOT
BRANCH   1  13
ATOM     12  N   UNL     1       1.371   9.087  19.166  0.00  0.00    +0.000 N 
ATOM     13  C   UNL     1       2.149   8.361  18.302  0.00  0.00    +0.000 C 
ATOM     14  O   UNL     1       2.721   8.827  17.319  0.00  0.00    +0.000 OA
ATOM     15  H   UNL     1       1.092   8.715  20.076  0.00  0.00    +0.000 HD
BRANCH  12  17
ATOM     16  C   UNL     1       0.035  10.885  18.723  0.00  0.00    +0.000 C 
ATOM     17  O   UNL     1       1.370  10.488  19.021  0.00  0.00    +0.000 OA
ENDBRANCH  12  17
ENDBRANCH   1  13
BRANCH   3  18
ATOM     18  C   UNL     1       3.462   3.879  16.786  0.00  0.00    +0.000 C 
BRANCH  18  19
ATOM     19  C   UNL     1       4.920   4.217  16.527  0.00  0.00    +0.000 A 
ATOM     20  C   UNL     1       5.418   4.533  15.251  0.00  0.00    +0.000 A 
ATOM     21  C   UNL     1       6.749   4.908  15.082  0.00  0.00    +0.000 A 
ATOM     22  C   UNL     1       7.617   4.953  16.162  0.00  0.00    +0.000 A 
ATOM     23  C   UNL     1       7.143   4.603  17.420  0.00  0.00    +0.000 A 
ATOM     24  C   UNL     1       5.814   4.229  17.610  0.00  0.00    +0.000 A 
BRANCH  21  25
ATOM     25  O   UNL     1       7.230   5.257  13.856  0.00  0.00    +0.000 OA
ATOM     26  H   UNL     1       7.473   6.198  13.873  0.00  0.00    +0.000 HD
ENDBRANCH  21  25
BRANCH  23  27
ATOM     27  O   UNL     1       7.955   4.631  18.515  0.00  0.00    +0.000 OA
ATOM     28  H   UNL     1       8.713   4.046  18.347  0.00  0.00    +0.000 HD
ENDBRANCH  23  27
ENDBRANCH  18  19
ENDBRANCH   3  18
TORSDOF 6
ENDMDL
MODEL 5
REMARK VINA RESULT:      -7.4      1.271      1.423
REMARK  Name = 
REMARK  7 active torsions:
REMARK  status: ('A' for Active; 'I' for Inactive)
REMARK    1  A    between atoms: C_1  and  O_2
REMARK    2  A    between atoms: O_2  and  N_3
REMARK    3  A    between atoms: C_4  and  C_6
REMARK    4  A    between atoms: N_8  and  C_9
REMARK    5  A    between atoms: C_9  and  C_10
REMARK    6  A    between atoms: C_12  and  O_13
REMARK    7  A    between atoms: C_15  and  O_16
REMARK                            x       y       z     vdW  Elec       q    Type
REMARK                         _______ _______ _______ _____ _____    ______ ____
ROOT
ATOM      1  C   UNL     1       2.060   7.314  19.314  0.00  0.00    +0.000 A 
ATOM      2  C   UNL     1       2.953   6.875  18.417  0.00  0.00    +0.000 A 
ATOM      3  N   UNL     1       3.501   5.599  18.348  0.00  0.00    +0.000 N 
ATOM      4  C   UNL     1       3.146   4.646  19.334  0.00  0.00    +0.000 A 
ATOM      5  C   UNL     1       3.723   3.368  19.430  0.00  0.00    +0.000 A 
ATOM      6  C   UNL     1       3.379   2.483  20.459  0.00  0.00    +0.000 A 
ATOM      7  C   UNL     1       2.427   2.839  21.407  0.00  0.00    +0.000 A 
ATOM      8  C   UNL     1       1.825   4.089  21.334  0.00  0.00    +0.000 A 
ATOM      9  C   UNL     1       2.191   4.983  20.316  0.00  0.00    +0.000 A 
ATOM     10  C   UNL     1       1.590   6.337  20.323  0.00  0.00    +0.000 A 
ATOM     11  O   UNL     1       0.754   6.647  21.165  0.00  0.00    +0.000 OA
ENDROOT
BRANCH   1  13
ATOM     12  N   UNL     1       1.258   9.252  20.480  0.00  0.00    +0.000 N 
ATOM     13  C   UNL     1       1.622   8.737  19.264  0.00  0.00    +0.000 C 
ATOM     14  O   UNL     1       1.596   9.361  18.205  0.00  0.00    +0.000 OA
ATOM     15  H   UNL     1       1.492   8.777  21.354  0.00  0.00    +0.000 HD
BRANCH  12  17
ATOM     16  C   UNL     1      -0.403  10.809  20.659  0.00  0.00    +0.000 C 
ATOM     17  O   UNL     1       1.007  10.636  20.552  0.00  0.00    +0.000 OA
ENDBRANCH  12  17
ENDBRANCH   1  13
BRANCH   3  18
ATOM     18  C   UNL     1       4.602   5.305  17.404  0.00  0.00    +0.000 C 
BRANCH  18  19
ATOM     19  C   UNL     1       5.930   5.926  17.804  0.00  0.00    +0.000 A 
ATOM     20  C   UNL     1       6.429   7.106  17.226  0.00  0.00    +0.000 A 
ATOM     21  C   UNL     1       7.617   7.671  17.683  0.00  0.00    +0.000 A 
ATOM     22  C   UNL     1       8.345   7.072  18.699  0.00  0.00    +0.000 A 
ATOM     23  C   UNL     1       7.879   5.884  19.248  0.00  0.00    +0.000 A 
ATOM     24  C   UNL     1       6.691   5.304  18.807  0.00  0.00    +0.000 A 
BRANCH  21  25
ATOM     25  O   UNL     1       8.087   8.838  17.158  0.00  0.00    +0.000 OA
ATOM     26  H   UNL     1       8.130   9.503  17.865  0.00  0.00    +0.000 HD
ENDBRANCH  21  25
BRANCH  23  27
ATOM     27  O   UNL     1       8.557   5.253  20.249  0.00  0.00    +0.000 OA
ATOM     28  H   UNL     1       8.093   4.423  20.455  0.00  0.00    +0.000 HD
ENDBRANCH  23  27
ENDBRANCH  18  19
ENDBRANCH   3  18
TORSDOF 6
ENDMDL
MODEL 6
REMARK VINA RESULT:      -7.4      2.128      5.590
REMARK  Name = 
REMARK  7 active torsions:
REMARK  status: ('A' for Active; 'I' for Inactive)
REMARK    1  A    between atoms: C_1  and  O_2
REMARK    2  A    between atoms: O_2  and  N_3
REMARK    3  A    between atoms: C_4  and  C_6
REMARK    4  A    between atoms: N_8  and  C_9
REMARK    5  A    between atoms: C_9  and  C_10
REMARK    6  A    between atoms: C_12  and  O_13
REMARK    7  A    between atoms: C_15  and  O_16
REMARK                            x       y       z     vdW  Elec       q    Type
REMARK                         _______ _______ _______ _____ _____    ______ ____
ROOT
ATOM      1  C   UNL     1       4.282   5.759  17.812  0.00  0.00    +0.000 A 
ATOM      2  C   UNL     1       3.697   6.304  18.887  0.00  0.00    +0.000 A 
ATOM      3  N   UNL     1       2.707   5.725  19.674  0.00  0.00    +0.000 N 
ATOM      4  C   UNL     1       2.202   4.452  19.314  0.00  0.00    +0.000 A 
ATOM      5  C   UNL     1       1.126   3.826  19.967  0.00  0.00    +0.000 A 
ATOM      6  C   UNL     1       0.626   2.590  19.536  0.00  0.00    +0.000 A 
ATOM      7  C   UNL     1       1.203   1.932  18.456  0.00  0.00    +0.000 A 
ATOM      8  C   UNL     1       2.279   2.517  17.797  0.00  0.00    +0.000 A 
ATOM      9  C   UNL     1       2.761   3.766  18.217  0.00  0.00    +0.000 A 
ATOM     10  C   UNL     1       3.851   4.395  17.434  0.00  0.00    +0.000 A 
ATOM     11  O   UNL     1       4.354   3.811  16.480  0.00  0.00    +0.000 OA
ENDROOT
BRANCH   1  13
ATOM     12  N   UNL     1       6.491   6.692  17.708  0.00  0.00    +0.000 N 
ATOM     13  C   UNL     1       5.293   6.553  17.058  0.00  0.00    +0.000 C 
ATOM     14  O   UNL     1       5.037   7.032  15.956  0.00  0.00    +0.000 OA
ATOM     15  H   UNL     1       6.735   6.111  18.513  0.00  0.00    +0.000 HD
BRANCH  12  17
ATOM     16  C   UNL     1       7.901   8.489  17.643  0.00  0.00    +0.000 C 
ATOM     17  O   UNL     1       7.558   7.270  16.991  0.00  0.00    +0.000 OA
ENDBRANCH  12  17
ENDBRANCH   1  13
BRANCH   3  18
ATOM     18  C   UNL     1       2.035   6.512  20.732  0.00  0.00    +0.000 C 
BRANCH  18  19
ATOM     19  C   UNL     1       1.702   7.934  20.314  0.00  0.00    +0.000 A 
ATOM     20  C   UNL     1       1.822   8.392  18.990  0.00  0.00    +0.000 A 
ATOM     21  C   UNL     1       1.432   9.684  18.650  0.00  0.00    +0.000 A 
ATOM     22  C   UNL     1       0.941  10.556  19.609  0.00  0.00    +0.000 A 
ATOM     23  C   UNL     1       0.857  10.124  20.928  0.00  0.00    +0.000 A 
ATOM     24  C   UNL     1       1.239   8.834  21.289  0.00  0.00    +0.000 A 
BRANCH  21  25
ATOM     25  O   UNL     1       1.505  10.123  17.361  0.00  0.00    +0.000 OA
ATOM     26  H   UNL     1       1.171  11.035  17.323  0.00  0.00    +0.000 HD
ENDBRANCH  21  25
BRANCH  23  27
ATOM     27  O   UNL     1       0.381  10.941  21.911  0.00  0.00    +0.000 OA
ATOM     28  H   UNL     1      -0.403  11.404  21.569  0.00  0.00    +0.000 HD
ENDBRANCH  23  27
ENDBRANCH  18  19
ENDBRANCH   3  18
TORSDOF 6
ENDMDL
MODEL 7
REMARK VINA RESULT:      -7.4      2.452      5.960
REMARK  Name = 
REMARK  7 active torsions:
REMARK  status: ('A' for Active; 'I' for Inactive)
REMARK    1  A    between atoms: C_1  and  O_2
REMARK    2  A    between atoms: O_2  and  N_3
REMARK    3  A    between atoms: C_4  and  C_6
REMARK    4  A    between atoms: N_8  and  C_9
REMARK    5  A    between atoms: C_9  and  C_10
REMARK    6  A    between atoms: C_12  and  O_13
REMARK    7  A    between atoms: C_15  and  O_16
REMARK                            x       y       z     vdW  Elec       q    Type
REMARK                         _______ _______ _______ _____ _____    ______ ____
ROOT
ATOM      1  C   UNL     1       5.030   6.034  17.843  0.00  0.00    +0.000 A 
ATOM      2  C   UNL     1       3.924   6.783  17.730  0.00  0.00    +0.000 A 
ATOM      3  N   UNL     1       2.734   6.613  18.429  0.00  0.00    +0.000 N 
ATOM      4  C   UNL     1       2.614   5.524  19.326  0.00  0.00    +0.000 A 
ATOM      5  C   UNL     1       1.424   5.190  19.994  0.00  0.00    +0.000 A 
ATOM      6  C   UNL     1       1.341   4.068  20.828  0.00  0.00    +0.000 A 
ATOM      7  C   UNL     1       2.453   3.261  21.038  0.00  0.00    +0.000 A 
ATOM      8  C   UNL     1       3.650   3.570  20.404  0.00  0.00    +0.000 A 
ATOM      9  C   UNL     1       3.722   4.682  19.550  0.00  0.00    +0.000 A 
ATOM     10  C   UNL     1       4.991   4.928  18.826  0.00  0.00    +0.000 A 
ATOM     11  O   UNL     1       5.969   4.209  19.012  0.00  0.00    +0.000 OA
ENDROOT
BRANCH   1  13
ATOM     12  N   UNL     1       6.625   5.270  16.222  0.00  0.00    +0.000 N 
ATOM     13  C   UNL     1       6.200   6.335  16.971  0.00  0.00    +0.000 C 
ATOM     14  O   UNL     1       6.717   7.450  16.957  0.00  0.00    +0.000 OA
ATOM     15  H   UNL     1       6.049   4.434  16.103  0.00  0.00    +0.000 HD
BRANCH  12  17
ATOM     16  C   UNL     1       7.153   4.921  14.026  0.00  0.00    +0.000 C 
ATOM     17  O   UNL     1       7.606   5.515  15.240  0.00  0.00    +0.000 OA
ENDBRANCH  12  17
ENDBRANCH   1  13
BRANCH   3  18
ATOM     18  C   UNL     1       1.540   7.415  18.079  0.00  0.00    +0.000 C 
BRANCH  18  19
ATOM     19  C   UNL     1       1.600   8.848  18.580  0.00  0.00    +0.000 A 
ATOM     20  C   UNL     1       2.067   9.915  17.794  0.00  0.00    +0.000 A 
ATOM     21  C   UNL     1       2.031  11.220  18.278  0.00  0.00    +0.000 A 
ATOM     22  C   UNL     1       1.559  11.494  19.552  0.00  0.00    +0.000 A 
ATOM     23  C   UNL     1       1.133  10.440  20.351  0.00  0.00    +0.000 A 
ATOM     24  C   UNL     1       1.158   9.127  19.884  0.00  0.00    +0.000 A 
BRANCH  21  25
ATOM     25  O   UNL     1       2.441  12.267  17.506  0.00  0.00    +0.000 OA
ATOM     26  H   UNL     1       2.679  11.931  16.626  0.00  0.00    +0.000 HD
ENDBRANCH  21  25
BRANCH  23  27
ATOM     27  O   UNL     1       0.660  10.653  21.612  0.00  0.00    +0.000 OA
ATOM     28  H   UNL     1       1.400  10.951  22.168  0.00  0.00    +0.000 HD
ENDBRANCH  23  27
ENDBRANCH  18  19
ENDBRANCH   3  18
TORSDOF 6
ENDMDL
MODEL 8
REMARK VINA RESULT:      -7.4      2.174      2.967
REMARK  Name = 
REMARK  7 active torsions:
REMARK  status: ('A' for Active; 'I' for Inactive)
REMARK    1  A    between atoms: C_1  and  O_2
REMARK    2  A    between atoms: O_2  and  N_3
REMARK    3  A    between atoms: C_4  and  C_6
REMARK    4  A    between atoms: N_8  and  C_9
REMARK    5  A    between atoms: C_9  and  C_10
REMARK    6  A    between atoms: C_12  and  O_13
REMARK    7  A    between atoms: C_15  and  O_16
REMARK                            x       y       z     vdW  Elec       q    Type
REMARK                         _______ _______ _______ _____ _____    ______ ____
ROOT
ATOM      1  C   UNL     1       2.198   6.954  18.744  0.00  0.00    +0.000 A 
ATOM      2  C   UNL     1       2.622   6.127  17.778  0.00  0.00    +0.000 A 
ATOM      3  N   UNL     1       2.843   4.759  17.896  0.00  0.00    +0.000 N 
ATOM      4  C   UNL     1       2.659   4.141  19.157  0.00  0.00    +0.000 A 
ATOM      5  C   UNL     1       2.963   2.794  19.418  0.00  0.00    +0.000 A 
ATOM      6  C   UNL     1       2.818   2.244  20.697  0.00  0.00    +0.000 A 
ATOM      7  C   UNL     1       2.340   3.018  21.749  0.00  0.00    +0.000 A 
ATOM      8  C   UNL     1       2.016   4.350  21.522  0.00  0.00    +0.000 A 
ATOM      9  C   UNL     1       2.187   4.904  20.244  0.00  0.00    +0.000 A 
ATOM     10  C   UNL     1       1.912   6.349  20.065  0.00  0.00    +0.000 A 
ATOM     11  O   UNL     1       1.495   7.028  20.997  0.00  0.00    +0.000 OA
ENDROOT
BRANCH   1  13
ATOM     12  N   UNL     1       1.278   9.090  19.335  0.00  0.00    +0.000 N 
ATOM     13  C   UNL     1       2.067   8.408  18.447  0.00  0.00    +0.000 C 
ATOM     14  O   UNL     1       2.627   8.915  17.477  0.00  0.00    +0.000 OA
ATOM     15  H   UNL     1       1.009   8.684  20.234  0.00  0.00    +0.000 HD
BRANCH  12  17
ATOM     16  C   UNL     1      -0.056  10.865  18.798  0.00  0.00    +0.000 C 
ATOM     17  O   UNL     1       1.249  10.495  19.235  0.00  0.00    +0.000 OA
ENDBRANCH  12  17
ENDBRANCH   1  13
BRANCH   3  18
ATOM     18  C   UNL     1       3.471   4.004  16.790  0.00  0.00    +0.000 C 
BRANCH  18  19
ATOM     19  C   UNL     1       4.940   4.332  16.585  0.00  0.00    +0.000 A 
ATOM     20  C   UNL     1       5.878   4.331  17.633  0.00  0.00    +0.000 A 
ATOM     21  C   UNL     1       7.226   4.568  17.376  0.00  0.00    +0.000 A 
ATOM     22  C   UNL     1       7.670   4.833  16.090  0.00  0.00    +0.000 A 
ATOM     23  C   UNL     1       6.744   4.875  15.056  0.00  0.00    +0.000 A 
ATOM     24  C   UNL     1       5.391   4.638  15.291  0.00  0.00    +0.000 A 
BRANCH  21  25
ATOM     25  O   UNL     1       8.149   4.527  18.379  0.00  0.00    +0.000 OA
ATOM     26  H   UNL     1       7.843   3.904  19.059  0.00  0.00    +0.000 HD
ENDBRANCH  21  25
BRANCH  23  27
ATOM     27  O   UNL     1       7.127   5.132  13.772  0.00  0.00    +0.000 OA
ATOM     28  H   UNL     1       6.479   4.723  13.174  0.00  0.00    +0.000 HD
ENDBRANCH  23  27
ENDBRANCH  18  19
ENDBRANCH   3  18
TORSDOF 6
ENDMDL
MODEL 9
REMARK VINA RESULT:      -7.3      2.175      5.779
REMARK  Name = 
REMARK  7 active torsions:
REMARK  status: ('A' for Active; 'I' for Inactive)
REMARK    1  A    between atoms: C_1  and  O_2
REMARK    2  A    between atoms: O_2  and  N_3
REMARK    3  A    between atoms: C_4  and  C_6
REMARK    4  A    between atoms: N_8  and  C_9
REMARK    5  A    between atoms: C_9  and  C_10
REMARK    6  A    between atoms: C_12  and  O_13
REMARK    7  A    between atoms: C_15  and  O_16
REMARK                            x       y       z     vdW  Elec       q    Type
REMARK                         _______ _______ _______ _____ _____    ______ ____
ROOT
ATOM      1  C   UNL     1       4.320   5.824  17.787  0.00  0.00    +0.000 A 
ATOM      2  C   UNL     1       3.784   6.401  18.872  0.00  0.00    +0.000 A 
ATOM      3  N   UNL     1       2.794   5.867  19.690  0.00  0.00    +0.000 N 
ATOM      4  C   UNL     1       2.231   4.610  19.356  0.00  0.00    +0.000 A 
ATOM      5  C   UNL     1       1.151   4.031  20.042  0.00  0.00    +0.000 A 
ATOM      6  C   UNL     1       0.593   2.812  19.637  0.00  0.00    +0.000 A 
ATOM      7  C   UNL     1       1.117   2.123  18.549  0.00  0.00    +0.000 A 
ATOM      8  C   UNL     1       2.195   2.660  17.856  0.00  0.00    +0.000 A 
ATOM      9  C   UNL     1       2.735   3.894  18.251  0.00  0.00    +0.000 A 
ATOM     10  C   UNL     1       3.828   4.474  17.435  0.00  0.00    +0.000 A 
ATOM     11  O   UNL     1       4.283   3.863  16.473  0.00  0.00    +0.000 OA
ENDROOT
BRANCH   1  13
ATOM     12  N   UNL     1       6.496   6.830  17.687  0.00  0.00    +0.000 N 
ATOM     13  C   UNL     1       5.339   6.572  17.000  0.00  0.00    +0.000 C 
ATOM     14  O   UNL     1       5.124   6.918  15.840  0.00  0.00    +0.000 OA
ATOM     15  H   UNL     1       6.718   6.350  18.561  0.00  0.00    +0.000 HD
BRANCH  12  17
ATOM     16  C   UNL     1       7.965   8.578  17.609  0.00  0.00    +0.000 C 
ATOM     17  O   UNL     1       7.578   7.369  16.962  0.00  0.00    +0.000 OA
ENDBRANCH  12  17
ENDBRANCH   1  13
BRANCH   3  18
ATOM     18  C   UNL     1       2.180   6.688  20.757  0.00  0.00    +0.000 C 
BRANCH  18  19
ATOM     19  C   UNL     1       1.557   7.978  20.250  0.00  0.00    +0.000 A 
ATOM     20  C   UNL     1       0.644   8.736  21.004  0.00  0.00    +0.000 A 
ATOM     21  C   UNL     1       0.161   9.949  20.521  0.00  0.00    +0.000 A 
ATOM     22  C   UNL     1       0.548  10.424  19.277  0.00  0.00    +0.000 A 
ATOM     23  C   UNL     1       1.418   9.661  18.509  0.00  0.00    +0.000 A 
ATOM     24  C   UNL     1       1.916   8.447  18.976  0.00  0.00    +0.000 A 
BRANCH  21  25
ATOM     25  O   UNL     1      -0.691  10.711  21.263  0.00  0.00    +0.000 OA
ATOM     26  H   UNL     1      -0.551  11.646  21.036  0.00  0.00    +0.000 HD
ENDBRANCH  21  25
BRANCH  23  27
ATOM     27  O   UNL     1       1.830  10.082  17.279  0.00  0.00    +0.000 OA
ATOM     28  H   UNL     1       2.516  10.760  17.403  0.00  0.00    +0.000 HD
ENDBRANCH  23  27
ENDBRANCH  18  19
ENDBRANCH   3  18
TORSDOF 6
ENDMDL
