MODEL 1
REMARK VINA RESULT:      -7.2      0.000      0.000
REMARK  Name = 
REMARK  13 active torsions:
REMARK  status: ('A' for Active; 'I' for Inactive)
REMARK    1  A    between atoms: C_1  and  C_2
REMARK    2  A    between atoms: C_2  and  O_3
REMARK    3  A    between atoms: O_3  and  C_4
REMARK    4  A    between atoms: C_4  and  C_6
REMARK    5  A    between atoms: C_8  and  C_9
REMARK    6  A    between atoms: N_11  and  CA_12
REMARK    7  A    between atoms: CA_12  and  C_13
REMARK    8  A    between atoms: CA_12  and  CB_23
REMARK    9  A    between atoms: CA_19  and  C_20
REMARK   10  A    between atoms: C_20  and  OXT_22
REMARK   11  A    between atoms: CB_23  and  CG2_24
REMARK   12  A    between atoms: CB_23  and  CG1_25
REMARK   13  A    between atoms: CG1_25  and  CD1_26
REMARK                            x       y       z     vdW  Elec       q    Type
REMARK                         _______ _______ _______ _____ _____    ______ ____
ROOT
ATOM      1  CA  ILE A   1       3.096   6.322  18.279  0.00  0.00    +0.000 C 
ENDROOT
BRANCH   1   2
ATOM      2  C   ILE A   1       2.308   4.992  18.180  0.00  0.00    +0.000 C 
ATOM      3  O   ILE A   1       1.284   4.874  17.497  0.00  0.00    +0.000 OA
ATOM      4  N   PRO A   2       2.764   3.894  18.874  0.00  0.00    +0.000 N 
ATOM      5  CD  PRO A   2       3.745   3.849  19.937  0.00  0.00    +0.000 C 
ATOM      6  CG  PRO A   2       4.422   2.507  19.747  0.00  0.00    +0.000 C 
ATOM      7  CB  PRO A   2       3.338   1.606  19.157  0.00  0.00    +0.000 C 
ATOM      8  CA  PRO A   2       2.290   2.546  18.542  0.00  0.00    +0.000 C 
BRANCH   8   9
ATOM      9  C   PRO A   2       0.867   2.260  19.064  0.00  0.00    +0.000 C 
ATOM     10  O   PRO A   2      -0.040   1.787  18.393  0.00  0.00    +0.000 OA
BRANCH   9  11
ATOM     11  OXT PRO A   2       0.659   2.642  20.348  0.00  0.00    +0.000 OA
ATOM     12  HXT PRO A   2      -0.167   3.181  20.450  0.00  0.00    +0.000 HD
ENDBRANCH   9  11
ENDBRANCH   8   9
ENDBRANCH   1   2
BRANCH   1  15
ATOM     13  C   UNK A   0       5.435   6.223  17.364  0.00  0.00    +0.000 C 
ATOM     14  O   UNK A   0       5.983   6.024  18.436  0.00  0.00    +0.000 OA
ATOM     15  N   ILE A   1       4.085   6.452  17.193  0.00  0.00    +0.000 N 
ATOM     16  H   ILE A   1       3.727   6.481  16.246  0.00  0.00    +0.000 HD
BRANCH  13  19
ATOM     17  C   UNK A   0       6.835   4.981  15.614  0.00  0.00    +0.000 C 
ATOM     18  O   UNK A   0       7.629   6.013  16.211  0.00  0.00    +0.000 OA
ATOM     19  C   UNK A   0       6.213   6.264  16.103  0.00  0.00    +0.000 C 
BRANCH  17  20
ATOM     20  C   UNK A   0       7.010   4.761  14.170  0.00  0.00    +0.000 C 
ATOM     21  O   UNK A   0       7.681   5.524  13.490  0.00  0.00    +0.000 OA
BRANCH  20  22
ATOM     22  O   UNK A   0       6.234   3.742  13.724  0.00  0.00    +0.000 OA
BRANCH  22  24
ATOM     23  C   UNK A   0       4.825   3.296  11.785  0.00  0.00    +0.000 C 
ATOM     24  C   UNK A   0       6.230   3.514  12.307  0.00  0.00    +0.000 C 
ENDBRANCH  22  24
ENDBRANCH  20  22
ENDBRANCH  17  20
ENDBRANCH  13  19
ENDBRANCH   1  15
BRANCH   1  25
ATOM     25  CB  ILE A   1       2.216   7.589  18.474  0.00  0.00    +0.000 C 
ATOM     26  CG2 ILE A   1       1.947   7.947  19.941  0.00  0.00    +0.000 C 
BRANCH  25  27
ATOM     27  CG1 ILE A   1       2.778   8.835  17.741  0.00  0.00    +0.000 C 
ATOM     28  CD1 ILE A   1       1.973  10.111  17.952  0.00  0.00    +0.000 C 
ENDBRANCH  25  27
ENDBRANCH   1  25
TORSDOF 10
ENDMDL
MODEL 2
REMARK VINA RESULT:      -7.2      1.807      2.317
REMARK  Name = 
REMARK  13 active torsions:
REMARK  status: ('A' for Active; 'I' for Inactive)
REMARK    1  A    between atoms: C_1  and  C_2
REMARK    2  A    between atoms: C_2  and  O_3
REMARK    3  A    between atoms: O_3  and  C_4
REMARK    4  A    between atoms: C_4  and  C_6
REMARK    5  A    between atoms: C_8  and  C_9
REMARK    6  A    between atoms: N_11  and  CA_12
REMARK    7  A    between atoms: CA_12  and  C_13
REMARK    8  A    between atoms: CA_12  and  CB_23
REMARK    9  A    between atoms: CA_19  and  C_20
REMARK   10  A    between atoms: C_20  and  OXT_22
REMARK   11  A    between atoms: CB_23  and  CG2_24
REMARK   12  A    between atoms: CB_23  and  CG1_25
REMARK   13  A    between atoms: CG1_25  and  CD1_26
REMARK                            x       y       z     vdW  Elec       q    Type
REMARK                         _______ _______ _______ _____ _____    ______ ____
ROOT
ATOM      1  CA  ILE A   1       4.269   6.092  18.193  0.00  0.00    +0.000 C 
ENDROOT
BRANCH   1   2
ATOM      2  C   ILE A   1       4.372   4.717  18.897  0.00  0.00    +0.000 C 
ATOM      3  O   ILE A   1       5.304   4.424  19.655  0.00  0.00    +0.000 OA
ATOM      4  N   PRO A   2       3.385   3.781  18.680  0.00  0.00    +0.000 N 
ATOM      5  CD  PRO A   2       2.369   3.772  17.648  0.00  0.00    +0.000 C 
ATOM      6  CG  PRO A   2       1.185   3.102  18.314  0.00  0.00    +0.000 C 
ATOM      7  CB  PRO A   2       1.803   2.126  19.314  0.00  0.00    +0.000 C 
ATOM      8  CA  PRO A   2       3.231   2.631  19.576  0.00  0.00    +0.000 C 
BRANCH   8   9
ATOM      9  C   PRO A   2       4.292   1.537  19.343  0.00  0.00    +0.000 C 
ATOM     10  O   PRO A   2       5.236   1.310  20.089  0.00  0.00    +0.000 OA
BRANCH   9  11
ATOM     11  OXT PRO A   2       4.144   0.857  18.180  0.00  0.00    +0.000 OA
ATOM     12  HXT PRO A   2       3.348   0.265  18.189  0.00  0.00    +0.000 HD
ENDBRANCH   9  11
ENDBRANCH   8   9
ENDBRANCH   1   2
BRANCH   1  15
ATOM     13  C   UNK A   0       6.174   6.053  16.553  0.00  0.00    +0.000 C 
ATOM     14  O   UNK A   0       7.056   6.226  17.379  0.00  0.00    +0.000 OA
ATOM     15  N   ILE A   1       4.821   6.049  16.826  0.00  0.00    +0.000 N 
ATOM     16  H   ILE A   1       4.191   5.772  16.084  0.00  0.00    +0.000 HD
BRANCH  13  19
ATOM     17  C   UNK A   0       6.763   4.443  14.649  0.00  0.00    +0.000 C 
ATOM     18  O   UNK A   0       7.827   5.386  14.820  0.00  0.00    +0.000 OA
ATOM     19  C   UNK A   0       6.496   5.849  15.121  0.00  0.00    +0.000 C 
BRANCH  17  20
ATOM     20  C   UNK A   0       6.428   4.063  13.268  0.00  0.00    +0.000 C 
ATOM     21  O   UNK A   0       7.204   4.275  12.348  0.00  0.00    +0.000 OA
BRANCH  20  22
ATOM     22  O   UNK A   0       5.150   3.618  13.170  0.00  0.00    +0.000 OA
BRANCH  22  24
ATOM     23  C   UNK A   0       3.753   3.545  11.173  0.00  0.00    +0.000 C 
ATOM     24  C   UNK A   0       4.825   2.860  11.996  0.00  0.00    +0.000 C 
ENDBRANCH  22  24
ENDBRANCH  20  22
ENDBRANCH  17  20
ENDBRANCH  13  19
ENDBRANCH   1  15
BRANCH   1  25
ATOM     25  CB  ILE A   1       2.870   6.765  18.277  0.00  0.00    +0.000 C 
ATOM     26  CG2 ILE A   1       2.354   6.963  19.708  0.00  0.00    +0.000 C 
BRANCH  25  27
ATOM     27  CG1 ILE A   1       2.802   8.117  17.520  0.00  0.00    +0.000 C 
ATOM     28  CD1 ILE A   1       1.573   8.960  17.838  0.00  0.00    +0.000 C 
ENDBRANCH  25  27
ENDBRANCH   1  25
TORSDOF 10
ENDMDL
MODEL 3
REMARK VINA RESULT:      -7.1      1.884      3.532
REMARK  Name = 
REMARK  13 active torsions:
REMARK  status: ('A' for Active; 'I' for Inactive)
REMARK    1  A    between atoms: C_1  and  C_2
REMARK    2  A    between atoms: C_2  and  O_3
REMARK    3  A    between atoms: O_3  and  C_4
REMARK    4  A    between atoms: C_4  and  C_6
REMARK    5  A    between atoms: C_8  and  C_9
REMARK    6  A    between atoms: N_11  and  CA_12
REMARK    7  A    between atoms: CA_12  and  C_13
REMARK    8  A    between atoms: CA_12  and  CB_23
REMARK    9  A    between atoms: CA_19  and  C_20
REMARK   10  A    between atoms: C_20  and  OXT_22
REMARK   11  A    between atoms: CB_23  and  CG2_24
REMARK   12  A    between atoms: CB_23  and  CG1_25
REMARK   13  A    between atoms: CG1_25  and  CD1_26
REMARK                            x       y       z     vdW  Elec       q    Type
REMARK                         _______ _______ _______ _____ _____    ______ ____
ROOT
ATOM      1  CA  ILE A   1       5.652   4.534  17.772  0.00  0.00    +0.000 C 
ENDROOT
BRANCH   1   2
ATOM      2  C   ILE A   1       4.413   3.993  18.527  0.00  0.00    +0.000 C 
ATOM      3  O   ILE A   1       4.307   2.810  18.872  0.00  0.00    +0.000 OA
ATOM      4  N   PRO A   2       3.387   4.859  18.833  0.00  0.00    +0.000 N 
ATOM      5  CD  PRO A   2       3.147   6.186  18.307  0.00  0.00    +0.000 C 
ATOM      6  CG  PRO A   2       2.506   6.923  19.464  0.00  0.00    +0.000 C 
ATOM      7  CB  PRO A   2       1.742   5.846  20.235  0.00  0.00    +0.000 C 
ATOM      8  CA  PRO A   2       2.381   4.505  19.840  0.00  0.00    +0.000 C 
BRANCH   8   9
ATOM      9  C   PRO A   2       1.342   3.489  19.326  0.00  0.00    +0.000 C 
ATOM     10  O   PRO A   2       1.103   3.273  18.145  0.00  0.00    +0.000 OA
BRANCH   9  11
ATOM     11  OXT PRO A   2       0.636   2.872  20.304  0.00  0.00    +0.000 OA
ATOM     12  HXT PRO A   2      -0.299   3.200  20.357  0.00  0.00    +0.000 HD
ENDBRANCH   9  11
ENDBRANCH   8   9
ENDBRANCH   1   2
BRANCH   1  15
ATOM     13  C   UNK A   0       6.401   4.403  15.376  0.00  0.00    +0.000 C 
ATOM     14  O   UNK A   0       7.588   4.265  15.622  0.00  0.00    +0.000 OA
ATOM     15  N   ILE A   1       5.415   4.613  16.318  0.00  0.00    +0.000 N 
ATOM     16  H   ILE A   1       4.452   4.589  16.008  0.00  0.00    +0.000 HD
BRANCH  13  19
ATOM     17  C   UNK A   0       6.411   3.301  13.063  0.00  0.00    +0.000 C 
ATOM     18  O   UNK A   0       6.866   4.655  12.946  0.00  0.00    +0.000 OA
ATOM     19  C   UNK A   0       5.901   4.382  13.981  0.00  0.00    +0.000 C 
BRANCH  17  20
ATOM     20  C   UNK A   0       5.549   2.796  11.984  0.00  0.00    +0.000 C 
ATOM     21  O   UNK A   0       5.825   1.768  11.381  0.00  0.00    +0.000 OA
BRANCH  20  22
ATOM     22  O   UNK A   0       4.560   3.675  11.684  0.00  0.00    +0.000 OA
BRANCH  22  24
ATOM     23  C   UNK A   0       3.090   4.142   9.796  0.00  0.00    +0.000 C 
ATOM     24  C   UNK A   0       3.475   3.169  10.892  0.00  0.00    +0.000 C 
ENDBRANCH  22  24
ENDBRANCH  20  22
ENDBRANCH  17  20
ENDBRANCH  13  19
ENDBRANCH   1  15
BRANCH   1  25
ATOM     25  CB  ILE A   1       6.267   5.830  18.373  0.00  0.00    +0.000 C 
ATOM     26  CG2 ILE A   1       7.635   5.625  19.036  0.00  0.00    +0.000 C 
BRANCH  25  27
ATOM     27  CG1 ILE A   1       6.367   6.986  17.345  0.00  0.00    +0.000 C 
ATOM     28  CD1 ILE A   1       7.644   7.810  17.441  0.00  0.00    +0.000 C 
ENDBRANCH  25  27
ENDBRANCH   1  25
TORSDOF 10
ENDMDL
MODEL 4
REMARK VINA RESULT:      -6.7      1.817      2.422
REMARK  Name = 
REMARK  13 active torsions:
REMARK  status: ('A' for Active; 'I' for Inactive)
REMARK    1  A    between atoms: C_1  and  C_2
REMARK    2  A    between atoms: C_2  and  O_3
REMARK    3  A    between atoms: O_3  and  C_4
REMARK    4  A    between atoms: C_4  and  C_6
REMARK    5  A    between atoms: C_8  and  C_9
REMARK    6  A    between atoms: N_11  and  CA_12
REMARK    7  A    between atoms: CA_12  and  C_13
REMARK    8  A    between atoms: CA_12  and  CB_23
REMARK    9  A    between atoms: CA_19  and  C_20
REMARK   10  A    between atoms: C_20  and  OXT_22
REMARK   11  A    between atoms: CB_23  and  CG2_24
REMARK   12  A    between atoms: CB_23  and  CG1_25
REMARK   13  A    between atoms: CG1_25  and  CD1_26
REMARK                            x       y       z     vdW  Elec       q    Type
REMARK                         _______ _______ _______ _____ _____    ______ ____
ROOT
ATOM      1  CA  ILE A   1       4.230   6.086  18.023  0.00  0.00    +0.000 C 
ENDROOT
BRANCH   1   2
ATOM      2  C   ILE A   1       4.343   4.725  18.753  0.00  0.00    +0.000 C 
ATOM      3  O   ILE A   1       5.328   4.413  19.433  0.00  0.00    +0.000 OA
ATOM      4  N   PRO A   2       3.306   3.825  18.651  0.00  0.00    +0.000 N 
ATOM      5  CD  PRO A   2       2.201   3.832  17.715  0.00  0.00    +0.000 C 
ATOM      6  CG  PRO A   2       1.058   3.227  18.502  0.00  0.00    +0.000 C 
ATOM      7  CB  PRO A   2       1.725   2.251  19.470  0.00  0.00    +0.000 C 
ATOM      8  CA  PRO A   2       3.189   2.704  19.590  0.00  0.00    +0.000 C 
BRANCH   8   9
ATOM      9  C   PRO A   2       4.183   1.563  19.294  0.00  0.00    +0.000 C 
ATOM     10  O   PRO A   2       4.046   0.731  18.406  0.00  0.00    +0.000 OA
BRANCH   9  11
ATOM     11  OXT PRO A   2       5.228   1.497  20.155  0.00  0.00    +0.000 OA
ATOM     12  HXT PRO A   2       5.677   2.374  20.268  0.00  0.00    +0.000 HD
ENDBRANCH   9  11
ENDBRANCH   8   9
ENDBRANCH   1   2
BRANCH   1  15
ATOM     13  C   UNK A   0       5.960   5.923  16.207  0.00  0.00    +0.000 C 
ATOM     14  O   UNK A   0       6.925   6.079  16.936  0.00  0.00    +0.000 OA
ATOM     15  N   ILE A   1       4.642   5.984  16.611  0.00  0.00    +0.000 N 
ATOM     16  H   ILE A   1       3.930   5.716  15.943  0.00  0.00    +0.000 HD
BRANCH  13  19
ATOM     17  C   UNK A   0       6.312   4.242  14.305  0.00  0.00    +0.000 C 
ATOM     18  O   UNK A   0       7.412   5.160  14.338  0.00  0.00    +0.000 OA
ATOM     19  C   UNK A   0       6.130   5.669  14.757  0.00  0.00    +0.000 C 
BRANCH  17  20
ATOM     20  C   UNK A   0       5.830   3.832  12.977  0.00  0.00    +0.000 C 
ATOM     21  O   UNK A   0       4.683   3.442  12.813  0.00  0.00    +0.000 OA
BRANCH  20  22
ATOM     22  O   UNK A   0       6.836   3.808  12.067  0.00  0.00    +0.000 OA
BRANCH  22  24
ATOM     23  C   UNK A   0       6.619   1.615  11.026  0.00  0.00    +0.000 C 
ATOM     24  C   UNK A   0       7.479   2.543  11.860  0.00  0.00    +0.000 C 
ENDBRANCH  22  24
ENDBRANCH  20  22
ENDBRANCH  17  20
ENDBRANCH  13  19
ENDBRANCH   1  15
BRANCH   1  25
ATOM     25  CB  ILE A   1       2.875   6.823  18.224  0.00  0.00    +0.000 C 
ATOM     26  CG2 ILE A   1       2.421   6.913  19.686  0.00  0.00    +0.000 C 
BRANCH  25  27
ATOM     27  CG1 ILE A   1       2.860   8.242  17.599  0.00  0.00    +0.000 C 
ATOM     28  CD1 ILE A   1       1.663   9.097  17.996  0.00  0.00    +0.000 C 
ENDBRANCH  25  27
ENDBRANCH   1  25
TORSDOF 10
ENDMDL
MODEL 5
REMARK VINA RESULT:      -6.7      2.820      6.333
REMARK  Name = 
REMARK  13 active torsions:
REMARK  status: ('A' for Active; 'I' for Inactive)
REMARK    1  A    between atoms: C_1  and  C_2
REMARK    2  A    between atoms: C_2  and  O_3
REMARK    3  A    between atoms: O_3  and  C_4
REMARK    4  A    between atoms: C_4  and  C_6
REMARK    5  A    between atoms: C_8  and  C_9
REMARK    6  A    between atoms: N_11  and  CA_12
REMARK    7  A    between atoms: CA_12  and  C_13
REMARK    8  A    between atoms: CA_12  and  CB_23
REMARK    9  A    between atoms: CA_19  and  C_20
REMARK   10  A    between atoms: C_20  and  OXT_22
REMARK   11  A    between atoms: CB_23  and  CG2_24
REMARK   12  A    between atoms: CB_23  and  CG1_25
REMARK   13  A    between atoms: CG1_25  and  CD1_26
REMARK                            x       y       z     vdW  Elec       q    Type
REMARK                         _______ _______ _______ _____ _____    ______ ____
ROOT
ATOM      1  CA  ILE A   1       4.414   5.724  17.468  0.00  0.00    +0.000 C 
ENDROOT
BRANCH   1   2
ATOM      2  C   ILE A   1       4.361   4.827  18.729  0.00  0.00    +0.000 C 
ATOM      3  O   ILE A   1       5.125   4.981  19.689  0.00  0.00    +0.000 OA
ATOM      4  N   PRO A   2       3.423   3.821  18.793  0.00  0.00    +0.000 N 
ATOM      5  CD  PRO A   2       2.626   3.268  17.717  0.00  0.00    +0.000 C 
ATOM      6  CG  PRO A   2       1.328   2.880  18.393  0.00  0.00    +0.000 C 
ATOM      7  CB  PRO A   2       1.727   2.512  19.821  0.00  0.00    +0.000 C 
ATOM      8  CA  PRO A   2       3.084   3.190  20.073  0.00  0.00    +0.000 C 
BRANCH   8   9
ATOM      9  C   PRO A   2       4.156   2.195  20.560  0.00  0.00    +0.000 C 
ATOM     10  O   PRO A   2       4.240   1.764  21.702  0.00  0.00    +0.000 OA
BRANCH   9  11
ATOM     11  OXT PRO A   2       5.076   1.864  19.620  0.00  0.00    +0.000 OA
ATOM     12  HXT PRO A   2       4.656   1.586  18.765  0.00  0.00    +0.000 HD
ENDBRANCH   9  11
ENDBRANCH   8   9
ENDBRANCH   1   2
BRANCH   1  15
ATOM     13  C   UNK A   0       2.595   7.376  17.999  0.00  0.00    +0.000 C 
ATOM     14  O   UNK A   0       1.671   6.586  17.895  0.00  0.00    +0.000 OA
ATOM     15  N   ILE A   1       3.920   7.086  17.744  0.00  0.00    +0.000 N 
ATOM     16  H   ILE A   1       4.611   7.785  17.984  0.00  0.00    +0.000 HD
BRANCH  13  19
ATOM     17  C   UNK A   0       1.000   9.377  18.126  0.00  0.00    +0.000 C 
ATOM     18  O   UNK A   0       2.141   9.729  17.335  0.00  0.00    +0.000 OA
ATOM     19  C   UNK A   0       2.357   8.783  18.401  0.00  0.00    +0.000 C 
BRANCH  17  20
ATOM     20  C   UNK A   0       0.466  10.416  19.020  0.00  0.00    +0.000 C 
ATOM     21  O   UNK A   0       0.824  11.581  18.921  0.00  0.00    +0.000 OA
BRANCH  20  22
ATOM     22  O   UNK A   0      -0.307   9.882  19.999  0.00  0.00    +0.000 OA
BRANCH  22  24
ATOM     23  C   UNK A   0       0.931   8.911  21.861  0.00  0.00    +0.000 C 
ATOM     24  C   UNK A   0       0.134  10.093  21.348  0.00  0.00    +0.000 C 
ENDBRANCH  22  24
ENDBRANCH  20  22
ENDBRANCH  17  20
ENDBRANCH  13  19
ENDBRANCH   1  15
BRANCH   1  25
ATOM     25  CB  ILE A   1       5.769   5.697  16.705  0.00  0.00    +0.000 C 
ATOM     26  CG2 ILE A   1       5.631   5.517  15.188  0.00  0.00    +0.000 C 
BRANCH  25  27
ATOM     27  CG1 ILE A   1       6.650   6.940  16.992  0.00  0.00    +0.000 C 
ATOM     28  CD1 ILE A   1       7.674   6.748  18.103  0.00  0.00    +0.000 C 
ENDBRANCH  25  27
ENDBRANCH   1  25
TORSDOF 10
ENDMDL
MODEL 6
REMARK VINA RESULT:      -6.7      1.957      3.500
REMARK  Name = 
REMARK  13 active torsions:
REMARK  status: ('A' for Active; 'I' for Inactive)
REMARK    1  A    between atoms: C_1  and  C_2
REMARK    2  A    between atoms: C_2  and  O_3
REMARK    3  A    between atoms: O_3  and  C_4
REMARK    4  A    between atoms: C_4  and  C_6
REMARK    5  A    between atoms: C_8  and  C_9
REMARK    6  A    between atoms: N_11  and  CA_12
REMARK    7  A    between atoms: CA_12  and  C_13
REMARK    8  A    between atoms: CA_12  and  CB_23
REMARK    9  A    between atoms: CA_19  and  C_20
REMARK   10  A    between atoms: C_20  and  OXT_22
REMARK   11  A    between atoms: CB_23  and  CG2_24
REMARK   12  A    between atoms: CB_23  and  CG1_25
REMARK   13  A    between atoms: CG1_25  and  CD1_26
REMARK                            x       y       z     vdW  Elec       q    Type
REMARK                         _______ _______ _______ _____ _____    ______ ____
ROOT
ATOM      1  CA  ILE A   1       5.879   4.356  18.455  0.00  0.00    +0.000 C 
ENDROOT
BRANCH   1   2
ATOM      2  C   ILE A   1       4.746   3.858  19.386  0.00  0.00    +0.000 C 
ATOM      3  O   ILE A   1       4.837   2.817  20.048  0.00  0.00    +0.000 OA
ATOM      4  N   PRO A   2       3.593   4.602  19.490  0.00  0.00    +0.000 N 
ATOM      5  CD  PRO A   2       3.137   5.675  18.631  0.00  0.00    +0.000 C 
ATOM      6  CG  PRO A   2       2.384   6.594  19.570  0.00  0.00    +0.000 C 
ATOM      7  CB  PRO A   2       1.809   5.669  20.641  0.00  0.00    +0.000 C 
ATOM      8  CA  PRO A   2       2.659   4.389  20.601  0.00  0.00    +0.000 C 
BRANCH   8   9
ATOM      9  C   PRO A   2       1.801   3.119  20.434  0.00  0.00    +0.000 C 
ATOM     10  O   PRO A   2       1.591   2.298  21.317  0.00  0.00    +0.000 OA
BRANCH   9  11
ATOM     11  OXT PRO A   2       1.328   2.929  19.179  0.00  0.00    +0.000 OA
ATOM     12  HXT PRO A   2       1.215   3.782  18.686  0.00  0.00    +0.000 HD
ENDBRANCH   9  11
ENDBRANCH   8   9
ENDBRANCH   1   2
BRANCH   1  15
ATOM     13  C   UNK A   0       6.434   3.966  16.034  0.00  0.00    +0.000 C 
ATOM     14  O   UNK A   0       7.645   3.955  16.182  0.00  0.00    +0.000 OA
ATOM     15  N   ILE A   1       5.516   4.222  17.032  0.00  0.00    +0.000 N 
ATOM     16  H   ILE A   1       4.536   4.081  16.819  0.00  0.00    +0.000 HD
BRANCH  13  19
ATOM     17  C   UNK A   0       6.546   4.233  13.488  0.00  0.00    +0.000 C 
ATOM     18  O   UNK A   0       5.367   4.880  13.982  0.00  0.00    +0.000 OA
ATOM     19  C   UNK A   0       5.823   3.720  14.707  0.00  0.00    +0.000 C 
BRANCH  17  20
ATOM     20  C   UNK A   0       6.422   3.513  12.211  0.00  0.00    +0.000 C 
ATOM     21  O   UNK A   0       7.302   2.758  11.822  0.00  0.00    +0.000 OA
BRANCH  20  22
ATOM     22  O   UNK A   0       5.330   3.917  11.516  0.00  0.00    +0.000 OA
BRANCH  22  24
ATOM     23  C   UNK A   0       3.244   3.440  10.347  0.00  0.00    +0.000 C 
ATOM     24  C   UNK A   0       4.315   2.928  11.289  0.00  0.00    +0.000 C 
ENDBRANCH  22  24
ENDBRANCH  20  22
ENDBRANCH  17  20
ENDBRANCH  13  19
ENDBRANCH   1  15
BRANCH   1  25
ATOM     25  CB  ILE A   1       6.456   5.753  18.820  0.00  0.00    +0.000 C 
ATOM     26  CG2 ILE A   1       7.891   5.717  19.363  0.00  0.00    +0.000 C 
BRANCH  25  27
ATOM     27  CG1 ILE A   1       6.381   6.764  17.647  0.00  0.00    +0.000 C 
ATOM     28  CD1 ILE A   1       7.615   7.644  17.489  0.00  0.00    +0.000 C 
ENDBRANCH  25  27
ENDBRANCH   1  25
TORSDOF 10
ENDMDL
MODEL 7
REMARK VINA RESULT:      -6.6      2.864      6.271
REMARK  Name = 
REMARK  13 active torsions:
REMARK  status: ('A' for Active; 'I' for Inactive)
REMARK    1  A    between atoms: C_1  and  C_2
REMARK    2  A    between atoms: C_2  and  O_3
REMARK    3  A    between atoms: O_3  and  C_4
REMARK    4  A    between atoms: C_4  and  C_6
REMARK    5  A    between atoms: C_8  and  C_9
REMARK    6  A    between atoms: N_11  and  CA_12
REMARK    7  A    between atoms: CA_12  and  C_13
REMARK    8  A    between atoms: CA_12  and  CB_23
REMARK    9  A    between atoms: CA_19  and  C_20
REMARK   10  A    between atoms: C_20  and  OXT_22
REMARK   11  A    between atoms: CB_23  and  CG2_24
REMARK   12  A    between atoms: CB_23  and  CG1_25
REMARK   13  A    between atoms: CG1_25  and  CD1_26
REMARK                            x       y       z     vdW  Elec       q    Type
REMARK                         _______ _______ _______ _____ _____    ______ ____
ROOT
ATOM      1  CA  ILE A   1       4.336   5.799  17.505  0.00  0.00    +0.000 C 
ENDROOT
BRANCH   1   2
ATOM      2  C   ILE A   1       4.312   4.888  18.757  0.00  0.00    +0.000 C 
ATOM      3  O   ILE A   1       5.067   5.060  19.722  0.00  0.00    +0.000 OA
ATOM      4  N   PRO A   2       3.412   3.847  18.807  0.00  0.00    +0.000 N 
ATOM      5  CD  PRO A   2       2.640   3.276  17.723  0.00  0.00    +0.000 C 
ATOM      6  CG  PRO A   2       1.354   2.835  18.390  0.00  0.00    +0.000 C 
ATOM      7  CB  PRO A   2       1.762   2.467  19.816  0.00  0.00    +0.000 C 
ATOM      8  CA  PRO A   2       3.092   3.191  20.079  0.00  0.00    +0.000 C 
BRANCH   8   9
ATOM      9  C   PRO A   2       4.198   2.231  20.560  0.00  0.00    +0.000 C 
ATOM     10  O   PRO A   2       4.271   1.758  21.686  0.00  0.00    +0.000 OA
BRANCH   9  11
ATOM     11  OXT PRO A   2       5.160   1.985  19.637  0.00  0.00    +0.000 OA
ATOM     12  HXT PRO A   2       5.056   1.094  19.214  0.00  0.00    +0.000 HD
ENDBRANCH   9  11
ENDBRANCH   8   9
ENDBRANCH   1   2
BRANCH   1  15
ATOM     13  C   UNK A   0       2.489   7.396  18.101  0.00  0.00    +0.000 C 
ATOM     14  O   UNK A   0       1.586   6.578  18.030  0.00  0.00    +0.000 OA
ATOM     15  N   ILE A   1       3.812   7.146  17.799  0.00  0.00    +0.000 N 
ATOM     16  H   ILE A   1       4.490   7.866  18.014  0.00  0.00    +0.000 HD
BRANCH  13  19
ATOM     17  C   UNK A   0       0.952   9.445  18.026  0.00  0.00    +0.000 C 
ATOM     18  O   UNK A   0       2.225   9.785  17.462  0.00  0.00    +0.000 OA
ATOM     19  C   UNK A   0       2.223   8.795  18.510  0.00  0.00    +0.000 C 
BRANCH  17  20
ATOM     20  C   UNK A   0       0.298  10.471  18.853  0.00  0.00    +0.000 C 
ATOM     21  O   UNK A   0       0.944  11.366  19.379  0.00  0.00    +0.000 OA
BRANCH  20  22
ATOM     22  O   UNK A   0      -1.014  10.189  19.050  0.00  0.00    +0.000 OA
BRANCH  22  24
ATOM     23  C   UNK A   0      -2.754   9.824  17.382  0.00  0.00    +0.000 C 
ATOM     24  C   UNK A   0      -1.945  10.835  18.170  0.00  0.00    +0.000 C 
ENDBRANCH  22  24
ENDBRANCH  20  22
ENDBRANCH  17  20
ENDBRANCH  13  19
ENDBRANCH   1  15
BRANCH   1  25
ATOM     25  CB  ILE A   1       5.687   5.812  16.734  0.00  0.00    +0.000 C 
ATOM     26  CG2 ILE A   1       5.542   5.679  15.213  0.00  0.00    +0.000 C 
BRANCH  25  27
ATOM     27  CG1 ILE A   1       6.555   7.057  17.056  0.00  0.00    +0.000 C 
ATOM     28  CD1 ILE A   1       7.676   6.806  18.056  0.00  0.00    +0.000 C 
ENDBRANCH  25  27
ENDBRANCH   1  25
TORSDOF 10
ENDMDL
MODEL 8
REMARK VINA RESULT:      -6.6      3.195      7.454
REMARK  Name = 
REMARK  13 active torsions:
REMARK  status: ('A' for Active; 'I' for Inactive)
REMARK    1  A    between atoms: C_1  and  C_2
REMARK    2  A    between atoms: C_2  and  O_3
REMARK    3  A    between atoms: O_3  and  C_4
REMARK    4  A    between atoms: C_4  and  C_6
REMARK    5  A    between atoms: C_8  and  C_9
REMARK    6  A    between atoms: N_11  and  CA_12
REMARK    7  A    between atoms: CA_12  and  C_13
REMARK    8  A    between atoms: CA_12  and  CB_23
REMARK    9  A    between atoms: CA_19  and  C_20
REMARK   10  A    between atoms: C_20  and  OXT_22
REMARK   11  A    between atoms: CB_23  and  CG2_24
REMARK   12  A    between atoms: CB_23  and  CG1_25
REMARK   13  A    between atoms: CG1_25  and  CD1_26
REMARK                            x       y       z     vdW  Elec       q    Type
REMARK                         _______ _______ _______ _____ _____    ______ ____
ROOT
ATOM      1  CA  ILE A   1       3.125   6.451  18.525  0.00  0.00    +0.000 C 
ENDROOT
BRANCH   1   2
ATOM      2  C   ILE A   1       4.343   6.357  17.572  0.00  0.00    +0.000 C 
ATOM      3  O   ILE A   1       4.292   6.713  16.389  0.00  0.00    +0.000 OA
ATOM      4  N   PRO A   2       5.534   5.866  18.059  0.00  0.00    +0.000 N 
ATOM      5  CD  PRO A   2       5.769   5.141  19.290  0.00  0.00    +0.000 C 
ATOM      6  CG  PRO A   2       7.163   5.567  19.699  0.00  0.00    +0.000 C 
ATOM      7  CB  PRO A   2       7.888   5.842  18.381  0.00  0.00    +0.000 C 
ATOM      8  CA  PRO A   2       6.790   6.089  17.335  0.00  0.00    +0.000 C 
BRANCH   8   9
ATOM      9  C   PRO A   2       6.943   5.181  16.098  0.00  0.00    +0.000 C 
ATOM     10  O   PRO A   2       7.389   5.544  15.017  0.00  0.00    +0.000 OA
BRANCH   9  11
ATOM     11  OXT PRO A   2       6.475   3.921  16.271  0.00  0.00    +0.000 OA
ATOM     12  HXT PRO A   2       6.887   3.277  15.640  0.00  0.00    +0.000 HD
ENDBRANCH   9  11
ENDBRANCH   8   9
ENDBRANCH   1   2
BRANCH   1  15
ATOM     13  C   UNK A   0       1.816   8.410  19.401  0.00  0.00    +0.000 C 
ATOM     14  O   UNK A   0       1.720   7.997  20.545  0.00  0.00    +0.000 OA
ATOM     15  N   ILE A   1       2.394   7.721  18.354  0.00  0.00    +0.000 N 
ATOM     16  H   ILE A   1       2.527   8.214  17.480  0.00  0.00    +0.000 HD
BRANCH  13  19
ATOM     17  C   UNK A   0      -0.209   9.966  19.187  0.00  0.00    +0.000 C 
ATOM     18  O   UNK A   0       0.367   9.756  17.893  0.00  0.00    +0.000 OA
ATOM     19  C   UNK A   0       1.271   9.733  19.016  0.00  0.00    +0.000 C 
BRANCH  17  20
ATOM     20  C   UNK A   0      -0.703  11.320  19.482  0.00  0.00    +0.000 C 
ATOM     21  O   UNK A   0      -1.039  11.639  20.613  0.00  0.00    +0.000 OA
BRANCH  20  22
ATOM     22  O   UNK A   0      -0.863  12.049  18.349  0.00  0.00    +0.000 OA
BRANCH  22  24
ATOM     23  C   UNK A   0       1.157  13.408  18.466  0.00  0.00    +0.000 C 
ATOM     24  C   UNK A   0      -0.356  13.391  18.376  0.00  0.00    +0.000 C 
ENDBRANCH  22  24
ENDBRANCH  20  22
ENDBRANCH  17  20
ENDBRANCH  13  19
ENDBRANCH   1  15
BRANCH   1  25
ATOM     25  CB  ILE A   1       2.203   5.199  18.529  0.00  0.00    +0.000 C 
ATOM     26  CG2 ILE A   1       2.622   4.108  17.535  0.00  0.00    +0.000 C 
BRANCH  25  27
ATOM     27  CG1 ILE A   1       2.044   4.570  19.938  0.00  0.00    +0.000 C 
ATOM     28  CD1 ILE A   1       0.925   3.543  20.050  0.00  0.00    +0.000 C 
ENDBRANCH  25  27
ENDBRANCH   1  25
TORSDOF 10
ENDMDL
MODEL 9
REMARK VINA RESULT:      -6.6      2.803      7.008
REMARK  Name = 
REMARK  13 active torsions:
REMARK  status: ('A' for Active; 'I' for Inactive)
REMARK    1  A    between atoms: C_1  and  C_2
REMARK    2  A    between atoms: C_2  and  O_3
REMARK    3  A    between atoms: O_3  and  C_4
REMARK    4  A    between atoms: C_4  and  C_6
REMARK    5  A    between atoms: C_8  and  C_9
REMARK    6  A    between atoms: N_11  and  CA_12
REMARK    7  A    between atoms: CA_12  and  C_13
REMARK    8  A    between atoms: CA_12  and  CB_23
REMARK    9  A    between atoms: CA_19  and  C_20
REMARK   10  A    between atoms: C_20  and  OXT_22
REMARK   11  A    between atoms: CB_23  and  CG2_24
REMARK   12  A    between atoms: CB_23  and  CG1_25
REMARK   13  A    between atoms: CG1_25  and  CD1_26
REMARK                            x       y       z     vdW  Elec       q    Type
REMARK                         _______ _______ _______ _____ _____    ______ ____
ROOT
ATOM      1  CA  ILE A   1       3.011   4.947  19.053  0.00  0.00    +0.000 C 
ENDROOT
BRANCH   1   2
ATOM      2  C   ILE A   1       4.479   4.584  18.722  0.00  0.00    +0.000 C 
ATOM      3  O   ILE A   1       5.131   3.771  19.389  0.00  0.00    +0.000 OA
ATOM      4  N   PRO A   2       5.086   5.181  17.641  0.00  0.00    +0.000 N 
ATOM      5  CD  PRO A   2       4.648   6.342  16.894  0.00  0.00    +0.000 C 
ATOM      6  CG  PRO A   2       5.126   6.065  15.484  0.00  0.00    +0.000 C 
ATOM      7  CB  PRO A   2       6.398   5.236  15.660  0.00  0.00    +0.000 C 
ATOM      8  CA  PRO A   2       6.316   4.624  17.067  0.00  0.00    +0.000 C 
BRANCH   8   9
ATOM      9  C   PRO A   2       7.569   4.928  17.913  0.00  0.00    +0.000 C 
ATOM     10  O   PRO A   2       7.759   5.967  18.530  0.00  0.00    +0.000 OA
BRANCH   9  11
ATOM     11  OXT PRO A   2       8.514   3.957  17.875  0.00  0.00    +0.000 OA
ATOM     12  HXT PRO A   2       8.720   3.669  16.949  0.00  0.00    +0.000 HD
ENDBRANCH   9  11
ENDBRANCH   8   9
ENDBRANCH   1   2
BRANCH   1  15
ATOM     13  C   UNK A   0       2.067   7.152  19.808  0.00  0.00    +0.000 C 
ATOM     14  O   UNK A   0       1.487   6.714  20.787  0.00  0.00    +0.000 OA
ATOM     15  N   ILE A   1       2.753   6.390  18.884  0.00  0.00    +0.000 N 
ATOM     16  H   ILE A   1       3.299   6.875  18.183  0.00  0.00    +0.000 HD
BRANCH  13  19
ATOM     17  C   UNK A   0       1.012   9.123  18.555  0.00  0.00    +0.000 C 
ATOM     18  O   UNK A   0       2.376   8.975  18.144  0.00  0.00    +0.000 OA
ATOM     19  C   UNK A   0       2.064   8.602  19.501  0.00  0.00    +0.000 C 
BRANCH  17  20
ATOM     20  C   UNK A   0       0.511  10.497  18.709  0.00  0.00    +0.000 C 
ATOM     21  O   UNK A   0       1.242  11.461  18.531  0.00  0.00    +0.000 OA
BRANCH  20  22
ATOM     22  O   UNK A   0      -0.754  10.514  19.198  0.00  0.00    +0.000 OA
BRANCH  22  24
ATOM     23  C   UNK A   0      -2.159  11.478  17.454  0.00  0.00    +0.000 C 
ATOM     24  C   UNK A   0      -1.806  10.244  18.259  0.00  0.00    +0.000 C 
ENDBRANCH  22  24
ENDBRANCH  20  22
ENDBRANCH  17  20
ENDBRANCH  13  19
ENDBRANCH   1  15
BRANCH   1  25
ATOM     25  CB  ILE A   1       1.945   4.041  18.373  0.00  0.00    +0.000 C 
ATOM     26  CG2 ILE A   1       2.530   3.006  17.403  0.00  0.00    +0.000 C 
BRANCH  25  27
ATOM     27  CG1 ILE A   1       1.024   3.321  19.391  0.00  0.00    +0.000 C 
ATOM     28  CD1 ILE A   1       1.598   3.214  20.799  0.00  0.00    +0.000 C 
ENDBRANCH  25  27
ENDBRANCH   1  25
TORSDOF 10
ENDMDL
