MODEL 1
REMARK VINA RESULT:      -7.3      0.000      0.000
REMARK  Name = 
REMARK  8 active torsions:
REMARK  status: ('A' for Active; 'I' for Inactive)
REMARK    1  A    between atoms: C_1  and  C_2
REMARK    2  A    between atoms: C_2  and  C_3
REMARK    3  A    between atoms: C_3  and  C_4
REMARK    4  A    between atoms: N_7  and  S_8
REMARK    5  A    between atoms: S_8  and  C_9
REMARK    6  A    between atoms: C_16  and  C_18
REMARK    7  A    between atoms: C_18  and  C_19
REMARK    8  A    between atoms: C_19  and  N_20
REMARK                            x       y       z     vdW  Elec       q    Type
REMARK                         _______ _______ _______ _____ _____    ______ ____
ROOT
ATOM      1  C   UNL     1       3.540   5.744  17.424  0.00  0.00    +0.000 C 
ATOM      2  C   UNL     1       3.908   4.305  17.809  0.00  0.00    +0.000 C 
ATOM      3  O   UNL     1       4.742   3.611  17.249  0.00  0.00    +0.000 OA
ATOM      4  N   UNL     1       3.310   3.927  18.962  0.00  0.00    +0.000 N 
ATOM      5  C   UNL     1       2.441   4.994  19.348  0.00  0.00    +0.000 C 
ATOM      6  C   UNL     1       2.141   5.381  20.771  0.00  0.00    +0.000 C 
ATOM      7  C   UNL     1       1.578   6.795  20.491  0.00  0.00    +0.000 C 
ATOM      8  N   UNL     1       2.301   7.266  19.306  0.00  0.00    +0.000 N 
ATOM      9  C   UNL     1       2.122   8.496  18.732  0.00  0.00    +0.000 C 
ATOM     10  O   UNL     1       2.764   8.810  17.746  0.00  0.00    +0.000 OA
ATOM     11  C   UNL     1       3.195   6.210  18.869  0.00  0.00    +0.000 C 
ENDROOT
BRANCH   4  12
ATOM     12  S   UNL     1       3.660   2.459  19.862  0.00  0.00    +0.000 S 
ATOM     13  C   UNL     1       2.738   2.218  21.406  0.00  0.00    +0.000 C 
ATOM     14  O   UNL     1       3.481   1.310  18.859  0.00  0.00    +0.000 OA
ATOM     15  O   UNL     1       5.183   2.475  20.058  0.00  0.00    +0.000 OA
ENDBRANCH   4  12
BRANCH   1  16
ATOM     16  C   UNL     1       4.694   6.549  16.779  0.00  0.00    +0.000 C 
BRANCH  16  18
ATOM     17  C   UNL     1       7.208   6.539  16.999  0.00  0.00    +0.000 C 
ATOM     18  C   UNL     1       5.887   6.782  17.724  0.00  0.00    +0.000 C 
ENDBRANCH  16  18
ENDBRANCH   1  16
BRANCH   9  19
ATOM     19  C   UNL     1       1.115   9.492  19.272  0.00  0.00    +0.000 C 
BRANCH  19  20
ATOM     20  C   UNL     1       0.360  10.253  18.164  0.00  0.00    +0.000 C 
BRANCH  20  21
ATOM     21  N   UNL     1      -1.099  10.386  18.394  0.00  0.00    +0.000 NA
ATOM     22  C   UNL     1      -1.492  11.788  18.688  0.00  0.00    +0.000 C 
ATOM     23  C   UNL     1      -3.005  11.888  18.928  0.00  0.00    +0.000 C 
ATOM     24  C   UNL     1      -3.757  11.396  17.696  0.00  0.00    +0.000 C 
ATOM     25  C   UNL     1      -3.334   9.961  17.388  0.00  0.00    +0.000 C 
ATOM     26  C   UNL     1      -1.814   9.899  17.189  0.00  0.00    +0.000 C 
ENDBRANCH  20  21
ENDBRANCH  19  20
ENDBRANCH   9  19
TORSDOF 6
ENDMDL
MODEL 2
REMARK VINA RESULT:      -7.2      2.981      4.386
REMARK  Name = 
REMARK  8 active torsions:
REMARK  status: ('A' for Active; 'I' for Inactive)
REMARK    1  A    between atoms: C_1  and  C_2
REMARK    2  A    between atoms: C_2  and  C_3
REMARK    3  A    between atoms: C_3  and  C_4
REMARK    4  A    between atoms: N_7  and  S_8
REMARK    5  A    between atoms: S_8  and  C_9
REMARK    6  A    between atoms: C_16  and  C_18
REMARK    7  A    between atoms: C_18  and  C_19
REMARK    8  A    between atoms: C_19  and  N_20
REMARK                            x       y       z     vdW  Elec       q    Type
REMARK                         _______ _______ _______ _____ _____    ______ ____
ROOT
ATOM      1  C   UNL     1       4.248   4.934  19.602  0.00  0.00    +0.000 C 
ATOM      2  C   UNL     1       5.219   4.698  18.438  0.00  0.00    +0.000 C 
ATOM      3  O   UNL     1       5.864   3.680  18.246  0.00  0.00    +0.000 OA
ATOM      4  N   UNL     1       5.168   5.702  17.533  0.00  0.00    +0.000 N 
ATOM      5  C   UNL     1       4.291   6.697  18.066  0.00  0.00    +0.000 C 
ATOM      6  C   UNL     1       3.388   7.573  17.239  0.00  0.00    +0.000 C 
ATOM      7  C   UNL     1       2.439   8.028  18.373  0.00  0.00    +0.000 C 
ATOM      8  N   UNL     1       2.393   6.900  19.308  0.00  0.00    +0.000 N 
ATOM      9  C   UNL     1       1.640   6.877  20.452  0.00  0.00    +0.000 C 
ATOM     10  O   UNL     1       1.660   5.899  21.178  0.00  0.00    +0.000 OA
ATOM     11  C   UNL     1       3.279   5.863  18.814  0.00  0.00    +0.000 C 
ENDROOT
BRANCH   4  12
ATOM     12  S   UNL     1       5.936   5.695  15.953  0.00  0.00    +0.000 S 
ATOM     13  C   UNL     1       5.819   4.153  15.005  0.00  0.00    +0.000 C 
ATOM     14  O   UNL     1       5.362   6.912  15.212  0.00  0.00    +0.000 OA
ATOM     15  O   UNL     1       7.382   6.138  16.220  0.00  0.00    +0.000 OA
ENDBRANCH   4  12
BRANCH   1  16
ATOM     16  C   UNL     1       3.567   3.650  20.137  0.00  0.00    +0.000 C 
BRANCH  16  18
ATOM     17  C   UNL     1       2.883   1.826  18.533  0.00  0.00    +0.000 C 
ATOM     18  C   UNL     1       2.450   3.118  19.222  0.00  0.00    +0.000 C 
ENDBRANCH  16  18
ENDBRANCH   1  16
BRANCH   9  19
ATOM     19  C   UNL     1       0.787   8.057  20.873  0.00  0.00    +0.000 C 
BRANCH  19  20
ATOM     20  C   UNL     1       1.418   8.887  22.009  0.00  0.00    +0.000 C 
BRANCH  20  21
ATOM     21  N   UNL     1       0.731  10.172  22.285  0.00  0.00    +0.000 NA
ATOM     22  C   UNL     1       0.640  11.028  21.075  0.00  0.00    +0.000 C 
ATOM     23  C   UNL     1      -0.068  12.351  21.397  0.00  0.00    +0.000 C 
ATOM     24  C   UNL     1      -1.469  12.071  21.930  0.00  0.00    +0.000 C 
ATOM     25  C   UNL     1      -1.369  11.175  23.163  0.00  0.00    +0.000 C 
ATOM     26  C   UNL     1      -0.627   9.881  22.806  0.00  0.00    +0.000 C 
ENDBRANCH  20  21
ENDBRANCH  19  20
ENDBRANCH   9  19
TORSDOF 6
ENDMDL
MODEL 3
REMARK VINA RESULT:      -7.2      2.339      3.919
REMARK  Name = 
REMARK  8 active torsions:
REMARK  status: ('A' for Active; 'I' for Inactive)
REMARK    1  A    between atoms: C_1  and  C_2
REMARK    2  A    between atoms: C_2  and  C_3
REMARK    3  A    between atoms: C_3  and  C_4
REMARK    4  A    between atoms: N_7  and  S_8
REMARK    5  A    between atoms: S_8  and  C_9
REMARK    6  A    between atoms: C_16  and  C_18
REMARK    7  A    between atoms: C_18  and  C_19
REMARK    8  A    between atoms: C_19  and  N_20
REMARK                            x       y       z     vdW  Elec       q    Type
REMARK                         _______ _______ _______ _____ _____    ______ ____
ROOT
ATOM      1  C   UNL     1       4.238   5.202  19.668  0.00  0.00    +0.000 C 
ATOM      2  C   UNL     1       5.359   4.557  18.843  0.00  0.00    +0.000 C 
ATOM      3  O   UNL     1       5.812   3.437  19.013  0.00  0.00    +0.000 OA
ATOM      4  N   UNL     1       5.697   5.318  17.777  0.00  0.00    +0.000 N 
ATOM      5  C   UNL     1       4.947   6.530  17.879  0.00  0.00    +0.000 C 
ATOM      6  C   UNL     1       4.428   7.317  16.705  0.00  0.00    +0.000 C 
ATOM      7  C   UNL     1       3.378   8.162  17.464  0.00  0.00    +0.000 C 
ATOM      8  N   UNL     1       2.917   7.304  18.559  0.00  0.00    +0.000 N 
ATOM      9  C   UNL     1       1.957   7.662  19.468  0.00  0.00    +0.000 C 
ATOM     10  O   UNL     1       1.631   6.889  20.351  0.00  0.00    +0.000 OA
ATOM     11  C   UNL     1       3.658   6.057  18.505  0.00  0.00    +0.000 C 
ENDROOT
BRANCH   4  12
ATOM     12  S   UNL     1       6.755   4.826  16.463  0.00  0.00    +0.000 S 
ATOM     13  C   UNL     1       6.026   3.745  15.202  0.00  0.00    +0.000 C 
ATOM     14  O   UNL     1       7.331   6.129  15.890  0.00  0.00    +0.000 OA
ATOM     15  O   UNL     1       7.980   4.213  17.157  0.00  0.00    +0.000 OA
ENDBRANCH   4  12
BRANCH   1  16
ATOM     16  C   UNL     1       3.218   4.197  20.258  0.00  0.00    +0.000 C 
BRANCH  16  18
ATOM     17  C   UNL     1       0.880   3.334  19.869  0.00  0.00    +0.000 C 
ATOM     18  C   UNL     1       2.225   3.646  19.220  0.00  0.00    +0.000 C 
ENDBRANCH  16  18
ENDBRANCH   1  16
BRANCH   9  19
ATOM     19  C   UNL     1       1.291   9.024  19.434  0.00  0.00    +0.000 C 
BRANCH  19  20
ATOM     20  C   UNL     1       0.800   9.494  20.817  0.00  0.00    +0.000 C 
BRANCH  20  21
ATOM     21  N   UNL     1      -0.185  10.602  20.776  0.00  0.00    +0.000 NA
ATOM     22  C   UNL     1       0.443  11.918  21.054  0.00  0.00    +0.000 C 
ATOM     23  C   UNL     1      -0.604  13.040  21.011  0.00  0.00    +0.000 C 
ATOM     24  C   UNL     1      -1.269  13.073  19.638  0.00  0.00    +0.000 C 
ATOM     25  C   UNL     1      -1.896  11.710  19.350  0.00  0.00    +0.000 C 
ATOM     26  C   UNL     1      -0.825  10.616  19.437  0.00  0.00    +0.000 C 
ENDBRANCH  20  21
ENDBRANCH  19  20
ENDBRANCH   9  19
TORSDOF 6
ENDMDL
MODEL 4
REMARK VINA RESULT:      -7.1      2.774      4.314
REMARK  Name = 
REMARK  8 active torsions:
REMARK  status: ('A' for Active; 'I' for Inactive)
REMARK    1  A    between atoms: C_1  and  C_2
REMARK    2  A    between atoms: C_2  and  C_3
REMARK    3  A    between atoms: C_3  and  C_4
REMARK    4  A    between atoms: N_7  and  S_8
REMARK    5  A    between atoms: S_8  and  C_9
REMARK    6  A    between atoms: C_16  and  C_18
REMARK    7  A    between atoms: C_18  and  C_19
REMARK    8  A    between atoms: C_19  and  N_20
REMARK                            x       y       z     vdW  Elec       q    Type
REMARK                         _______ _______ _______ _____ _____    ______ ____
ROOT
ATOM      1  C   UNL     1       4.016   4.983  19.819  0.00  0.00    +0.000 C 
ATOM      2  C   UNL     1       5.093   4.428  18.879  0.00  0.00    +0.000 C 
ATOM      3  O   UNL     1       5.548   3.296  18.910  0.00  0.00    +0.000 OA
ATOM      4  N   UNL     1       5.385   5.297  17.884  0.00  0.00    +0.000 N 
ATOM      5  C   UNL     1       4.647   6.491  18.148  0.00  0.00    +0.000 C 
ATOM      6  C   UNL     1       4.077   7.396  17.088  0.00  0.00    +0.000 C 
ATOM      7  C   UNL     1       3.068   8.158  17.981  0.00  0.00    +0.000 C 
ATOM      8  N   UNL     1       2.655   7.189  19.001  0.00  0.00    +0.000 N 
ATOM      9  C   UNL     1       1.740   7.450  19.986  0.00  0.00    +0.000 C 
ATOM     10  O   UNL     1       1.452   6.589  20.798  0.00  0.00    +0.000 OA
ATOM     11  C   UNL     1       3.386   5.955  18.781  0.00  0.00    +0.000 C 
ENDROOT
BRANCH   4  12
ATOM     12  S   UNL     1       6.377   4.945  16.477  0.00  0.00    +0.000 S 
ATOM     13  C   UNL     1       5.679   3.789  15.265  0.00  0.00    +0.000 C 
ATOM     14  O   UNL     1       6.739   6.312  15.878  0.00  0.00    +0.000 OA
ATOM     15  O   UNL     1       7.723   4.483  17.055  0.00  0.00    +0.000 OA
ENDBRANCH   4  12
BRANCH   1  16
ATOM     16  C   UNL     1       3.020   3.922  20.349  0.00  0.00    +0.000 C 
BRANCH  16  18
ATOM     17  C   UNL     1       0.855   2.681  19.972  0.00  0.00    +0.000 C 
ATOM     18  C   UNL     1       1.963   3.498  19.313  0.00  0.00    +0.000 C 
ENDBRANCH  16  18
ENDBRANCH   1  16
BRANCH   9  19
ATOM     19  C   UNL     1       1.080   8.808  20.126  0.00  0.00    +0.000 C 
BRANCH  19  20
ATOM     20  C   UNL     1       0.398   9.013  21.493  0.00  0.00    +0.000 C 
BRANCH  20  21
ATOM     21  N   UNL     1      -0.409  10.254  21.598  0.00  0.00    +0.000 NA
ATOM     22  C   UNL     1      -0.871  10.503  22.986  0.00  0.00    +0.000 C 
ATOM     23  C   UNL     1      -1.708  11.788  23.057  0.00  0.00    +0.000 C 
ATOM     24  C   UNL     1      -0.876  12.973  22.577  0.00  0.00    +0.000 C 
ATOM     25  C   UNL     1      -0.387  12.701  21.155  0.00  0.00    +0.000 C 
ATOM     26  C   UNL     1       0.414  11.393  21.122  0.00  0.00    +0.000 C 
ENDBRANCH  20  21
ENDBRANCH  19  20
ENDBRANCH   9  19
TORSDOF 6
ENDMDL
MODEL 5
REMARK VINA RESULT:      -7.1      2.636      4.199
REMARK  Name = 
REMARK  8 active torsions:
REMARK  status: ('A' for Active; 'I' for Inactive)
REMARK    1  A    between atoms: C_1  and  C_2
REMARK    2  A    between atoms: C_2  and  C_3
REMARK    3  A    between atoms: C_3  and  C_4
REMARK    4  A    between atoms: N_7  and  S_8
REMARK    5  A    between atoms: S_8  and  C_9
REMARK    6  A    between atoms: C_16  and  C_18
REMARK    7  A    between atoms: C_18  and  C_19
REMARK    8  A    between atoms: C_19  and  N_20
REMARK                            x       y       z     vdW  Elec       q    Type
REMARK                         _______ _______ _______ _____ _____    ______ ____
ROOT
ATOM      1  C   UNL     1       4.205   5.390  19.563  0.00  0.00    +0.000 C 
ATOM      2  C   UNL     1       5.337   4.642  18.848  0.00  0.00    +0.000 C 
ATOM      3  O   UNL     1       5.725   3.517  19.115  0.00  0.00    +0.000 OA
ATOM      4  N   UNL     1       5.769   5.315  17.757  0.00  0.00    +0.000 N 
ATOM      5  C   UNL     1       5.074   6.563  17.737  0.00  0.00    +0.000 C 
ATOM      6  C   UNL     1       4.659   7.292  16.486  0.00  0.00    +0.000 C 
ATOM      7  C   UNL     1       3.611   8.232  17.128  0.00  0.00    +0.000 C 
ATOM      8  N   UNL     1       3.049   7.470  18.247  0.00  0.00    +0.000 N 
ATOM      9  C   UNL     1       2.059   7.931  19.074  0.00  0.00    +0.000 C 
ATOM     10  O   UNL     1       1.649   7.234  19.984  0.00  0.00    +0.000 OA
ATOM     11  C   UNL     1       3.731   6.191  18.316  0.00  0.00    +0.000 C 
ENDROOT
BRANCH   4  12
ATOM     12  S   UNL     1       6.872   4.689  16.540  0.00  0.00    +0.000 S 
ATOM     13  C   UNL     1       6.183   3.493  15.363  0.00  0.00    +0.000 C 
ATOM     14  O   UNL     1       7.483   5.926  15.865  0.00  0.00    +0.000 OA
ATOM     15  O   UNL     1       8.064   4.141  17.339  0.00  0.00    +0.000 OA
ENDBRANCH   4  12
BRANCH   1  16
ATOM     16  C   UNL     1       3.106   4.474  20.156  0.00  0.00    +0.000 C 
BRANCH  16  18
ATOM     17  C   UNL     1       1.966   2.394  19.296  0.00  0.00    +0.000 C 
ATOM     18  C   UNL     1       2.149   3.896  19.099  0.00  0.00    +0.000 C 
ENDBRANCH  16  18
ENDBRANCH   1  16
BRANCH   9  19
ATOM     19  C   UNL     1       1.463   9.316  18.914  0.00  0.00    +0.000 C 
BRANCH  19  20
ATOM     20  C   UNL     1       0.053   9.443  19.523  0.00  0.00    +0.000 C 
BRANCH  20  21
ATOM     21  N   UNL     1       0.006  10.162  20.820  0.00  0.00    +0.000 NA
ATOM     22  C   UNL     1      -0.926  11.317  20.784  0.00  0.00    +0.000 C 
ATOM     23  C   UNL     1      -0.944  12.042  22.137  0.00  0.00    +0.000 C 
ATOM     24  C   UNL     1      -1.373  11.075  23.236  0.00  0.00    +0.000 C 
ATOM     25  C   UNL     1      -0.422   9.880  23.254  0.00  0.00    +0.000 C 
ATOM     26  C   UNL     1      -0.408   9.206  21.876  0.00  0.00    +0.000 C 
ENDBRANCH  20  21
ENDBRANCH  19  20
ENDBRANCH   9  19
TORSDOF 6
ENDMDL
MODEL 6
REMARK VINA RESULT:      -7.0      2.762      4.241
REMARK  Name = 
REMARK  8 active torsions:
REMARK  status: ('A' for Active; 'I' for Inactive)
REMARK    1  A    between atoms: C_1  and  C_2
REMARK    2  A    between atoms: C_2  and  C_3
REMARK    3  A    between atoms: C_3  and  C_4
REMARK    4  A    between atoms: N_7  and  S_8
REMARK    5  A    between atoms: S_8  and  C_9
REMARK    6  A    between atoms: C_16  and  C_18
REMARK    7  A    between atoms: C_18  and  C_19
REMARK    8  A    between atoms: C_19  and  N_20
REMARK                            x       y       z     vdW  Elec       q    Type
REMARK                         _______ _______ _______ _____ _____    ______ ____
ROOT
ATOM      1  C   UNL     1       3.546   5.157  19.924  0.00  0.00    +0.000 C 
ATOM      2  C   UNL     1       4.498   4.562  18.879  0.00  0.00    +0.000 C 
ATOM      3  O   UNL     1       4.894   3.408  18.854  0.00  0.00    +0.000 OA
ATOM      4  N   UNL     1       4.739   5.431  17.870  0.00  0.00    +0.000 N 
ATOM      5  C   UNL     1       4.093   6.658  18.216  0.00  0.00    +0.000 C 
ATOM      6  C   UNL     1       3.473   7.607  17.225  0.00  0.00    +0.000 C 
ATOM      7  C   UNL     1       2.596   8.405  18.218  0.00  0.00    +0.000 C 
ATOM      8  N   UNL     1       2.231   7.443  19.263  0.00  0.00    +0.000 N 
ATOM      9  C   UNL     1       1.430   7.736  20.335  0.00  0.00    +0.000 C 
ATOM     10  O   UNL     1       1.176   6.878  21.161  0.00  0.00    +0.000 OA
ATOM     11  C   UNL     1       2.872   6.177  18.961  0.00  0.00    +0.000 C 
ENDROOT
BRANCH   4  12
ATOM     12  S   UNL     1       5.572   5.050  16.370  0.00  0.00    +0.000 S 
ATOM     13  C   UNL     1       7.287   4.479  16.522  0.00  0.00    +0.000 C 
ATOM     14  O   UNL     1       4.661   4.057  15.635  0.00  0.00    +0.000 OA
ATOM     15  O   UNL     1       5.425   6.314  15.511  0.00  0.00    +0.000 OA
ENDBRANCH   4  12
BRANCH   1  16
ATOM     16  C   UNL     1       2.551   4.141  20.536  0.00  0.00    +0.000 C 
BRANCH  16  18
ATOM     17  C   UNL     1       1.387   2.359  19.180  0.00  0.00    +0.000 C 
ATOM     18  C   UNL     1       1.357   3.821  19.619  0.00  0.00    +0.000 C 
ENDBRANCH  16  18
ENDBRANCH   1  16
BRANCH   9  19
ATOM     19  C   UNL     1       0.859   9.124  20.552  0.00  0.00    +0.000 C 
BRANCH  19  20
ATOM     20  C   UNL     1       1.062   9.645  21.988  0.00  0.00    +0.000 C 
BRANCH  20  21
ATOM     21  N   UNL     1       0.357  10.917  22.285  0.00  0.00    +0.000 NA
ATOM     22  C   UNL     1       0.231  11.779  21.083  0.00  0.00    +0.000 C 
ATOM     23  C   UNL     1      -0.494  13.087  21.428  0.00  0.00    +0.000 C 
ATOM     24  C   UNL     1      -1.882  12.778  21.981  0.00  0.00    +0.000 C 
ATOM     25  C   UNL     1      -1.746  11.875  23.205  0.00  0.00    +0.000 C 
ATOM     26  C   UNL     1      -0.987  10.597  22.826  0.00  0.00    +0.000 C 
ENDBRANCH  20  21
ENDBRANCH  19  20
ENDBRANCH   9  19
TORSDOF 6
ENDMDL
MODEL 7
REMARK VINA RESULT:      -7.0      5.077      7.212
REMARK  Name = 
REMARK  8 active torsions:
REMARK  status: ('A' for Active; 'I' for Inactive)
REMARK    1  A    between atoms: C_1  and  C_2
REMARK    2  A    between atoms: C_2  and  C_3
REMARK    3  A    between atoms: C_3  and  C_4
REMARK    4  A    between atoms: N_7  and  S_8
REMARK    5  A    between atoms: S_8  and  C_9
REMARK    6  A    between atoms: C_16  and  C_18
REMARK    7  A    between atoms: C_18  and  C_19
REMARK    8  A    between atoms: C_19  and  N_20
REMARK                            x       y       z     vdW  Elec       q    Type
REMARK                         _______ _______ _______ _____ _____    ______ ____
ROOT
ATOM      1  C   UNL     1       4.761   5.882  16.964  0.00  0.00    +0.000 C 
ATOM      2  C   UNL     1       3.914   4.654  17.322  0.00  0.00    +0.000 C 
ATOM      3  O   UNL     1       3.079   4.132  16.601  0.00  0.00    +0.000 OA
ATOM      4  N   UNL     1       4.309   4.097  18.490  0.00  0.00    +0.000 N 
ATOM      5  C   UNL     1       5.320   4.948  19.034  0.00  0.00    +0.000 C 
ATOM      6  C   UNL     1       6.497   4.469  19.842  0.00  0.00    +0.000 C 
ATOM      7  C   UNL     1       7.377   5.734  19.702  0.00  0.00    +0.000 C 
ATOM      8  N   UNL     1       7.043   6.287  18.386  0.00  0.00    +0.000 N 
ATOM      9  C   UNL     1       7.622   7.407  17.851  0.00  0.00    +0.000 C 
ATOM     10  O   UNL     1       7.285   7.803  16.749  0.00  0.00    +0.000 OA
ATOM     11  C   UNL     1       6.009   5.460  17.793  0.00  0.00    +0.000 C 
ENDROOT
BRANCH   4  12
ATOM     12  S   UNL     1       3.762   2.551  19.122  0.00  0.00    +0.000 S 
ATOM     13  C   UNL     1       2.097   2.515  19.839  0.00  0.00    +0.000 C 
ATOM     14  O   UNL     1       3.955   1.548  17.976  0.00  0.00    +0.000 OA
ATOM     15  O   UNL     1       4.860   2.123  20.107  0.00  0.00    +0.000 OA
ENDBRANCH   4  12
BRANCH   1  16
ATOM     16  C   UNL     1       5.053   6.040  15.452  0.00  0.00    +0.000 C 
BRANCH  16  18
ATOM     17  C   UNL     1       5.715   4.054  14.043  0.00  0.00    +0.000 C 
ATOM     18  C   UNL     1       6.221   5.168  14.956  0.00  0.00    +0.000 C 
ENDBRANCH  16  18
ENDBRANCH   1  16
BRANCH   9  19
ATOM     19  C   UNL     1       8.666   8.207  18.605  0.00  0.00    +0.000 C 
BRANCH  19  20
ATOM     20  C   UNL     1       8.600   9.719  18.314  0.00  0.00    +0.000 C 
BRANCH  20  21
ATOM     21  N   UNL     1       9.754  10.495  18.829  0.00  0.00    +0.000 NA
ATOM     22  C   UNL     1      10.203  11.533  17.867  0.00  0.00    +0.000 C 
ATOM     23  C   UNL     1      11.402  12.311  18.428  0.00  0.00    +0.000 C 
ATOM     24  C   UNL     1      11.016  12.972  19.748  0.00  0.00    +0.000 C 
ATOM     25  C   UNL     1      10.537  11.901  20.726  0.00  0.00    +0.000 C 
ATOM     26  C   UNL     1       9.363  11.126  20.113  0.00  0.00    +0.000 C 
ENDBRANCH  20  21
ENDBRANCH  19  20
ENDBRANCH   9  19
TORSDOF 6
ENDMDL
MODEL 8
REMARK VINA RESULT:      -7.0      0.606      1.220
REMARK  Name = 
REMARK  8 active torsions:
REMARK  status: ('A' for Active; 'I' for Inactive)
REMARK    1  A    between atoms: C_1  and  C_2
REMARK    2  A    between atoms: C_2  and  C_3
REMARK    3  A    between atoms: C_3  and  C_4
REMARK    4  A    between atoms: N_7  and  S_8
REMARK    5  A    between atoms: S_8  and  C_9
REMARK    6  A    between atoms: C_16  and  C_18
REMARK    7  A    between atoms: C_18  and  C_19
REMARK    8  A    between atoms: C_19  and  N_20
REMARK                            x       y       z     vdW  Elec       q    Type
REMARK                         _______ _______ _______ _____ _____    ______ ____
ROOT
ATOM      1  C   UNL     1       3.572   5.746  17.227  0.00  0.00    +0.000 C 
ATOM      2  C   UNL     1       3.890   4.324  17.706  0.00  0.00    +0.000 C 
ATOM      3  O   UNL     1       4.702   3.568  17.198  0.00  0.00    +0.000 OA
ATOM      4  N   UNL     1       3.275   4.042  18.877  0.00  0.00    +0.000 N 
ATOM      5  C   UNL     1       2.440   5.159  19.188  0.00  0.00    +0.000 C 
ATOM      6  C   UNL     1       2.148   5.648  20.581  0.00  0.00    +0.000 C 
ATOM      7  C   UNL     1       1.634   7.059  20.207  0.00  0.00    +0.000 C 
ATOM      8  N   UNL     1       2.378   7.427  18.999  0.00  0.00    +0.000 N 
ATOM      9  C   UNL     1       2.244   8.623  18.346  0.00  0.00    +0.000 C 
ATOM     10  O   UNL     1       2.899   8.851  17.345  0.00  0.00    +0.000 OA
ATOM     11  C   UNL     1       3.238   6.316  18.636  0.00  0.00    +0.000 C 
ENDROOT
BRANCH   4  12
ATOM     12  S   UNL     1       3.571   2.624  19.872  0.00  0.00    +0.000 S 
ATOM     13  C   UNL     1       2.635   2.515  21.423  0.00  0.00    +0.000 C 
ATOM     14  O   UNL     1       3.355   1.419  18.945  0.00  0.00    +0.000 OA
ATOM     15  O   UNL     1       5.093   2.601  20.076  0.00  0.00    +0.000 OA
ENDBRANCH   4  12
BRANCH   1  16
ATOM     16  C   UNL     1       4.756   6.469  16.539  0.00  0.00    +0.000 C 
BRANCH  16  18
ATOM     17  C   UNL     1       7.224   6.327  17.048  0.00  0.00    +0.000 C 
ATOM     18  C   UNL     1       5.877   6.878  17.511  0.00  0.00    +0.000 C 
ENDBRANCH  16  18
ENDBRANCH   1  16
BRANCH   9  19
ATOM     19  C   UNL     1       1.268   9.686  18.813  0.00  0.00    +0.000 C 
BRANCH  19  20
ATOM     20  C   UNL     1      -0.024   9.735  17.974  0.00  0.00    +0.000 C 
BRANCH  20  21
ATOM     21  N   UNL     1      -0.896  10.902  18.255  0.00  0.00    +0.000 NA
ATOM     22  C   UNL     1      -2.337  10.550  18.189  0.00  0.00    +0.000 C 
ATOM     23  C   UNL     1      -3.209  11.779  18.476  0.00  0.00    +0.000 C 
ATOM     24  C   UNL     1      -2.883  12.331  19.861  0.00  0.00    +0.000 C 
ATOM     25  C   UNL     1      -1.396  12.672  19.929  0.00  0.00    +0.000 C 
ATOM     26  C   UNL     1      -0.562  11.427  19.602  0.00  0.00    +0.000 C 
ENDBRANCH  20  21
ENDBRANCH  19  20
ENDBRANCH   9  19
TORSDOF 6
ENDMDL
MODEL 9
REMARK VINA RESULT:      -7.0      1.993      2.413
REMARK  Name = 
REMARK  8 active torsions:
REMARK  status: ('A' for Active; 'I' for Inactive)
REMARK    1  A    between atoms: C_1  and  C_2
REMARK    2  A    between atoms: C_2  and  C_3
REMARK    3  A    between atoms: C_3  and  C_4
REMARK    4  A    between atoms: N_7  and  S_8
REMARK    5  A    between atoms: S_8  and  C_9
REMARK    6  A    between atoms: C_16  and  C_18
REMARK    7  A    between atoms: C_18  and  C_19
REMARK    8  A    between atoms: C_19  and  N_20
REMARK                            x       y       z     vdW  Elec       q    Type
REMARK                         _______ _______ _______ _____ _____    ______ ____
ROOT
ATOM      1  C   UNL     1       3.600   5.872  17.616  0.00  0.00    +0.000 C 
ATOM      2  C   UNL     1       3.955   4.429  17.994  0.00  0.00    +0.000 C 
ATOM      3  O   UNL     1       4.858   3.769  17.506  0.00  0.00    +0.000 OA
ATOM      4  N   UNL     1       3.246   4.004  19.065  0.00  0.00    +0.000 N 
ATOM      5  C   UNL     1       2.318   5.041  19.387  0.00  0.00    +0.000 C 
ATOM      6  C   UNL     1       1.861   5.377  20.782  0.00  0.00    +0.000 C 
ATOM      7  C   UNL     1       1.300   6.789  20.486  0.00  0.00    +0.000 C 
ATOM      8  N   UNL     1       2.136   7.311  19.400  0.00  0.00    +0.000 N 
ATOM      9  C   UNL     1       1.993   8.556  18.847  0.00  0.00    +0.000 C 
ATOM     10  O   UNL     1       2.729   8.913  17.945  0.00  0.00    +0.000 OA
ATOM     11  C   UNL     1       3.094   6.286  19.028  0.00  0.00    +0.000 C 
ENDROOT
BRANCH   4  12
ATOM     12  S   UNL     1       3.529   2.513  19.952  0.00  0.00    +0.000 S 
ATOM     13  C   UNL     1       2.574   2.288  21.478  0.00  0.00    +0.000 C 
ATOM     14  O   UNL     1       3.326   1.383  18.932  0.00  0.00    +0.000 OA
ATOM     15  O   UNL     1       5.049   2.474  20.173  0.00  0.00    +0.000 OA
ENDBRANCH   4  12
BRANCH   1  16
ATOM     16  C   UNL     1       4.798   6.719  17.122  0.00  0.00    +0.000 C 
BRANCH  16  18
ATOM     17  C   UNL     1       6.377   5.719  15.426  0.00  0.00    +0.000 C 
ATOM     18  C   UNL     1       5.105   6.539  15.625  0.00  0.00    +0.000 C 
ENDBRANCH  16  18
ENDBRANCH   1  16
BRANCH   9  19
ATOM     19  C   UNL     1       0.913   9.516  19.306  0.00  0.00    +0.000 C 
BRANCH  19  20
ATOM     20  C   UNL     1       1.472  10.763  20.017  0.00  0.00    +0.000 C 
BRANCH  20  21
ATOM     21  N   UNL     1       0.805  11.090  21.301  0.00  0.00    +0.000 NA
ATOM     22  C   UNL     1      -0.101  12.260  21.178  0.00  0.00    +0.000 C 
ATOM     23  C   UNL     1      -0.767  12.575  22.524  0.00  0.00    +0.000 C 
ATOM     24  C   UNL     1      -1.563  11.364  23.002  0.00  0.00    +0.000 C 
ATOM     25  C   UNL     1      -0.629  10.159  23.108  0.00  0.00    +0.000 C 
ATOM     26  C   UNL     1       0.041   9.901  21.752  0.00  0.00    +0.000 C 
ENDBRANCH  20  21
ENDBRANCH  19  20
ENDBRANCH   9  19
TORSDOF 6
ENDMDL
