MODEL 1
REMARK VINA RESULT:      -6.9      0.000      0.000
REMARK  Name = 
REMARK  18 active torsions:
REMARK  status: ('A' for Active; 'I' for Inactive)
REMARK    1  A    between atoms: C_1  and  C_2
REMARK    2  A    between atoms: C_2  and  O_3
REMARK    3  A    between atoms: O_3  and  C_4
REMARK    4  A    between atoms: C_4  and  C_6
REMARK    5  A    between atoms: C_8  and  C_9
REMARK    6  A    between atoms: C_9  and  O_10
REMARK    7  A    between atoms: O_10  and  C_11
REMARK    8  A    between atoms: C_11  and  C_13
REMARK    9  A    between atoms: C_13  and  C_14
REMARK   10  A    between atoms: C_14  and  O_15
REMARK   11  A    between atoms: O_15  and  C_16
REMARK   12  A    between atoms: C_21  and  O_22
REMARK   13  A    between atoms: O_22  and  C_23
REMARK   14  A    between atoms: C_24  and  C_25
REMARK   15  A    between atoms: C_25  and  O_27
REMARK   16  A    between atoms: O_27  and  C_28
REMARK   17  A    between atoms: C_28  and  C_29
REMARK   18  A    between atoms: C_30  and  C_31
REMARK                            x       y       z     vdW  Elec       q    Type
REMARK                         _______ _______ _______ _____ _____    ______ ____
ROOT
ATOM      1  C   UNL     1       4.279   6.201  17.440  0.00  0.00    +0.000 A 
ATOM      2  N   UNL     1       3.608   6.837  18.450  0.00  0.00    +0.000 N 
ATOM      3  C   UNL     1       2.687   5.996  19.033  0.00  0.00    +0.000 A 
ATOM      4  C   UNL     1       2.764   4.762  18.387  0.00  0.00    +0.000 A 
ATOM      5  C   UNL     1       3.792   4.903  17.382  0.00  0.00    +0.000 A 
ATOM      6  C   UNL     1       4.287   3.879  16.411  0.00  0.00    +0.000 C 
ATOM      7  H   UNL     1       3.746   7.812  18.702  0.00  0.00    +0.000 HD
ENDROOT
BRANCH   1   8
ATOM      8  C   UNL     1       5.318   6.793  16.633  0.00  0.00    +0.000 C 
ATOM      9  O   UNL     1       5.284   6.902  15.407  0.00  0.00    +0.000 OA
BRANCH   8  10
ATOM     10  O   UNL     1       6.381   7.133  17.404  0.00  0.00    +0.000 OA
BRANCH  10  12
ATOM     11  C   UNL     1       7.662   5.862  18.958  0.00  0.00    +0.000 C 
ATOM     12  C   UNL     1       7.384   6.112  17.487  0.00  0.00    +0.000 C 
ENDBRANCH  10  12
ENDBRANCH   8  10
ENDBRANCH   1   8
BRANCH   4  13
ATOM     13  C   UNL     1       1.970   3.543  18.609  0.00  0.00    +0.000 C 
ATOM     14  O   UNL     1       0.938   3.309  17.991  0.00  0.00    +0.000 OA
BRANCH  13  15
ATOM     15  O   UNL     1       2.432   2.739  19.611  0.00  0.00    +0.000 OA
BRANCH  15  16
ATOM     16  C   UNL     1       1.512   2.597  20.708  0.00  0.00    +0.000 C 
ATOM     17  C   UNL     1       2.158   3.209  21.936  0.00  0.00    +0.000 C 
ENDBRANCH  15  16
ENDBRANCH  13  15
ENDBRANCH   4  13
BRANCH   3  18
ATOM     18  C   UNL     1       1.842   6.534  20.140  0.00  0.00    +0.000 C 
BRANCH  18  19
ATOM     19  O   UNL     1       1.804   7.961  19.997  0.00  0.00    +0.000 OA
BRANCH  19  20
ATOM     20  C   UNL     1       1.202   8.685  20.979  0.00  0.00    +0.000 C 
ATOM     21  O   UNL     1       1.630   8.790  22.123  0.00  0.00    +0.000 OA
BRANCH  20  22
ATOM     22  C   UNL     1      -0.059   9.384  20.487  0.00  0.00    +0.000 C 
BRANCH  22  23
ATOM     23  C   UNL     1       0.216  10.841  20.136  0.00  0.00    +0.000 C 
BRANCH  23  24
ATOM     24  O   UNL     1       0.034  11.155  18.746  0.00  0.00    +0.000 OA
BRANCH  24  25
ATOM     25  C   UNL     1      -1.275  11.004  18.316  0.00  0.00    +0.000 A 
ATOM     26  C   UNL     1      -1.623  10.009  17.374  0.00  0.00    +0.000 A 
ATOM     27  C   UNL     1      -2.931   9.835  16.918  0.00  0.00    +0.000 A 
ATOM     28  C   UNL     1      -3.939  10.637  17.419  0.00  0.00    +0.000 A 
ATOM     29  C   UNL     1      -3.624  11.603  18.371  0.00  0.00    +0.000 A 
ATOM     30  C   UNL     1      -2.307  11.809  18.830  0.00  0.00    +0.000 A 
BRANCH  30  31
ATOM     31  O   UNL     1      -2.275  12.820  19.746  0.00  0.00    +0.000 OA
ATOM     32  C   UNL     1      -2.996  12.721  20.956  0.00  0.00    +0.000 C 
ENDBRANCH  30  31
ENDBRANCH  24  25
ENDBRANCH  23  24
ENDBRANCH  22  23
ENDBRANCH  20  22
ENDBRANCH  19  20
ENDBRANCH  18  19
ENDBRANCH   3  18
TORSDOF 14
ENDMDL
MODEL 2
REMARK VINA RESULT:      -6.8      1.103      3.916
REMARK  Name = 
REMARK  18 active torsions:
REMARK  status: ('A' for Active; 'I' for Inactive)
REMARK    1  A    between atoms: C_1  and  C_2
REMARK    2  A    between atoms: C_2  and  O_3
REMARK    3  A    between atoms: O_3  and  C_4
REMARK    4  A    between atoms: C_4  and  C_6
REMARK    5  A    between atoms: C_8  and  C_9
REMARK    6  A    between atoms: C_9  and  O_10
REMARK    7  A    between atoms: O_10  and  C_11
REMARK    8  A    between atoms: C_11  and  C_13
REMARK    9  A    between atoms: C_13  and  C_14
REMARK   10  A    between atoms: C_14  and  O_15
REMARK   11  A    between atoms: O_15  and  C_16
REMARK   12  A    between atoms: C_21  and  O_22
REMARK   13  A    between atoms: O_22  and  C_23
REMARK   14  A    between atoms: C_24  and  C_25
REMARK   15  A    between atoms: C_25  and  O_27
REMARK   16  A    between atoms: O_27  and  C_28
REMARK   17  A    between atoms: C_28  and  C_29
REMARK   18  A    between atoms: C_30  and  C_31
REMARK                            x       y       z     vdW  Elec       q    Type
REMARK                         _______ _______ _______ _____ _____    ______ ____
ROOT
ATOM      1  C   UNL     1       2.439   4.807  18.055  0.00  0.00    +0.000 A 
ATOM      2  N   UNL     1       2.022   6.095  18.260  0.00  0.00    +0.000 N 
ATOM      3  C   UNL     1       2.956   6.993  17.795  0.00  0.00    +0.000 A 
ATOM      4  C   UNL     1       4.019   6.266  17.257  0.00  0.00    +0.000 A 
ATOM      5  C   UNL     1       3.669   4.873  17.419  0.00  0.00    +0.000 A 
ATOM      6  C   UNL     1       4.452   3.667  17.008  0.00  0.00    +0.000 C 
ATOM      7  H   UNL     1       1.158   6.348  18.732  0.00  0.00    +0.000 HD
ENDROOT
BRANCH   1   8
ATOM      8  C   UNL     1       1.691   3.626  18.415  0.00  0.00    +0.000 C 
ATOM      9  O   UNL     1       0.718   3.192  17.799  0.00  0.00    +0.000 OA
BRANCH   8  10
ATOM     10  O   UNL     1       2.155   3.108  19.580  0.00  0.00    +0.000 OA
BRANCH  10  12
ATOM     11  C   UNL     1       2.085   2.998  21.958  0.00  0.00    +0.000 C 
ATOM     12  C   UNL     1       1.313   3.380  20.708  0.00  0.00    +0.000 C 
ENDBRANCH  10  12
ENDBRANCH   8  10
ENDBRANCH   1   8
BRANCH   4  13
ATOM     13  C   UNL     1       5.276   6.752  16.668  0.00  0.00    +0.000 C 
ATOM     14  O   UNL     1       5.473   6.769  15.459  0.00  0.00    +0.000 OA
BRANCH  13  15
ATOM     15  O   UNL     1       6.230   7.104  17.579  0.00  0.00    +0.000 OA
BRANCH  15  16
ATOM     16  C   UNL     1       7.518   6.514  17.324  0.00  0.00    +0.000 C 
ATOM     17  C   UNL     1       7.642   5.278  18.194  0.00  0.00    +0.000 C 
ENDBRANCH  15  16
ENDBRANCH  13  15
ENDBRANCH   4  13
BRANCH   3  18
ATOM     18  C   UNL     1       2.678   8.450  17.961  0.00  0.00    +0.000 C 
BRANCH  18  19
ATOM     19  O   UNL     1       1.383   8.575  18.565  0.00  0.00    +0.000 OA
BRANCH  19  20
ATOM     20  C   UNL     1       1.324   8.820  19.902  0.00  0.00    +0.000 C 
ATOM     21  O   UNL     1       1.725   8.049  20.766  0.00  0.00    +0.000 OA
BRANCH  20  22
ATOM     22  C   UNL     1       0.725  10.187  20.209  0.00  0.00    +0.000 C 
BRANCH  22  23
ATOM     23  C   UNL     1      -0.146  10.680  19.060  0.00  0.00    +0.000 C 
BRANCH  23  24
ATOM     24  O   UNL     1      -1.555  10.645  19.335  0.00  0.00    +0.000 OA
BRANCH  24  25
ATOM     25  C   UNL     1      -2.340  10.707  18.194  0.00  0.00    +0.000 A 
ATOM     26  C   UNL     1      -1.922  10.101  16.987  0.00  0.00    +0.000 A 
ATOM     27  C   UNL     1      -2.687  10.149  15.821  0.00  0.00    +0.000 A 
ATOM     28  C   UNL     1      -3.916  10.782  15.839  0.00  0.00    +0.000 A 
ATOM     29  C   UNL     1      -4.363  11.358  17.025  0.00  0.00    +0.000 A 
ATOM     30  C   UNL     1      -3.596  11.338  18.209  0.00  0.00    +0.000 A 
BRANCH  30  31
ATOM     31  O   UNL     1      -4.257  11.982  19.214  0.00  0.00    +0.000 OA
ATOM     32  C   UNL     1      -3.558  12.799  20.130  0.00  0.00    +0.000 C 
ENDBRANCH  30  31
ENDBRANCH  24  25
ENDBRANCH  23  24
ENDBRANCH  22  23
ENDBRANCH  20  22
ENDBRANCH  19  20
ENDBRANCH  18  19
ENDBRANCH   3  18
TORSDOF 14
ENDMDL
MODEL 3
REMARK VINA RESULT:      -6.8      1.269      1.474
REMARK  Name = 
REMARK  18 active torsions:
REMARK  status: ('A' for Active; 'I' for Inactive)
REMARK    1  A    between atoms: C_1  and  C_2
REMARK    2  A    between atoms: C_2  and  O_3
REMARK    3  A    between atoms: O_3  and  C_4
REMARK    4  A    between atoms: C_4  and  C_6
REMARK    5  A    between atoms: C_8  and  C_9
REMARK    6  A    between atoms: C_9  and  O_10
REMARK    7  A    between atoms: O_10  and  C_11
REMARK    8  A    between atoms: C_11  and  C_13
REMARK    9  A    between atoms: C_13  and  C_14
REMARK   10  A    between atoms: C_14  and  O_15
REMARK   11  A    between atoms: O_15  and  C_16
REMARK   12  A    between atoms: C_21  and  O_22
REMARK   13  A    between atoms: O_22  and  C_23
REMARK   14  A    between atoms: C_24  and  C_25
REMARK   15  A    between atoms: C_25  and  O_27
REMARK   16  A    between atoms: O_27  and  C_28
REMARK   17  A    between atoms: C_28  and  C_29
REMARK   18  A    between atoms: C_30  and  C_31
REMARK                            x       y       z     vdW  Elec       q    Type
REMARK                         _______ _______ _______ _____ _____    ______ ____
ROOT
ATOM      1  C   UNL     1       4.249   6.049  17.265  0.00  0.00    +0.000 A 
ATOM      2  N   UNL     1       3.731   7.017  18.083  0.00  0.00    +0.000 N 
ATOM      3  C   UNL     1       2.677   6.523  18.819  0.00  0.00    +0.000 A 
ATOM      4  C   UNL     1       2.506   5.181  18.477  0.00  0.00    +0.000 A 
ATOM      5  C   UNL     1       3.523   4.889  17.493  0.00  0.00    +0.000 A 
ATOM      6  C   UNL     1       3.796   3.595  16.796  0.00  0.00    +0.000 C 
ATOM      7  H   UNL     1       4.056   7.979  18.108  0.00  0.00    +0.000 HD
ENDROOT
BRANCH   1   8
ATOM      8  C   UNL     1       5.368   6.231  16.371  0.00  0.00    +0.000 C 
ATOM      9  O   UNL     1       5.308   6.770  15.266  0.00  0.00    +0.000 OA
BRANCH   8  10
ATOM     10  O   UNL     1       6.481   5.645  16.878  0.00  0.00    +0.000 OA
BRANCH  10  12
ATOM     11  C   UNL     1       7.687   5.824  18.925  0.00  0.00    +0.000 C 
ATOM     12  C   UNL     1       7.306   6.536  17.639  0.00  0.00    +0.000 C 
ENDBRANCH  10  12
ENDBRANCH   8  10
ENDBRANCH   1   8
BRANCH   4  13
ATOM     13  C   UNL     1       1.498   4.220  18.951  0.00  0.00    +0.000 C 
ATOM     14  O   UNL     1       0.961   3.409  18.206  0.00  0.00    +0.000 OA
BRANCH  13  15
ATOM     15  O   UNL     1       1.155   4.360  20.265  0.00  0.00    +0.000 OA
BRANCH  15  16
ATOM     16  C   UNL     1       2.164   3.891  21.178  0.00  0.00    +0.000 C 
ATOM     17  C   UNL     1       1.704   2.556  21.731  0.00  0.00    +0.000 C 
ENDBRANCH  15  16
ENDBRANCH  13  15
ENDBRANCH   4  13
BRANCH   3  18
ATOM     18  C   UNL     1       1.970   7.452  19.750  0.00  0.00    +0.000 C 
BRANCH  18  19
ATOM     19  O   UNL     1       1.877   8.726  19.098  0.00  0.00    +0.000 OA
BRANCH  19  20
ATOM     20  C   UNL     1       1.032   9.653  19.625  0.00  0.00    +0.000 C 
ATOM     21  O   UNL     1       0.713   9.706  20.807  0.00  0.00    +0.000 OA
BRANCH  20  22
ATOM     22  C   UNL     1       0.546  10.647  18.578  0.00  0.00    +0.000 C 
BRANCH  22  23
ATOM     23  C   UNL     1      -0.646  11.448  19.087  0.00  0.00    +0.000 C 
BRANCH  23  24
ATOM     24  O   UNL     1      -1.875  10.706  19.134  0.00  0.00    +0.000 OA
BRANCH  24  25
ATOM     25  C   UNL     1      -2.552  10.686  17.924  0.00  0.00    +0.000 A 
ATOM     26  C   UNL     1      -2.055   9.953  16.822  0.00  0.00    +0.000 A 
ATOM     27  C   UNL     1      -2.710   9.916  15.591  0.00  0.00    +0.000 A 
ATOM     28  C   UNL     1      -3.907  10.591  15.436  0.00  0.00    +0.000 A 
ATOM     29  C   UNL     1      -4.432  11.293  16.518  0.00  0.00    +0.000 A 
ATOM     30  C   UNL     1      -3.776  11.360  17.765  0.00  0.00    +0.000 A 
BRANCH  30  31
ATOM     31  O   UNL     1      -4.494  12.120  18.641  0.00  0.00    +0.000 OA
ATOM     32  C   UNL     1      -5.686  11.625  19.216  0.00  0.00    +0.000 C 
ENDBRANCH  30  31
ENDBRANCH  24  25
ENDBRANCH  23  24
ENDBRANCH  22  23
ENDBRANCH  20  22
ENDBRANCH  19  20
ENDBRANCH  18  19
ENDBRANCH   3  18
TORSDOF 14
ENDMDL
MODEL 4
REMARK VINA RESULT:      -6.7      1.652      4.476
REMARK  Name = 
REMARK  18 active torsions:
REMARK  status: ('A' for Active; 'I' for Inactive)
REMARK    1  A    between atoms: C_1  and  C_2
REMARK    2  A    between atoms: C_2  and  O_3
REMARK    3  A    between atoms: O_3  and  C_4
REMARK    4  A    between atoms: C_4  and  C_6
REMARK    5  A    between atoms: C_8  and  C_9
REMARK    6  A    between atoms: C_9  and  O_10
REMARK    7  A    between atoms: O_10  and  C_11
REMARK    8  A    between atoms: C_11  and  C_13
REMARK    9  A    between atoms: C_13  and  C_14
REMARK   10  A    between atoms: C_14  and  O_15
REMARK   11  A    between atoms: O_15  and  C_16
REMARK   12  A    between atoms: C_21  and  O_22
REMARK   13  A    between atoms: O_22  and  C_23
REMARK   14  A    between atoms: C_24  and  C_25
REMARK   15  A    between atoms: C_25  and  O_27
REMARK   16  A    between atoms: O_27  and  C_28
REMARK   17  A    between atoms: C_28  and  C_29
REMARK   18  A    between atoms: C_30  and  C_31
REMARK                            x       y       z     vdW  Elec       q    Type
REMARK                         _______ _______ _______ _____ _____    ______ ____
ROOT
ATOM      1  C   UNL     1       2.466   5.012  18.172  0.00  0.00    +0.000 A 
ATOM      2  N   UNL     1       2.202   6.355  18.163  0.00  0.00    +0.000 N 
ATOM      3  C   UNL     1       3.262   7.060  17.640  0.00  0.00    +0.000 A 
ATOM      4  C   UNL     1       4.253   6.144  17.286  0.00  0.00    +0.000 A 
ATOM      5  C   UNL     1       3.727   4.840  17.619  0.00  0.00    +0.000 A 
ATOM      6  C   UNL     1       4.374   3.505  17.438  0.00  0.00    +0.000 C 
ATOM      7  H   UNL     1       1.352   6.773  18.534  0.00  0.00    +0.000 HD
ENDROOT
BRANCH   1   8
ATOM      8  C   UNL     1       1.561   3.991  18.644  0.00  0.00    +0.000 C 
ATOM      9  O   UNL     1       1.031   3.136  17.935  0.00  0.00    +0.000 OA
BRANCH   8  10
ATOM     10  O   UNL     1       1.305   4.159  19.965  0.00  0.00    +0.000 OA
BRANCH  10  12
ATOM     11  C   UNL     1       1.605   2.586  21.729  0.00  0.00    +0.000 C 
ATOM     12  C   UNL     1       2.300   3.586  20.823  0.00  0.00    +0.000 C 
ENDBRANCH  10  12
ENDBRANCH   8  10
ENDBRANCH   1   8
BRANCH   4  13
ATOM     13  C   UNL     1       5.590   6.389  16.721  0.00  0.00    +0.000 C 
ATOM     14  O   UNL     1       6.509   6.854  17.385  0.00  0.00    +0.000 OA
BRANCH  13  15
ATOM     15  O   UNL     1       5.696   6.134  15.385  0.00  0.00    +0.000 OA
BRANCH  15  16
ATOM     16  C   UNL     1       6.627   5.082  15.070  0.00  0.00    +0.000 C 
ATOM     17  C   UNL     1       5.920   4.093  14.163  0.00  0.00    +0.000 C 
ENDBRANCH  15  16
ENDBRANCH  13  15
ENDBRANCH   4  13
BRANCH   3  18
ATOM     18  C   UNL     1       3.159   8.548  17.579  0.00  0.00    +0.000 C 
BRANCH  18  19
ATOM     19  O   UNL     1       1.783   8.892  17.796  0.00  0.00    +0.000 OA
BRANCH  19  20
ATOM     20  C   UNL     1       1.512  10.040  18.474  0.00  0.00    +0.000 C 
ATOM     21  O   UNL     1       2.043  11.121  18.246  0.00  0.00    +0.000 OA
BRANCH  20  22
ATOM     22  C   UNL     1       0.440   9.840  19.538  0.00  0.00    +0.000 C 
BRANCH  22  23
ATOM     23  C   UNL     1      -0.566  10.984  19.534  0.00  0.00    +0.000 C 
BRANCH  23  24
ATOM     24  O   UNL     1      -1.249  11.161  18.282  0.00  0.00    +0.000 OA
BRANCH  24  25
ATOM     25  C   UNL     1      -2.608  11.392  18.425  0.00  0.00    +0.000 A 
ATOM     26  C   UNL     1      -3.102  12.226  19.454  0.00  0.00    +0.000 A 
ATOM     27  C   UNL     1      -4.464  12.475  19.626  0.00  0.00    +0.000 A 
ATOM     28  C   UNL     1      -5.375  11.917  18.748  0.00  0.00    +0.000 A 
ATOM     29  C   UNL     1      -4.908  11.118  17.707  0.00  0.00    +0.000 A 
ATOM     30  C   UNL     1      -3.538  10.837  17.527  0.00  0.00    +0.000 A 
BRANCH  30  31
ATOM     31  O   UNL     1      -3.356  10.023  16.448  0.00  0.00    +0.000 OA
ATOM     32  C   UNL     1      -3.017  10.561  15.187  0.00  0.00    +0.000 C 
ENDBRANCH  30  31
ENDBRANCH  24  25
ENDBRANCH  23  24
ENDBRANCH  22  23
ENDBRANCH  20  22
ENDBRANCH  19  20
ENDBRANCH  18  19
ENDBRANCH   3  18
TORSDOF 14
ENDMDL
MODEL 5
REMARK VINA RESULT:      -6.7      1.488      1.842
REMARK  Name = 
REMARK  18 active torsions:
REMARK  status: ('A' for Active; 'I' for Inactive)
REMARK    1  A    between atoms: C_1  and  C_2
REMARK    2  A    between atoms: C_2  and  O_3
REMARK    3  A    between atoms: O_3  and  C_4
REMARK    4  A    between atoms: C_4  and  C_6
REMARK    5  A    between atoms: C_8  and  C_9
REMARK    6  A    between atoms: C_9  and  O_10
REMARK    7  A    between atoms: O_10  and  C_11
REMARK    8  A    between atoms: C_11  and  C_13
REMARK    9  A    between atoms: C_13  and  C_14
REMARK   10  A    between atoms: C_14  and  O_15
REMARK   11  A    between atoms: O_15  and  C_16
REMARK   12  A    between atoms: C_21  and  O_22
REMARK   13  A    between atoms: O_22  and  C_23
REMARK   14  A    between atoms: C_24  and  C_25
REMARK   15  A    between atoms: C_25  and  O_27
REMARK   16  A    between atoms: O_27  and  C_28
REMARK   17  A    between atoms: C_28  and  C_29
REMARK   18  A    between atoms: C_30  and  C_31
REMARK                            x       y       z     vdW  Elec       q    Type
REMARK                         _______ _______ _______ _____ _____    ______ ____
ROOT
ATOM      1  C   UNL     1       5.013   5.231  17.804  0.00  0.00    +0.000 A 
ATOM      2  N   UNL     1       4.410   6.460  17.849  0.00  0.00    +0.000 N 
ATOM      3  C   UNL     1       3.074   6.340  18.159  0.00  0.00    +0.000 A 
ATOM      4  C   UNL     1       2.795   4.984  18.332  0.00  0.00    +0.000 A 
ATOM      5  C   UNL     1       4.043   4.290  18.115  0.00  0.00    +0.000 A 
ATOM      6  C   UNL     1       4.312   2.821  18.185  0.00  0.00    +0.000 C 
ATOM      7  H   UNL     1       4.881   7.336  17.638  0.00  0.00    +0.000 HD
ENDROOT
BRANCH   1   8
ATOM      8  C   UNL     1       6.409   5.002  17.518  0.00  0.00    +0.000 C 
ATOM      9  O   UNL     1       7.189   4.393  18.250  0.00  0.00    +0.000 OA
BRANCH   8  10
ATOM     10  O   UNL     1       6.767   5.629  16.369  0.00  0.00    +0.000 OA
BRANCH  10  12
ATOM     11  C   UNL     1       5.927   4.066  14.779  0.00  0.00    +0.000 C 
ATOM     12  C   UNL     1       7.176   4.733  15.327  0.00  0.00    +0.000 C 
ENDBRANCH  10  12
ENDBRANCH   8  10
ENDBRANCH   1   8
BRANCH   4  13
ATOM     13  C   UNL     1       1.513   4.328  18.636  0.00  0.00    +0.000 C 
ATOM     14  O   UNL     1       0.898   3.670  17.806  0.00  0.00    +0.000 OA
BRANCH  13  15
ATOM     15  O   UNL     1       1.030   4.580  19.888  0.00  0.00    +0.000 OA
BRANCH  15  16
ATOM     16  C   UNL     1       1.893   4.118  20.943  0.00  0.00    +0.000 C 
ATOM     17  C   UNL     1       1.518   2.680  21.250  0.00  0.00    +0.000 C 
ENDBRANCH  15  16
ENDBRANCH  13  15
ENDBRANCH   4  13
BRANCH   3  18
ATOM     18  C   UNL     1       2.250   7.583  18.225  0.00  0.00    +0.000 C 
BRANCH  18  19
ATOM     19  O   UNL     1       1.939   7.819  19.605  0.00  0.00    +0.000 OA
BRANCH  19  20
ATOM     20  C   UNL     1       1.425   9.032  19.944  0.00  0.00    +0.000 C 
ATOM     21  O   UNL     1       1.021   9.325  21.064  0.00  0.00    +0.000 OA
BRANCH  20  22
ATOM     22  C   UNL     1       1.434  10.007  18.774  0.00  0.00    +0.000 C 
BRANCH  22  23
ATOM     23  C   UNL     1       0.159  10.841  18.738  0.00  0.00    +0.000 C 
BRANCH  23  24
ATOM     24  O   UNL     1      -1.047  10.078  18.905  0.00  0.00    +0.000 OA
BRANCH  24  25
ATOM     25  C   UNL     1      -2.019  10.372  17.962  0.00  0.00    +0.000 A 
ATOM     26  C   UNL     1      -2.150   9.601  16.785  0.00  0.00    +0.000 A 
ATOM     27  C   UNL     1      -3.116   9.874  15.815  0.00  0.00    +0.000 A 
ATOM     28  C   UNL     1      -4.004  10.915  16.012  0.00  0.00    +0.000 A 
ATOM     29  C   UNL     1      -3.913  11.669  17.180  0.00  0.00    +0.000 A 
ATOM     30  C   UNL     1      -2.933  11.422  18.163  0.00  0.00    +0.000 A 
BRANCH  30  31
ATOM     31  O   UNL     1      -3.057  12.309  19.191  0.00  0.00    +0.000 OA
ATOM     32  C   UNL     1      -4.097  12.176  20.138  0.00  0.00    +0.000 C 
ENDBRANCH  30  31
ENDBRANCH  24  25
ENDBRANCH  23  24
ENDBRANCH  22  23
ENDBRANCH  20  22
ENDBRANCH  19  20
ENDBRANCH  18  19
ENDBRANCH   3  18
TORSDOF 14
ENDMDL
MODEL 6
REMARK VINA RESULT:      -6.7      1.811      2.424
REMARK  Name = 
REMARK  18 active torsions:
REMARK  status: ('A' for Active; 'I' for Inactive)
REMARK    1  A    between atoms: C_1  and  C_2
REMARK    2  A    between atoms: C_2  and  O_3
REMARK    3  A    between atoms: O_3  and  C_4
REMARK    4  A    between atoms: C_4  and  C_6
REMARK    5  A    between atoms: C_8  and  C_9
REMARK    6  A    between atoms: C_9  and  O_10
REMARK    7  A    between atoms: O_10  and  C_11
REMARK    8  A    between atoms: C_11  and  C_13
REMARK    9  A    between atoms: C_13  and  C_14
REMARK   10  A    between atoms: C_14  and  O_15
REMARK   11  A    between atoms: O_15  and  C_16
REMARK   12  A    between atoms: C_21  and  O_22
REMARK   13  A    between atoms: O_22  and  C_23
REMARK   14  A    between atoms: C_24  and  C_25
REMARK   15  A    between atoms: C_25  and  O_27
REMARK   16  A    between atoms: O_27  and  C_28
REMARK   17  A    between atoms: C_28  and  C_29
REMARK   18  A    between atoms: C_30  and  C_31
REMARK                            x       y       z     vdW  Elec       q    Type
REMARK                         _______ _______ _______ _____ _____    ______ ____
ROOT
ATOM      1  C   UNL     1       6.070   4.761  18.242  0.00  0.00    +0.000 A 
ATOM      2  N   UNL     1       5.370   5.041  19.385  0.00  0.00    +0.000 N 
ATOM      3  C   UNL     1       4.058   4.640  19.267  0.00  0.00    +0.000 A 
ATOM      4  C   UNL     1       3.896   4.068  18.004  0.00  0.00    +0.000 A 
ATOM      5  C   UNL     1       5.191   4.141  17.366  0.00  0.00    +0.000 A 
ATOM      6  C   UNL     1       5.582   3.665  16.004  0.00  0.00    +0.000 C 
ATOM      7  H   UNL     1       5.760   5.520  20.192  0.00  0.00    +0.000 HD
ENDROOT
BRANCH   1   8
ATOM      8  C   UNL     1       7.471   5.042  18.038  0.00  0.00    +0.000 C 
ATOM      9  O   UNL     1       8.307   4.222  17.659  0.00  0.00    +0.000 OA
BRANCH   8  10
ATOM     10  O   UNL     1       7.758   6.315  18.408  0.00  0.00    +0.000 OA
BRANCH  10  12
ATOM     11  C   UNL     1       8.093   8.601  17.827  0.00  0.00    +0.000 C 
ATOM     12  C   UNL     1       7.457   7.290  17.401  0.00  0.00    +0.000 C 
ENDBRANCH  10  12
ENDBRANCH   8  10
ENDBRANCH   1   8
BRANCH   4  13
ATOM     13  C   UNL     1       2.683   3.521  17.378  0.00  0.00    +0.000 C 
ATOM     14  O   UNL     1       1.843   4.232  16.839  0.00  0.00    +0.000 OA
BRANCH  13  15
ATOM     15  O   UNL     1       2.532   2.172  17.516  0.00  0.00    +0.000 OA
BRANCH  15  16
ATOM     16  C   UNL     1       2.173   1.765  18.850  0.00  0.00    +0.000 C 
ATOM     17  C   UNL     1       0.740   2.195  19.095  0.00  0.00    +0.000 C 
ENDBRANCH  15  16
ENDBRANCH  13  15
ENDBRANCH   4  13
BRANCH   3  18
ATOM     18  C   UNL     1       3.136   4.892  20.414  0.00  0.00    +0.000 C 
BRANCH  18  19
ATOM     19  O   UNL     1       1.993   5.590  19.901  0.00  0.00    +0.000 OA
BRANCH  19  20
ATOM     20  C   UNL     1       2.116   6.922  19.654  0.00  0.00    +0.000 C 
ATOM     21  O   UNL     1       2.365   7.402  18.555  0.00  0.00    +0.000 OA
BRANCH  20  22
ATOM     22  C   UNL     1       1.876   7.762  20.902  0.00  0.00    +0.000 C 
BRANCH  22  23
ATOM     23  C   UNL     1       0.659   8.663  20.738  0.00  0.00    +0.000 C 
BRANCH  23  24
ATOM     24  O   UNL     1       0.930   9.898  20.057  0.00  0.00    +0.000 OA
BRANCH  24  25
ATOM     25  C   UNL     1      -0.215  10.563  19.646  0.00  0.00    +0.000 A 
ATOM     26  C   UNL     1      -0.765  10.345  18.363  0.00  0.00    +0.000 A 
ATOM     27  C   UNL     1      -1.914  11.001  17.919  0.00  0.00    +0.000 A 
ATOM     28  C   UNL     1      -2.567  11.878  18.766  0.00  0.00    +0.000 A 
ATOM     29  C   UNL     1      -2.060  12.084  20.047  0.00  0.00    +0.000 A 
ATOM     30  C   UNL     1      -0.890  11.446  20.507  0.00  0.00    +0.000 A 
BRANCH  30  31
ATOM     31  O   UNL     1      -0.609  11.833  21.785  0.00  0.00    +0.000 OA
ATOM     32  C   UNL     1      -1.158  11.139  22.887  0.00  0.00    +0.000 C 
ENDBRANCH  30  31
ENDBRANCH  24  25
ENDBRANCH  23  24
ENDBRANCH  22  23
ENDBRANCH  20  22
ENDBRANCH  19  20
ENDBRANCH  18  19
ENDBRANCH   3  18
TORSDOF 14
ENDMDL
MODEL 7
REMARK VINA RESULT:      -6.7      1.824      2.764
REMARK  Name = 
REMARK  18 active torsions:
REMARK  status: ('A' for Active; 'I' for Inactive)
REMARK    1  A    between atoms: C_1  and  C_2
REMARK    2  A    between atoms: C_2  and  O_3
REMARK    3  A    between atoms: O_3  and  C_4
REMARK    4  A    between atoms: C_4  and  C_6
REMARK    5  A    between atoms: C_8  and  C_9
REMARK    6  A    between atoms: C_9  and  O_10
REMARK    7  A    between atoms: O_10  and  C_11
REMARK    8  A    between atoms: C_11  and  C_13
REMARK    9  A    between atoms: C_13  and  C_14
REMARK   10  A    between atoms: C_14  and  O_15
REMARK   11  A    between atoms: O_15  and  C_16
REMARK   12  A    between atoms: C_21  and  O_22
REMARK   13  A    between atoms: O_22  and  C_23
REMARK   14  A    between atoms: C_24  and  C_25
REMARK   15  A    between atoms: C_25  and  O_27
REMARK   16  A    between atoms: O_27  and  C_28
REMARK   17  A    between atoms: C_28  and  C_29
REMARK   18  A    between atoms: C_30  and  C_31
REMARK                            x       y       z     vdW  Elec       q    Type
REMARK                         _______ _______ _______ _____ _____    ______ ____
ROOT
ATOM      1  C   UNL     1       5.034   5.890  16.989  0.00  0.00    +0.000 A 
ATOM      2  N   UNL     1       4.423   6.964  17.578  0.00  0.00    +0.000 N 
ATOM      3  C   UNL     1       3.362   6.559  18.357  0.00  0.00    +0.000 A 
ATOM      4  C   UNL     1       3.282   5.168  18.283  0.00  0.00    +0.000 A 
ATOM      5  C   UNL     1       4.362   4.754  17.417  0.00  0.00    +0.000 A 
ATOM      6  C   UNL     1       4.739   3.367  17.003  0.00  0.00    +0.000 C 
ATOM      7  H   UNL     1       4.694   7.931  17.423  0.00  0.00    +0.000 HD
ENDROOT
BRANCH   1   8
ATOM      8  C   UNL     1       6.184   5.963  16.120  0.00  0.00    +0.000 C 
ATOM      9  O   UNL     1       7.286   6.403  16.445  0.00  0.00    +0.000 OA
BRANCH   8  10
ATOM     10  O   UNL     1       5.857   5.560  14.867  0.00  0.00    +0.000 OA
BRANCH  10  12
ATOM     11  C   UNL     1       5.968   3.747  13.326  0.00  0.00    +0.000 C 
ATOM     12  C   UNL     1       6.752   4.580  14.325  0.00  0.00    +0.000 C 
ENDBRANCH  10  12
ENDBRANCH   8  10
ENDBRANCH   1   8
BRANCH   4  13
ATOM     13  C   UNL     1       2.306   4.257  18.901  0.00  0.00    +0.000 C 
ATOM     14  O   UNL     1       1.469   3.647  18.245  0.00  0.00    +0.000 OA
BRANCH  13  15
ATOM     15  O   UNL     1       2.358   4.210  20.264  0.00  0.00    +0.000 OA
BRANCH  15  16
ATOM     16  C   UNL     1       2.648   2.900  20.786  0.00  0.00    +0.000 C 
ATOM     17  C   UNL     1       1.478   2.479  21.654  0.00  0.00    +0.000 C 
ENDBRANCH  15  16
ENDBRANCH  13  15
ENDBRANCH   4  13
BRANCH   3  18
ATOM     18  C   UNL     1       2.560   7.606  19.057  0.00  0.00    +0.000 C 
BRANCH  18  19
ATOM     19  O   UNL     1       1.726   8.236  18.074  0.00  0.00    +0.000 OA
BRANCH  19  20
ATOM     20  C   UNL     1       1.621   9.592  18.102  0.00  0.00    +0.000 C 
ATOM     21  O   UNL     1       2.406  10.358  17.556  0.00  0.00    +0.000 OA
BRANCH  20  22
ATOM     22  C   UNL     1       0.389  10.057  18.868  0.00  0.00    +0.000 C 
BRANCH  22  23
ATOM     23  C   UNL     1      -0.794  10.277  17.933  0.00  0.00    +0.000 C 
BRANCH  23  24
ATOM     24  O   UNL     1      -1.361  11.595  18.003  0.00  0.00    +0.000 OA
BRANCH  24  25
ATOM     25  C   UNL     1      -2.745  11.603  17.937  0.00  0.00    +0.000 A 
ATOM     26  C   UNL     1      -3.529  11.845  19.088  0.00  0.00    +0.000 A 
ATOM     27  C   UNL     1      -4.924  11.856  19.055  0.00  0.00    +0.000 A 
ATOM     28  C   UNL     1      -5.578  11.653  17.854  0.00  0.00    +0.000 A 
ATOM     29  C   UNL     1      -4.825  11.445  16.701  0.00  0.00    +0.000 A 
ATOM     30  C   UNL     1      -3.416  11.410  16.716  0.00  0.00    +0.000 A 
BRANCH  30  31
ATOM     31  O   UNL     1      -2.932  11.177  15.462  0.00  0.00    +0.000 OA
ATOM     32  C   UNL     1      -2.995   9.885  14.893  0.00  0.00    +0.000 C 
ENDBRANCH  30  31
ENDBRANCH  24  25
ENDBRANCH  23  24
ENDBRANCH  22  23
ENDBRANCH  20  22
ENDBRANCH  19  20
ENDBRANCH  18  19
ENDBRANCH   3  18
TORSDOF 14
ENDMDL
MODEL 8
REMARK VINA RESULT:      -6.7      1.787      2.644
REMARK  Name = 
REMARK  18 active torsions:
REMARK  status: ('A' for Active; 'I' for Inactive)
REMARK    1  A    between atoms: C_1  and  C_2
REMARK    2  A    between atoms: C_2  and  O_3
REMARK    3  A    between atoms: O_3  and  C_4
REMARK    4  A    between atoms: C_4  and  C_6
REMARK    5  A    between atoms: C_8  and  C_9
REMARK    6  A    between atoms: C_9  and  O_10
REMARK    7  A    between atoms: O_10  and  C_11
REMARK    8  A    between atoms: C_11  and  C_13
REMARK    9  A    between atoms: C_13  and  C_14
REMARK   10  A    between atoms: C_14  and  O_15
REMARK   11  A    between atoms: O_15  and  C_16
REMARK   12  A    between atoms: C_21  and  O_22
REMARK   13  A    between atoms: O_22  and  C_23
REMARK   14  A    between atoms: C_24  and  C_25
REMARK   15  A    between atoms: C_25  and  O_27
REMARK   16  A    between atoms: O_27  and  C_28
REMARK   17  A    between atoms: C_28  and  C_29
REMARK   18  A    between atoms: C_30  and  C_31
REMARK                            x       y       z     vdW  Elec       q    Type
REMARK                         _______ _______ _______ _____ _____    ______ ____
ROOT
ATOM      1  C   UNL     1       5.198   5.483  16.984  0.00  0.00    +0.000 A 
ATOM      2  N   UNL     1       4.651   6.534  17.671  0.00  0.00    +0.000 N 
ATOM      3  C   UNL     1       3.412   6.201  18.170  0.00  0.00    +0.000 A 
ATOM      4  C   UNL     1       3.142   4.882  17.804  0.00  0.00    +0.000 A 
ATOM      5  C   UNL     1       4.295   4.433  17.058  0.00  0.00    +0.000 A 
ATOM      6  C   UNL     1       4.535   3.094  16.439  0.00  0.00    +0.000 C 
ATOM      7  H   UNL     1       5.088   7.447  17.761  0.00  0.00    +0.000 HD
ENDROOT
BRANCH   1   8
ATOM      8  C   UNL     1       6.492   5.494  16.345  0.00  0.00    +0.000 C 
ATOM      9  O   UNL     1       7.570   5.412  16.934  0.00  0.00    +0.000 OA
BRANCH   8  10
ATOM     10  O   UNL     1       6.361   5.697  15.010  0.00  0.00    +0.000 OA
BRANCH  10  12
ATOM     11  C   UNL     1       6.073   3.970  13.395  0.00  0.00    +0.000 C 
ATOM     12  C   UNL     1       7.086   4.754  14.210  0.00  0.00    +0.000 C 
ENDBRANCH  10  12
ENDBRANCH   8  10
ENDBRANCH   1   8
BRANCH   4  13
ATOM     13  C   UNL     1       1.941   4.072  18.058  0.00  0.00    +0.000 C 
ATOM     14  O   UNL     1       0.881   4.264  17.473  0.00  0.00    +0.000 OA
BRANCH  13  15
ATOM     15  O   UNL     1       2.081   3.146  19.051  0.00  0.00    +0.000 OA
BRANCH  15  16
ATOM     16  C   UNL     1       1.230   3.383  20.187  0.00  0.00    +0.000 C 
ATOM     17  C   UNL     1       2.009   4.221  21.183  0.00  0.00    +0.000 C 
ENDBRANCH  15  16
ENDBRANCH  13  15
ENDBRANCH   4  13
BRANCH   3  18
ATOM     18  C   UNL     1       2.654   7.240  18.928  0.00  0.00    +0.000 C 
BRANCH  18  19
ATOM     19  O   UNL     1       1.720   7.839  18.019  0.00  0.00    +0.000 OA
BRANCH  19  20
ATOM     20  C   UNL     1       1.672   9.197  17.956  0.00  0.00    +0.000 C 
ATOM     21  O   UNL     1       2.535   9.897  17.439  0.00  0.00    +0.000 OA
BRANCH  20  22
ATOM     22  C   UNL     1       0.399   9.756  18.577  0.00  0.00    +0.000 C 
BRANCH  22  23
ATOM     23  C   UNL     1       0.558  11.228  18.939  0.00  0.00    +0.000 C 
BRANCH  23  24
ATOM     24  O   UNL     1      -0.242  12.117  18.145  0.00  0.00    +0.000 OA
BRANCH  24  25
ATOM     25  C   UNL     1      -1.595  12.054  18.443  0.00  0.00    +0.000 A 
ATOM     26  C   UNL     1      -2.108  12.628  19.628  0.00  0.00    +0.000 A 
ATOM     27  C   UNL     1      -3.463  12.577  19.958  0.00  0.00    +0.000 A 
ATOM     28  C   UNL     1      -4.354  11.973  19.090  0.00  0.00    +0.000 A 
ATOM     29  C   UNL     1      -3.874  11.429  17.901  0.00  0.00    +0.000 A 
ATOM     30  C   UNL     1      -2.507  11.452  17.558  0.00  0.00    +0.000 A 
BRANCH  30  31
ATOM     31  O   UNL     1      -2.308  10.842  16.354  0.00  0.00    +0.000 OA
ATOM     32  C   UNL     1      -3.283  10.919  15.335  0.00  0.00    +0.000 C 
ENDBRANCH  30  31
ENDBRANCH  24  25
ENDBRANCH  23  24
ENDBRANCH  22  23
ENDBRANCH  20  22
ENDBRANCH  19  20
ENDBRANCH  18  19
ENDBRANCH   3  18
TORSDOF 14
ENDMDL
MODEL 9
REMARK VINA RESULT:      -6.6      1.217      2.017
REMARK  Name = 
REMARK  18 active torsions:
REMARK  status: ('A' for Active; 'I' for Inactive)
REMARK    1  A    between atoms: C_1  and  C_2
REMARK    2  A    between atoms: C_2  and  O_3
REMARK    3  A    between atoms: O_3  and  C_4
REMARK    4  A    between atoms: C_4  and  C_6
REMARK    5  A    between atoms: C_8  and  C_9
REMARK    6  A    between atoms: C_9  and  O_10
REMARK    7  A    between atoms: O_10  and  C_11
REMARK    8  A    between atoms: C_11  and  C_13
REMARK    9  A    between atoms: C_13  and  C_14
REMARK   10  A    between atoms: C_14  and  O_15
REMARK   11  A    between atoms: O_15  and  C_16
REMARK   12  A    between atoms: C_21  and  O_22
REMARK   13  A    between atoms: O_22  and  C_23
REMARK   14  A    between atoms: C_24  and  C_25
REMARK   15  A    between atoms: C_25  and  O_27
REMARK   16  A    between atoms: O_27  and  C_28
REMARK   17  A    between atoms: C_28  and  C_29
REMARK   18  A    between atoms: C_30  and  C_31
REMARK                            x       y       z     vdW  Elec       q    Type
REMARK                         _______ _______ _______ _____ _____    ______ ____
ROOT
ATOM      1  C   UNL     1       4.477   6.153  17.136  0.00  0.00    +0.000 A 
ATOM      2  N   UNL     1       3.742   6.958  17.964  0.00  0.00    +0.000 N 
ATOM      3  C   UNL     1       2.787   6.228  18.637  0.00  0.00    +0.000 A 
ATOM      4  C   UNL     1       2.908   4.896  18.241  0.00  0.00    +0.000 A 
ATOM      5  C   UNL     1       3.998   4.860  17.293  0.00  0.00    +0.000 A 
ATOM      6  C   UNL     1       4.555   3.680  16.565  0.00  0.00    +0.000 C 
ATOM      7  H   UNL     1       3.861   7.965  18.037  0.00  0.00    +0.000 HD
ENDROOT
BRANCH   1   8
ATOM      8  C   UNL     1       5.564   6.597  16.298  0.00  0.00    +0.000 C 
ATOM      9  O   UNL     1       5.555   6.590  15.067  0.00  0.00    +0.000 OA
BRANCH   8  10
ATOM     10  O   UNL     1       6.636   6.942  17.055  0.00  0.00    +0.000 OA
BRANCH  10  12
ATOM     11  C   UNL     1       7.698   5.872  18.900  0.00  0.00    +0.000 C 
ATOM     12  C   UNL     1       7.480   5.835  17.397  0.00  0.00    +0.000 C 
ENDBRANCH  10  12
ENDBRANCH   8  10
ENDBRANCH   1   8
BRANCH   4  13
ATOM     13  C   UNL     1       2.104   3.730  18.639  0.00  0.00    +0.000 C 
ATOM     14  O   UNL     1       0.922   3.612  18.337  0.00  0.00    +0.000 OA
BRANCH  13  15
ATOM     15  O   UNL     1       2.758   2.834  19.435  0.00  0.00    +0.000 OA
BRANCH  15  16
ATOM     16  C   UNL     1       2.983   3.310  20.775  0.00  0.00    +0.000 C 
ATOM     17  C   UNL     1       1.732   3.023  21.583  0.00  0.00    +0.000 C 
ENDBRANCH  15  16
ENDBRANCH  13  15
ENDBRANCH   4  13
BRANCH   3  18
ATOM     18  C   UNL     1       1.872   6.952  19.568  0.00  0.00    +0.000 C 
BRANCH  18  19
ATOM     19  O   UNL     1       2.200   8.347  19.494  0.00  0.00    +0.000 OA
BRANCH  19  20
ATOM     20  C   UNL     1       1.433   9.141  18.699  0.00  0.00    +0.000 C 
ATOM     21  O   UNL     1       1.687   9.401  17.528  0.00  0.00    +0.000 OA
BRANCH  20  22
ATOM     22  C   UNL     1       0.194   9.654  19.422  0.00  0.00    +0.000 C 
BRANCH  22  23
ATOM     23  C   UNL     1       0.125  11.176  19.393  0.00  0.00    +0.000 C 
BRANCH  23  24
ATOM     24  O   UNL     1      -0.518  11.712  18.227  0.00  0.00    +0.000 OA
BRANCH  24  25
ATOM     25  C   UNL     1      -1.900  11.748  18.328  0.00  0.00    +0.000 A 
ATOM     26  C   UNL     1      -2.533  12.245  19.490  0.00  0.00    +0.000 A 
ATOM     27  C   UNL     1      -3.922  12.290  19.624  0.00  0.00    +0.000 A 
ATOM     28  C   UNL     1      -4.721  11.866  18.578  0.00  0.00    +0.000 A 
ATOM     29  C   UNL     1      -4.118  11.403  17.411  0.00  0.00    +0.000 A 
ATOM     30  C   UNL     1      -2.718  11.330  17.263  0.00  0.00    +0.000 A 
BRANCH  30  31
ATOM     31  O   UNL     1      -2.395  10.830  16.036  0.00  0.00    +0.000 OA
ATOM     32  C   UNL     1      -3.393  10.605  15.062  0.00  0.00    +0.000 C 
ENDBRANCH  30  31
ENDBRANCH  24  25
ENDBRANCH  23  24
ENDBRANCH  22  23
ENDBRANCH  20  22
ENDBRANCH  19  20
ENDBRANCH  18  19
ENDBRANCH   3  18
TORSDOF 14
ENDMDL
