MODEL 1
REMARK VINA RESULT:      -7.6      0.000      0.000
REMARK  Name = 
REMARK  6 active torsions:
REMARK  status: ('A' for Active; 'I' for Inactive)
REMARK    1  A    between atoms: C_1  and  C_2
REMARK    2  A    between atoms: C_2  and  C_3
REMARK    3  A    between atoms: C_2  and  N_14
REMARK    4  A    between atoms: C_3  and  N_4
REMARK    5  A    between atoms: N_7  and  C_8
REMARK    6  A    between atoms: C_8  and  C_9
REMARK                            x       y       z     vdW  Elec       q    Type
REMARK                         _______ _______ _______ _____ _____    ______ ____
ROOT
ATOM      1  C   UNL     1       6.789   5.834  17.072  0.00  0.00    +0.000 C 
ENDROOT
BRANCH   1   2
ATOM      2  N   UNL     1       7.198   7.226  17.016  0.00  0.00    +0.000 N 
ATOM      3  C   UNL     1       7.975   7.758  17.999  0.00  0.00    +0.000 C 
ATOM      4  O   UNL     1       8.427   7.091  18.932  0.00  0.00    +0.000 OA
ATOM      5  N   UNL     1       8.153   9.103  17.892  0.00  0.00    +0.000 N 
ATOM      6  H   UNL     1       6.902   7.801  16.243  0.00  0.00    +0.000 HD
ATOM      7  H   UNL     1       7.962   9.575  17.020  0.00  0.00    +0.000 HD
BRANCH   5   8
ATOM      8  C   UNL     1       8.967   9.789  18.868  0.00  0.00    +0.000 C 
BRANCH   8   9
ATOM      9  C   UNL     1       9.464  11.068  18.311  0.00  0.00    +0.000 A 
ATOM     10  C   UNL     1      10.723  11.504  17.963  0.00  0.00    +0.000 A 
ATOM     11  C   UNL     1      10.561  12.806  17.426  0.00  0.00    +0.000 A 
ATOM     12  C   UNL     1       9.218  13.078  17.487  0.00  0.00    +0.000 A 
ATOM     13  O   UNL     1       8.539  12.031  18.030  0.00  0.00    +0.000 OA
ENDBRANCH   8   9
ENDBRANCH   5   8
ENDBRANCH   1   2
BRANCH   1  15
ATOM     14  C   UNL     1       5.078   6.630  15.366  0.00  0.00    +0.000 C 
ATOM     15  C   UNL     1       5.417   5.539  16.401  0.00  0.00    +0.000 C 
BRANCH  15  16
ATOM     16  N   UNL     1       4.284   5.364  17.357  0.00  0.00    +0.000 NA
ATOM     17  C   UNL     1       4.656   5.574  18.774  0.00  0.00    +0.000 C 
ATOM     18  C   UNL     1       3.414   5.698  19.677  0.00  0.00    +0.000 C 
ATOM     19  C   UNL     1       2.505   4.554  19.396  0.00  0.00    +0.000 A 
ATOM     20  S   UNL     1       1.306   4.035  20.475  0.00  0.00    +0.000 S 
ATOM     21  C   UNL     1       0.861   2.755  19.429  0.00  0.00    +0.000 A 
ATOM     22  C   UNL     1       1.606   2.749  18.268  0.00  0.00    +0.000 A 
ATOM     23  C   UNL     1       2.568   3.809  18.236  0.00  0.00    +0.000 A 
ATOM     24  C   UNL     1       3.600   4.053  17.165  0.00  0.00    +0.000 C 
ENDBRANCH  15  16
ENDBRANCH   1  15
TORSDOF 5
ENDMDL
MODEL 2
REMARK VINA RESULT:      -7.5      1.037      1.067
REMARK  Name = 
REMARK  6 active torsions:
REMARK  status: ('A' for Active; 'I' for Inactive)
REMARK    1  A    between atoms: C_1  and  C_2
REMARK    2  A    between atoms: C_2  and  C_3
REMARK    3  A    between atoms: C_2  and  N_14
REMARK    4  A    between atoms: C_3  and  N_4
REMARK    5  A    between atoms: N_7  and  C_8
REMARK    6  A    between atoms: C_8  and  C_9
REMARK                            x       y       z     vdW  Elec       q    Type
REMARK                         _______ _______ _______ _____ _____    ______ ____
ROOT
ATOM      1  C   UNL     1       6.915   5.594  16.794  0.00  0.00    +0.000 C 
ENDROOT
BRANCH   1   2
ATOM      2  N   UNL     1       7.388   6.967  16.791  0.00  0.00    +0.000 N 
ATOM      3  C   UNL     1       7.965   7.502  17.903  0.00  0.00    +0.000 C 
ATOM      4  O   UNL     1       8.182   6.849  18.925  0.00  0.00    +0.000 OA
ATOM      5  N   UNL     1       8.220   8.835  17.804  0.00  0.00    +0.000 N 
ATOM      6  H   UNL     1       7.286   7.527  15.960  0.00  0.00    +0.000 HD
ATOM      7  H   UNL     1       8.237   9.284  16.900  0.00  0.00    +0.000 HD
BRANCH   5   8
ATOM      8  C   UNL     1       8.841   9.521  18.912  0.00  0.00    +0.000 C 
BRANCH   8   9
ATOM      9  C   UNL     1       9.387  10.823  18.466  0.00  0.00    +0.000 A 
ATOM     10  C   UNL     1      10.651  11.368  18.516  0.00  0.00    +0.000 A 
ATOM     11  C   UNL     1      10.569  12.629  17.874  0.00  0.00    +0.000 A 
ATOM     12  C   UNL     1       9.262  12.771  17.481  0.00  0.00    +0.000 A 
ATOM     13  O   UNL     1       8.530  11.682  17.840  0.00  0.00    +0.000 OA
ENDBRANCH   8   9
ENDBRANCH   5   8
ENDBRANCH   1   2
BRANCH   1  15
ATOM     14  C   UNL     1       5.075   6.639  15.382  0.00  0.00    +0.000 C 
ATOM     15  C   UNL     1       5.486   5.405  16.209  0.00  0.00    +0.000 C 
BRANCH  15  16
ATOM     16  N   UNL     1       4.439   5.089  17.223  0.00  0.00    +0.000 NA
ATOM     17  C   UNL     1       4.029   6.249  18.045  0.00  0.00    +0.000 C 
ATOM     18  C   UNL     1       2.744   5.959  18.842  0.00  0.00    +0.000 C 
ATOM     19  C   UNL     1       2.911   4.667  19.562  0.00  0.00    +0.000 A 
ATOM     20  S   UNL     1       1.978   4.225  20.905  0.00  0.00    +0.000 S 
ATOM     21  C   UNL     1       2.843   2.758  21.075  0.00  0.00    +0.000 A 
ATOM     22  C   UNL     1       3.810   2.608  20.101  0.00  0.00    +0.000 A 
ATOM     23  C   UNL     1       3.849   3.721  19.202  0.00  0.00    +0.000 A 
ATOM     24  C   UNL     1       4.830   3.932  18.077  0.00  0.00    +0.000 C 
ENDBRANCH  15  16
ENDBRANCH   1  15
TORSDOF 5
ENDMDL
MODEL 3
REMARK VINA RESULT:      -7.4      1.046      1.660
REMARK  Name = 
REMARK  6 active torsions:
REMARK  status: ('A' for Active; 'I' for Inactive)
REMARK    1  A    between atoms: C_1  and  C_2
REMARK    2  A    between atoms: C_2  and  C_3
REMARK    3  A    between atoms: C_2  and  N_14
REMARK    4  A    between atoms: C_3  and  N_4
REMARK    5  A    between atoms: N_7  and  C_8
REMARK    6  A    between atoms: C_8  and  C_9
REMARK                            x       y       z     vdW  Elec       q    Type
REMARK                         _______ _______ _______ _____ _____    ______ ____
ROOT
ATOM      1  C   UNL     1       6.692   6.095  16.824  0.00  0.00    +0.000 C 
ENDROOT
BRANCH   1   2
ATOM      2  N   UNL     1       7.120   7.482  16.842  0.00  0.00    +0.000 N 
ATOM      3  C   UNL     1       7.908   7.949  17.850  0.00  0.00    +0.000 C 
ATOM      4  O   UNL     1       8.355   7.225  18.742  0.00  0.00    +0.000 OA
ATOM      5  N   UNL     1       8.103   9.296  17.817  0.00  0.00    +0.000 N 
ATOM      6  H   UNL     1       6.829   8.103  16.104  0.00  0.00    +0.000 HD
ATOM      7  H   UNL     1       7.916   9.817  16.973  0.00  0.00    +0.000 HD
BRANCH   5   8
ATOM      8  C   UNL     1       8.930   9.915  18.826  0.00  0.00    +0.000 C 
BRANCH   8   9
ATOM      9  C   UNL     1       9.518  11.170  18.304  0.00  0.00    +0.000 A 
ATOM     10  C   UNL     1       8.955  12.328  17.812  0.00  0.00    +0.000 A 
ATOM     11  C   UNL     1      10.031  13.203  17.522  0.00  0.00    +0.000 A 
ATOM     12  C   UNL     1      11.176  12.522  17.850  0.00  0.00    +0.000 A 
ATOM     13  O   UNL     1      10.878  11.281  18.321  0.00  0.00    +0.000 OA
ENDBRANCH   8   9
ENDBRANCH   5   8
ENDBRANCH   1   2
BRANCH   1  15
ATOM     14  C   UNL     1       4.439   7.253  16.593  0.00  0.00    +0.000 C 
ATOM     15  C   UNL     1       5.168   5.894  16.583  0.00  0.00    +0.000 C 
BRANCH  15  16
ATOM     16  N   UNL     1       4.510   4.947  17.529  0.00  0.00    +0.000 NA
ATOM     17  C   UNL     1       3.915   3.761  16.875  0.00  0.00    +0.000 C 
ATOM     18  C   UNL     1       3.537   2.674  17.899  0.00  0.00    +0.000 C 
ATOM     19  C   UNL     1       2.736   3.299  18.985  0.00  0.00    +0.000 A 
ATOM     20  S   UNL     1       1.723   2.417  20.017  0.00  0.00    +0.000 S 
ATOM     21  C   UNL     1       1.220   3.847  20.812  0.00  0.00    +0.000 A 
ATOM     22  C   UNL     1       1.841   4.971  20.305  0.00  0.00    +0.000 A 
ATOM     23  C   UNL     1       2.740   4.657  19.237  0.00  0.00    +0.000 A 
ATOM     24  C   UNL     1       3.520   5.639  18.401  0.00  0.00    +0.000 C 
ENDBRANCH  15  16
ENDBRANCH   1  15
TORSDOF 5
ENDMDL
MODEL 4
REMARK VINA RESULT:      -7.3      3.984      9.763
REMARK  Name = 
REMARK  6 active torsions:
REMARK  status: ('A' for Active; 'I' for Inactive)
REMARK    1  A    between atoms: C_1  and  C_2
REMARK    2  A    between atoms: C_2  and  C_3
REMARK    3  A    between atoms: C_2  and  N_14
REMARK    4  A    between atoms: C_3  and  N_4
REMARK    5  A    between atoms: N_7  and  C_8
REMARK    6  A    between atoms: C_8  and  C_9
REMARK                            x       y       z     vdW  Elec       q    Type
REMARK                         _______ _______ _______ _____ _____    ______ ____
ROOT
ATOM      1  C   UNL     1       8.558   9.725  18.295  0.00  0.00    +0.000 C 
ENDROOT
BRANCH   1   2
ATOM      2  N   UNL     1       8.505   8.356  18.776  0.00  0.00    +0.000 N 
ATOM      3  C   UNL     1       7.965   7.372  18.004  0.00  0.00    +0.000 C 
ATOM      4  O   UNL     1       7.568   7.564  16.854  0.00  0.00    +0.000 OA
ATOM      5  N   UNL     1       7.847   6.175  18.642  0.00  0.00    +0.000 N 
ATOM      6  H   UNL     1       8.870   8.135  19.689  0.00  0.00    +0.000 HD
ATOM      7  H   UNL     1       8.371   5.993  19.486  0.00  0.00    +0.000 HD
BRANCH   5   8
ATOM      8  C   UNL     1       7.299   5.046  17.929  0.00  0.00    +0.000 C 
BRANCH   8   9
ATOM      9  C   UNL     1       5.878   4.850  18.298  0.00  0.00    +0.000 A 
ATOM     10  C   UNL     1       4.712   5.433  17.852  0.00  0.00    +0.000 A 
ATOM     11  C   UNL     1       3.654   4.789  18.541  0.00  0.00    +0.000 A 
ATOM     12  C   UNL     1       4.244   3.862  19.363  0.00  0.00    +0.000 A 
ATOM     13  O   UNL     1       5.597   3.893  19.230  0.00  0.00    +0.000 OA
ENDBRANCH   8   9
ENDBRANCH   5   8
ENDBRANCH   1   2
BRANCH   1  15
ATOM     14  C   UNL     1       9.430  10.869  20.394  0.00  0.00    +0.000 C 
ATOM     15  C   UNL     1       9.706  10.578  18.905  0.00  0.00    +0.000 C 
BRANCH  15  16
ATOM     16  N   UNL     1       9.990  11.847  18.174  0.00  0.00    +0.000 NA
ATOM     17  C   UNL     1      11.432  12.137  18.010  0.00  0.00    +0.000 C 
ATOM     18  C   UNL     1      11.675  13.266  16.991  0.00  0.00    +0.000 C 
ATOM     19  C   UNL     1      10.807  14.422  17.345  0.00  0.00    +0.000 A 
ATOM     20  S   UNL     1      11.105  16.003  16.815  0.00  0.00    +0.000 S 
ATOM     21  C   UNL     1       9.756  16.594  17.688  0.00  0.00    +0.000 A 
ATOM     22  C   UNL     1       9.084  15.587  18.350  0.00  0.00    +0.000 A 
ATOM     23  C   UNL     1       9.688  14.306  18.146  0.00  0.00    +0.000 A 
ATOM     24  C   UNL     1       9.271  13.004  18.780  0.00  0.00    +0.000 C 
ENDBRANCH  15  16
ENDBRANCH   1  15
TORSDOF 5
ENDMDL
MODEL 5
REMARK VINA RESULT:      -7.2      4.724      5.975
REMARK  Name = 
REMARK  6 active torsions:
REMARK  status: ('A' for Active; 'I' for Inactive)
REMARK    1  A    between atoms: C_1  and  C_2
REMARK    2  A    between atoms: C_2  and  C_3
REMARK    3  A    between atoms: C_2  and  N_14
REMARK    4  A    between atoms: C_3  and  N_4
REMARK    5  A    between atoms: N_7  and  C_8
REMARK    6  A    between atoms: C_8  and  C_9
REMARK                            x       y       z     vdW  Elec       q    Type
REMARK                         _______ _______ _______ _____ _____    ______ ____
ROOT
ATOM      1  C   UNL     1       3.968   2.899  19.466  0.00  0.00    +0.000 C 
ENDROOT
BRANCH   1   2
ATOM      2  N   UNL     1       4.594   2.914  18.156  0.00  0.00    +0.000 N 
ATOM      3  C   UNL     1       5.469   3.902  17.820  0.00  0.00    +0.000 C 
ATOM      4  O   UNL     1       5.831   4.775  18.610  0.00  0.00    +0.000 OA
ATOM      5  N   UNL     1       5.858   3.872  16.515  0.00  0.00    +0.000 N 
ATOM      6  H   UNL     1       4.375   2.189  17.491  0.00  0.00    +0.000 HD
ATOM      7  H   UNL     1       5.724   3.037  15.963  0.00  0.00    +0.000 HD
BRANCH   5   8
ATOM      8  C   UNL     1       6.794   4.859  16.033  0.00  0.00    +0.000 C 
BRANCH   8   9
ATOM      9  C   UNL     1       6.989   4.709  14.573  0.00  0.00    +0.000 A 
ATOM     10  C   UNL     1       6.408   3.881  13.637  0.00  0.00    +0.000 A 
ATOM     11  C   UNL     1       6.962   4.243  12.384  0.00  0.00    +0.000 A 
ATOM     12  C   UNL     1       7.845   5.262  12.639  0.00  0.00    +0.000 A 
ATOM     13  O   UNL     1       7.876   5.551  13.968  0.00  0.00    +0.000 OA
ENDBRANCH   8   9
ENDBRANCH   5   8
ENDBRANCH   1   2
BRANCH   1  15
ATOM     14  C   UNL     1       1.740   3.080  18.251  0.00  0.00    +0.000 C 
ATOM     15  C   UNL     1       2.535   3.505  19.502  0.00  0.00    +0.000 C 
BRANCH  15  16
ATOM     16  N   UNL     1       2.493   4.987  19.664  0.00  0.00    +0.000 NA
ATOM     17  C   UNL     1       1.419   5.463  20.563  0.00  0.00    +0.000 C 
ATOM     18  C   UNL     1       1.610   6.942  20.948  0.00  0.00    +0.000 C 
ATOM     19  C   UNL     1       1.828   7.733  19.707  0.00  0.00    +0.000 A 
ATOM     20  S   UNL     1       1.590   9.408  19.618  0.00  0.00    +0.000 S 
ATOM     21  C   UNL     1       1.984   9.417  17.953  0.00  0.00    +0.000 A 
ATOM     22  C   UNL     1       2.313   8.161  17.488  0.00  0.00    +0.000 A 
ATOM     23  C   UNL     1       2.234   7.166  18.515  0.00  0.00    +0.000 A 
ATOM     24  C   UNL     1       2.444   5.683  18.347  0.00  0.00    +0.000 C 
ENDBRANCH  15  16
ENDBRANCH   1  15
TORSDOF 5
ENDMDL
MODEL 6
REMARK VINA RESULT:      -7.1      3.841      6.620
REMARK  Name = 
REMARK  6 active torsions:
REMARK  status: ('A' for Active; 'I' for Inactive)
REMARK    1  A    between atoms: C_1  and  C_2
REMARK    2  A    between atoms: C_2  and  C_3
REMARK    3  A    between atoms: C_2  and  N_14
REMARK    4  A    between atoms: C_3  and  N_4
REMARK    5  A    between atoms: N_7  and  C_8
REMARK    6  A    between atoms: C_8  and  C_9
REMARK                            x       y       z     vdW  Elec       q    Type
REMARK                         _______ _______ _______ _____ _____    ______ ____
ROOT
ATOM      1  C   UNL     1       7.258   6.677  16.967  0.00  0.00    +0.000 C 
ENDROOT
BRANCH   1   2
ATOM      2  N   UNL     1       7.344   5.602  15.995  0.00  0.00    +0.000 N 
ATOM      3  C   UNL     1       6.361   5.428  15.068  0.00  0.00    +0.000 C 
ATOM      4  O   UNL     1       5.405   6.196  14.953  0.00  0.00    +0.000 OA
ATOM      5  N   UNL     1       6.500   4.296  14.325  0.00  0.00    +0.000 N 
ATOM      6  H   UNL     1       8.136   4.979  16.010  0.00  0.00    +0.000 HD
ATOM      7  H   UNL     1       7.387   3.815  14.289  0.00  0.00    +0.000 HD
BRANCH   5   8
ATOM      8  C   UNL     1       5.528   4.000  13.299  0.00  0.00    +0.000 C 
BRANCH   8   9
ATOM      9  C   UNL     1       6.112   3.086  12.291  0.00  0.00    +0.000 A 
ATOM     10  C   UNL     1       7.363   3.009  11.718  0.00  0.00    +0.000 A 
ATOM     11  C   UNL     1       7.341   1.881  10.860  0.00  0.00    +0.000 A 
ATOM     12  C   UNL     1       6.080   1.349  10.963  0.00  0.00    +0.000 A 
ATOM     13  O   UNL     1       5.320   2.076  11.825  0.00  0.00    +0.000 OA
ENDBRANCH   8   9
ENDBRANCH   5   8
ENDBRANCH   1   2
BRANCH   1  15
ATOM     14  C   UNL     1       7.624   5.501  19.193  0.00  0.00    +0.000 C 
ATOM     15  C   UNL     1       6.611   6.271  18.321  0.00  0.00    +0.000 C 
BRANCH  15  16
ATOM     16  N   UNL     1       5.343   5.494  18.194  0.00  0.00    +0.000 NA
ATOM     17  C   UNL     1       4.121   6.325  18.255  0.00  0.00    +0.000 C 
ATOM     18  C   UNL     1       2.874   5.540  17.805  0.00  0.00    +0.000 C 
ATOM     19  C   UNL     1       2.831   4.250  18.545  0.00  0.00    +0.000 A 
ATOM     20  S   UNL     1       1.419   3.331  18.729  0.00  0.00    +0.000 S 
ATOM     21  C   UNL     1       2.248   2.174  19.680  0.00  0.00    +0.000 A 
ATOM     22  C   UNL     1       3.585   2.482  19.827  0.00  0.00    +0.000 A 
ATOM     23  C   UNL     1       3.938   3.695  19.155  0.00  0.00    +0.000 A 
ATOM     24  C   UNL     1       5.285   4.372  19.173  0.00  0.00    +0.000 C 
ENDBRANCH  15  16
ENDBRANCH   1  15
TORSDOF 5
ENDMDL
MODEL 7
REMARK VINA RESULT:      -7.0      4.720      6.191
REMARK  Name = 
REMARK  6 active torsions:
REMARK  status: ('A' for Active; 'I' for Inactive)
REMARK    1  A    between atoms: C_1  and  C_2
REMARK    2  A    between atoms: C_2  and  C_3
REMARK    3  A    between atoms: C_2  and  N_14
REMARK    4  A    between atoms: C_3  and  N_4
REMARK    5  A    between atoms: N_7  and  C_8
REMARK    6  A    between atoms: C_8  and  C_9
REMARK                            x       y       z     vdW  Elec       q    Type
REMARK                         _______ _______ _______ _____ _____    ______ ____
ROOT
ATOM      1  C   UNL     1       3.537   4.735  20.209  0.00  0.00    +0.000 C 
ENDROOT
BRANCH   1   2
ATOM      2  N   UNL     1       4.532   4.019  19.430  0.00  0.00    +0.000 N 
ATOM      3  C   UNL     1       5.502   4.698  18.757  0.00  0.00    +0.000 C 
ATOM      4  O   UNL     1       5.637   5.921  18.827  0.00  0.00    +0.000 OA
ATOM      5  N   UNL     1       6.267   3.911  17.952  0.00  0.00    +0.000 N 
ATOM      6  H   UNL     1       4.501   3.013  19.386  0.00  0.00    +0.000 HD
ATOM      7  H   UNL     1       6.279   2.910  18.081  0.00  0.00    +0.000 HD
BRANCH   5   8
ATOM      8  C   UNL     1       7.339   4.508  17.191  0.00  0.00    +0.000 C 
BRANCH   8   9
ATOM      9  C   UNL     1       7.031   4.451  15.744  0.00  0.00    +0.000 A 
ATOM     10  C   UNL     1       6.057   3.793  15.025  0.00  0.00    +0.000 A 
ATOM     11  C   UNL     1       6.233   4.174  13.671  0.00  0.00    +0.000 A 
ATOM     12  C   UNL     1       7.303   5.034  13.654  0.00  0.00    +0.000 A 
ATOM     13  O   UNL     1       7.801   5.206  14.908  0.00  0.00    +0.000 OA
ENDBRANCH   8   9
ENDBRANCH   5   8
ENDBRANCH   1   2
BRANCH   1  15
ATOM     14  C   UNL     1       2.157   4.151  18.154  0.00  0.00    +0.000 C 
ATOM     15  C   UNL     1       2.159   4.892  19.506  0.00  0.00    +0.000 C 
BRANCH  15  16
ATOM     16  N   UNL     1       1.716   6.305  19.321  0.00  0.00    +0.000 NA
ATOM     17  C   UNL     1       2.574   7.090  18.407  0.00  0.00    +0.000 C 
ATOM     18  C   UNL     1       1.910   8.420  18.001  0.00  0.00    +0.000 C 
ATOM     19  C   UNL     1       1.447   9.116  19.232  0.00  0.00    +0.000 A 
ATOM     20  S   UNL     1       1.126  10.778  19.293  0.00  0.00    +0.000 S 
ATOM     21  C   UNL     1       0.754  10.687  20.962  0.00  0.00    +0.000 A 
ATOM     22  C   UNL     1       0.854   9.399  21.447  0.00  0.00    +0.000 A 
ATOM     23  C   UNL     1       1.251   8.468  20.435  0.00  0.00    +0.000 A 
ATOM     24  C   UNL     1       1.537   7.000  20.627  0.00  0.00    +0.000 C 
ENDBRANCH  15  16
ENDBRANCH   1  15
TORSDOF 5
ENDMDL
MODEL 8
REMARK VINA RESULT:      -6.9      4.801      6.952
REMARK  Name = 
REMARK  6 active torsions:
REMARK  status: ('A' for Active; 'I' for Inactive)
REMARK    1  A    between atoms: C_1  and  C_2
REMARK    2  A    between atoms: C_2  and  C_3
REMARK    3  A    between atoms: C_2  and  N_14
REMARK    4  A    between atoms: C_3  and  N_4
REMARK    5  A    between atoms: N_7  and  C_8
REMARK    6  A    between atoms: C_8  and  C_9
REMARK                            x       y       z     vdW  Elec       q    Type
REMARK                         _______ _______ _______ _____ _____    ______ ____
ROOT
ATOM      1  C   UNL     1       5.287   4.844  18.335  0.00  0.00    +0.000 C 
ENDROOT
BRANCH   1   2
ATOM      2  N   UNL     1       5.753   4.036  17.222  0.00  0.00    +0.000 N 
ATOM      3  C   UNL     1       6.109   4.620  16.045  0.00  0.00    +0.000 C 
ATOM      4  O   UNL     1       6.129   5.842  15.881  0.00  0.00    +0.000 OA
ATOM      5  N   UNL     1       6.380   3.732  15.050  0.00  0.00    +0.000 N 
ATOM      6  H   UNL     1       5.811   3.035  17.324  0.00  0.00    +0.000 HD
ATOM      7  H   UNL     1       6.568   2.764  15.268  0.00  0.00    +0.000 HD
BRANCH   5   8
ATOM      8  C   UNL     1       6.780   4.224  13.752  0.00  0.00    +0.000 C 
BRANCH   8   9
ATOM      9  C   UNL     1       6.062   3.491  12.685  0.00  0.00    +0.000 A 
ATOM     10  C   UNL     1       6.425   2.440  11.871  0.00  0.00    +0.000 A 
ATOM     11  C   UNL     1       5.288   2.132  11.084  0.00  0.00    +0.000 A 
ATOM     12  C   UNL     1       4.311   3.017  11.464  0.00  0.00    +0.000 A 
ATOM     13  O   UNL     1       4.771   3.854  12.433  0.00  0.00    +0.000 OA
ENDBRANCH   8   9
ENDBRANCH   5   8
ENDBRANCH   1   2
BRANCH   1  15
ATOM     14  C   UNL     1       3.172   3.526  17.821  0.00  0.00    +0.000 C 
ATOM     15  C   UNL     1       3.795   4.618  18.713  0.00  0.00    +0.000 C 
BRANCH  15  16
ATOM     16  N   UNL     1       2.955   5.851  18.684  0.00  0.00    +0.000 NA
ATOM     17  C   UNL     1       3.561   6.973  17.935  0.00  0.00    +0.000 C 
ATOM     18  C   UNL     1       2.540   8.094  17.662  0.00  0.00    +0.000 C 
ATOM     19  C   UNL     1       1.863   8.444  18.940  0.00  0.00    +0.000 A 
ATOM     20  S   UNL     1       1.060   9.914  19.194  0.00  0.00    +0.000 S 
ATOM     21  C   UNL     1       0.695   9.483  20.810  0.00  0.00    +0.000 A 
ATOM     22  C   UNL     1       1.162   8.225  21.131  0.00  0.00    +0.000 A 
ATOM     23  C   UNL     1       1.841   7.603  20.035  0.00  0.00    +0.000 A 
ATOM     24  C   UNL     1       2.548   6.272  20.055  0.00  0.00    +0.000 C 
ENDBRANCH  15  16
ENDBRANCH   1  15
TORSDOF 5
ENDMDL
MODEL 9
REMARK VINA RESULT:      -6.9      4.286      6.812
REMARK  Name = 
REMARK  6 active torsions:
REMARK  status: ('A' for Active; 'I' for Inactive)
REMARK    1  A    between atoms: C_1  and  C_2
REMARK    2  A    between atoms: C_2  and  C_3
REMARK    3  A    between atoms: C_2  and  N_14
REMARK    4  A    between atoms: C_3  and  N_4
REMARK    5  A    between atoms: N_7  and  C_8
REMARK    6  A    between atoms: C_8  and  C_9
REMARK                            x       y       z     vdW  Elec       q    Type
REMARK                         _______ _______ _______ _____ _____    ______ ____
ROOT
ATOM      1  C   UNL     1       7.195   4.619  17.237  0.00  0.00    +0.000 C 
ENDROOT
BRANCH   1   2
ATOM      2  N   UNL     1       6.381   3.907  16.268  0.00  0.00    +0.000 N 
ATOM      3  C   UNL     1       6.345   4.309  14.967  0.00  0.00    +0.000 C 
ATOM      4  O   UNL     1       7.040   5.228  14.530  0.00  0.00    +0.000 OA
ATOM      5  N   UNL     1       5.428   3.645  14.211  0.00  0.00    +0.000 N 
ATOM      6  H   UNL     1       5.837   3.111  16.563  0.00  0.00    +0.000 HD
ATOM      7  H   UNL     1       5.041   2.770  14.532  0.00  0.00    +0.000 HD
BRANCH   5   8
ATOM      8  C   UNL     1       5.297   3.971  12.810  0.00  0.00    +0.000 C 
BRANCH   8   9
ATOM      9  C   UNL     1       6.039   2.988  11.987  0.00  0.00    +0.000 A 
ATOM     10  C   UNL     1       7.346   2.935  11.553  0.00  0.00    +0.000 A 
ATOM     11  C   UNL     1       7.483   1.714  10.846  0.00  0.00    +0.000 A 
ATOM     12  C   UNL     1       6.253   1.108  10.891  0.00  0.00    +0.000 A 
ATOM     13  O   UNL     1       5.363   1.875  11.577  0.00  0.00    +0.000 OA
ENDBRANCH   8   9
ENDBRANCH   5   8
ENDBRANCH   1   2
BRANCH   1  15
ATOM     14  C   UNL     1       7.148   5.637  19.567  0.00  0.00    +0.000 C 
ATOM     15  C   UNL     1       6.388   5.499  18.233  0.00  0.00    +0.000 C 
BRANCH  15  16
ATOM     16  N   UNL     1       4.991   5.035  18.479  0.00  0.00    +0.000 NA
ATOM     17  C   UNL     1       4.032   6.130  18.741  0.00  0.00    +0.000 C 
ATOM     18  C   UNL     1       2.573   5.640  18.671  0.00  0.00    +0.000 C 
ATOM     19  C   UNL     1       2.437   4.426  19.521  0.00  0.00    +0.000 A 
ATOM     20  S   UNL     1       0.951   3.871  20.115  0.00  0.00    +0.000 S 
ATOM     21  C   UNL     1       1.718   2.591  20.955  0.00  0.00    +0.000 A 
ATOM     22  C   UNL     1       3.084   2.585  20.758  0.00  0.00    +0.000 A 
ATOM     23  C   UNL     1       3.514   3.653  19.908  0.00  0.00    +0.000 A 
ATOM     24  C   UNL     1       4.936   3.998  19.548  0.00  0.00    +0.000 C 
ENDBRANCH  15  16
ENDBRANCH   1  15
TORSDOF 5
ENDMDL
