MODEL 1
REMARK VINA RESULT:      -7.1      0.000      0.000
REMARK  Name = 
REMARK  9 active torsions:
REMARK  status: ('A' for Active; 'I' for Inactive)
REMARK    1  A    between atoms: C_1  and  C_2
REMARK    2  A    between atoms: C_2  and  C_3
REMARK    3  A    between atoms: C_3  and  C_5
REMARK    4  A    between atoms: N_11  and  C_12
REMARK    5  A    between atoms: C_12  and  C_13
REMARK    6  A    between atoms: C_13  and  C_14
REMARK    7  A    between atoms: C_13  and  N_15
REMARK    8  A    between atoms: N_15  and  C_16
REMARK    9  A    between atoms: N_15  and  C_17
REMARK                            x       y       z     vdW  Elec       q    Type
REMARK                         _______ _______ _______ _____ _____    ______ ____
ROOT
ATOM      1  C   UNL     1       1.544   9.007  19.056  0.00  0.00    +0.000 A 
ATOM      2  C   UNL     1       1.217   8.760  20.391  0.00  0.00    +0.000 A 
ATOM      3  C   UNL     1       1.510   7.519  20.960  0.00  0.00    +0.000 A 
ATOM      4  C   UNL     1       2.130   6.516  20.203  0.00  0.00    +0.000 A 
ATOM      5  C   UNL     1       2.538   6.772  18.878  0.00  0.00    +0.000 A 
ATOM      6  C   UNL     1       2.213   8.019  18.316  0.00  0.00    +0.000 A 
ATOM      7  N   UNL     1       3.158   5.773  18.093  0.00  0.00    +0.000 N 
ATOM      8  C   UNL     1       2.897   4.395  18.273  0.00  0.00    +0.000 A 
ATOM      9  C   UNL     1       2.935   3.512  17.179  0.00  0.00    +0.000 A 
ATOM     10  C   UNL     1       2.591   2.163  17.321  0.00  0.00    +0.000 A 
ATOM     11  C   UNL     1       2.217   1.669  18.566  0.00  0.00    +0.000 A 
ATOM     12  C   UNL     1       2.174   2.522  19.670  0.00  0.00    +0.000 A 
ATOM     13  C   UNL     1       2.484   3.883  19.522  0.00  0.00    +0.000 A 
ATOM     14  S   UNL     1       2.367   4.924  20.973  0.00  0.00    +0.000 S 
ENDROOT
BRANCH   1  15
ATOM     15  C   UNL     1       1.181  10.286  18.372  0.00  0.00    +0.000 C 
ATOM     16  O   UNL     1       2.077  10.996  17.917  0.00  0.00    +0.000 OA
BRANCH  15  18
ATOM     17  C   UNL     1      -0.649  11.838  19.144  0.00  0.00    +0.000 C 
ATOM     18  C   UNL     1      -0.288  10.659  18.256  0.00  0.00    +0.000 C 
ENDBRANCH  15  18
ENDBRANCH   1  15
BRANCH   7  19
ATOM     19  C   UNL     1       4.430   6.145  17.405  0.00  0.00    +0.000 C 
BRANCH  19  20
ATOM     20  C   UNL     1       5.717   5.424  17.965  0.00  0.00    +0.000 C 
ATOM     21  C   UNL     1       6.363   4.565  16.861  0.00  0.00    +0.000 C 
BRANCH  20  22
ATOM     22  N   UNL     1       6.746   6.379  18.505  0.00  0.00    +0.000 NA
ATOM     23  C   UNL     1       7.799   5.703  19.270  0.00  0.00    +0.000 C 
ATOM     24  C   UNL     1       7.386   7.176  17.448  0.00  0.00    +0.000 C 
ENDBRANCH  20  22
ENDBRANCH  19  20
ENDBRANCH   7  19
TORSDOF 5
ENDMDL
MODEL 2
REMARK VINA RESULT:      -7.0      2.202      4.656
REMARK  Name = 
REMARK  9 active torsions:
REMARK  status: ('A' for Active; 'I' for Inactive)
REMARK    1  A    between atoms: C_1  and  C_2
REMARK    2  A    between atoms: C_2  and  C_3
REMARK    3  A    between atoms: C_3  and  C_5
REMARK    4  A    between atoms: N_11  and  C_12
REMARK    5  A    between atoms: C_12  and  C_13
REMARK    6  A    between atoms: C_13  and  C_14
REMARK    7  A    between atoms: C_13  and  N_15
REMARK    8  A    between atoms: N_15  and  C_16
REMARK    9  A    between atoms: N_15  and  C_17
REMARK                            x       y       z     vdW  Elec       q    Type
REMARK                         _______ _______ _______ _____ _____    ______ ____
ROOT
ATOM      1  C   UNL     1       1.001   8.525  20.280  0.00  0.00    +0.000 A 
ATOM      2  C   UNL     1       0.979   9.280  19.105  0.00  0.00    +0.000 A 
ATOM      3  C   UNL     1       1.823   8.942  18.046  0.00  0.00    +0.000 A 
ATOM      4  C   UNL     1       2.697   7.852  18.150  0.00  0.00    +0.000 A 
ATOM      5  C   UNL     1       2.680   7.032  19.296  0.00  0.00    +0.000 A 
ATOM      6  C   UNL     1       1.840   7.402  20.361  0.00  0.00    +0.000 A 
ATOM      7  N   UNL     1       3.557   5.931  19.426  0.00  0.00    +0.000 N 
ATOM      8  C   UNL     1       4.832   5.900  18.815  0.00  0.00    +0.000 A 
ATOM      9  C   UNL     1       5.902   5.222  19.427  0.00  0.00    +0.000 A 
ATOM     10  C   UNL     1       7.190   5.256  18.882  0.00  0.00    +0.000 A 
ATOM     11  C   UNL     1       7.429   5.956  17.705  0.00  0.00    +0.000 A 
ATOM     12  C   UNL     1       6.385   6.635  17.074  0.00  0.00    +0.000 A 
ATOM     13  C   UNL     1       5.099   6.632  17.638  0.00  0.00    +0.000 A 
ATOM     14  S   UNL     1       3.821   7.558  16.795  0.00  0.00    +0.000 S 
ENDROOT
BRANCH   1  15
ATOM     15  C   UNL     1       0.179   8.889  21.475  0.00  0.00    +0.000 C 
ATOM     16  O   UNL     1      -0.647   8.083  21.899  0.00  0.00    +0.000 OA
BRANCH  15  18
ATOM     17  C   UNL     1      -0.827  10.723  22.881  0.00  0.00    +0.000 C 
ATOM     18  C   UNL     1       0.403  10.243  22.128  0.00  0.00    +0.000 C 
ENDBRANCH  15  18
ENDBRANCH   1  15
BRANCH   7  19
ATOM     19  C   UNL     1       2.950   4.622  19.813  0.00  0.00    +0.000 C 
BRANCH  19  20
ATOM     20  C   UNL     1       1.656   4.231  18.999  0.00  0.00    +0.000 C 
ATOM     21  C   UNL     1       2.047   3.727  17.597  0.00  0.00    +0.000 C 
BRANCH  20  22
ATOM     22  N   UNL     1       0.820   3.183  19.680  0.00  0.00    +0.000 NA
ATOM     23  C   UNL     1       0.692   1.957  18.884  0.00  0.00    +0.000 C 
ATOM     24  C   UNL     1       1.342   2.817  21.005  0.00  0.00    +0.000 C 
ENDBRANCH  20  22
ENDBRANCH  19  20
ENDBRANCH   7  19
TORSDOF 5
ENDMDL
MODEL 3
REMARK VINA RESULT:      -6.9      2.380      4.556
REMARK  Name = 
REMARK  9 active torsions:
REMARK  status: ('A' for Active; 'I' for Inactive)
REMARK    1  A    between atoms: C_1  and  C_2
REMARK    2  A    between atoms: C_2  and  C_3
REMARK    3  A    between atoms: C_3  and  C_5
REMARK    4  A    between atoms: N_11  and  C_12
REMARK    5  A    between atoms: C_12  and  C_13
REMARK    6  A    between atoms: C_13  and  C_14
REMARK    7  A    between atoms: C_13  and  N_15
REMARK    8  A    between atoms: N_15  and  C_16
REMARK    9  A    between atoms: N_15  and  C_17
REMARK                            x       y       z     vdW  Elec       q    Type
REMARK                         _______ _______ _______ _____ _____    ______ ____
ROOT
ATOM      1  C   UNL     1       0.587   9.423  21.465  0.00  0.00    +0.000 A 
ATOM      2  C   UNL     1       0.470  10.232  20.332  0.00  0.00    +0.000 A 
ATOM      3  C   UNL     1       1.015   9.810  19.119  0.00  0.00    +0.000 A 
ATOM      4  C   UNL     1       1.682   8.581  19.025  0.00  0.00    +0.000 A 
ATOM      5  C   UNL     1       1.743   7.717  20.137  0.00  0.00    +0.000 A 
ATOM      6  C   UNL     1       1.209   8.169  21.356  0.00  0.00    +0.000 A 
ATOM      7  N   UNL     1       2.417   6.476  20.068  0.00  0.00    +0.000 N 
ATOM      8  C   UNL     1       3.519   6.257  19.210  0.00  0.00    +0.000 A 
ATOM      9  C   UNL     1       4.549   5.373  19.581  0.00  0.00    +0.000 A 
ATOM     10  C   UNL     1       5.689   5.212  18.787  0.00  0.00    +0.000 A 
ATOM     11  C   UNL     1       5.815   5.922  17.598  0.00  0.00    +0.000 A 
ATOM     12  C   UNL     1       4.806   6.804  17.204  0.00  0.00    +0.000 A 
ATOM     13  C   UNL     1       3.678   6.993  18.017  0.00  0.00    +0.000 A 
ATOM     14  S   UNL     1       2.446   8.170  17.466  0.00  0.00    +0.000 S 
ENDROOT
BRANCH   1  15
ATOM     15  C   UNL     1       0.095   9.860  22.808  0.00  0.00    +0.000 C 
ATOM     16  O   UNL     1       0.777   9.618  23.803  0.00  0.00    +0.000 OA
BRANCH  15  18
ATOM     17  C   UNL     1      -1.047  12.104  22.930  0.00  0.00    +0.000 C 
ATOM     18  C   UNL     1      -1.232  10.596  22.894  0.00  0.00    +0.000 C 
ENDBRANCH  15  18
ENDBRANCH   1  15
BRANCH   7  19
ATOM     19  C   UNL     1       1.672   5.273  20.547  0.00  0.00    +0.000 C 
BRANCH  19  20
ATOM     20  C   UNL     1       2.146   3.909  19.911  0.00  0.00    +0.000 C 
ATOM     21  C   UNL     1       1.978   2.766  20.930  0.00  0.00    +0.000 C 
BRANCH  20  22
ATOM     22  N   UNL     1       1.407   3.552  18.651  0.00  0.00    +0.000 NA
ATOM     23  C   UNL     1       2.292   3.452  17.485  0.00  0.00    +0.000 C 
ATOM     24  C   UNL     1       0.662   2.290  18.771  0.00  0.00    +0.000 C 
ENDBRANCH  20  22
ENDBRANCH  19  20
ENDBRANCH   7  19
TORSDOF 5
ENDMDL
MODEL 4
REMARK VINA RESULT:      -6.8      1.035      1.441
REMARK  Name = 
REMARK  9 active torsions:
REMARK  status: ('A' for Active; 'I' for Inactive)
REMARK    1  A    between atoms: C_1  and  C_2
REMARK    2  A    between atoms: C_2  and  C_3
REMARK    3  A    between atoms: C_3  and  C_5
REMARK    4  A    between atoms: N_11  and  C_12
REMARK    5  A    between atoms: C_12  and  C_13
REMARK    6  A    between atoms: C_13  and  C_14
REMARK    7  A    between atoms: C_13  and  N_15
REMARK    8  A    between atoms: N_15  and  C_16
REMARK    9  A    between atoms: N_15  and  C_17
REMARK                            x       y       z     vdW  Elec       q    Type
REMARK                         _______ _______ _______ _____ _____    ______ ____
ROOT
ATOM      1  C   UNL     1       1.729   8.927  19.071  0.00  0.00    +0.000 A 
ATOM      2  C   UNL     1       1.180   8.715  20.338  0.00  0.00    +0.000 A 
ATOM      3  C   UNL     1       1.312   7.468  20.951  0.00  0.00    +0.000 A 
ATOM      4  C   UNL     1       1.989   6.424  20.307  0.00  0.00    +0.000 A 
ATOM      5  C   UNL     1       2.615   6.641  19.063  0.00  0.00    +0.000 A 
ATOM      6  C   UNL     1       2.452   7.896  18.451  0.00  0.00    +0.000 A 
ATOM      7  N   UNL     1       3.298   5.601  18.391  0.00  0.00    +0.000 N 
ATOM      8  C   UNL     1       2.937   4.241  18.532  0.00  0.00    +0.000 A 
ATOM      9  C   UNL     1       3.100   3.344  17.462  0.00  0.00    +0.000 A 
ATOM     10  C   UNL     1       2.666   2.017  17.553  0.00  0.00    +0.000 A 
ATOM     11  C   UNL     1       2.073   1.558  18.724  0.00  0.00    +0.000 A 
ATOM     12  C   UNL     1       1.901   2.427  19.804  0.00  0.00    +0.000 A 
ATOM     13  C   UNL     1       2.304   3.767  19.701  0.00  0.00    +0.000 A 
ATOM     14  S   UNL     1       2.014   4.831  21.112  0.00  0.00    +0.000 S 
ENDROOT
BRANCH   1  15
ATOM     15  C   UNL     1       1.549  10.215  18.332  0.00  0.00    +0.000 C 
ATOM     16  O   UNL     1       2.385  10.544  17.492  0.00  0.00    +0.000 OA
BRANCH  15  18
ATOM     17  C   UNL     1       0.696  12.328  19.412  0.00  0.00    +0.000 C 
ATOM     18  C   UNL     1       0.330  11.069  18.643  0.00  0.00    +0.000 C 
ENDBRANCH  15  18
ENDBRANCH   1  15
BRANCH   7  19
ATOM     19  C   UNL     1       4.681   5.896  17.913  0.00  0.00    +0.000 C 
BRANCH  19  20
ATOM     20  C   UNL     1       4.980   5.432  16.435  0.00  0.00    +0.000 C 
ATOM     21  C   UNL     1       5.187   6.660  15.528  0.00  0.00    +0.000 C 
BRANCH  20  22
ATOM     22  N   UNL     1       6.182   4.535  16.324  0.00  0.00    +0.000 NA
ATOM     23  C   UNL     1       6.796   4.572  14.992  0.00  0.00    +0.000 C 
ATOM     24  C   UNL     1       7.219   4.857  17.316  0.00  0.00    +0.000 C 
ENDBRANCH  20  22
ENDBRANCH  19  20
ENDBRANCH   7  19
TORSDOF 5
ENDMDL
MODEL 5
REMARK VINA RESULT:      -6.8      0.947      1.174
REMARK  Name = 
REMARK  9 active torsions:
REMARK  status: ('A' for Active; 'I' for Inactive)
REMARK    1  A    between atoms: C_1  and  C_2
REMARK    2  A    between atoms: C_2  and  C_3
REMARK    3  A    between atoms: C_3  and  C_5
REMARK    4  A    between atoms: N_11  and  C_12
REMARK    5  A    between atoms: C_12  and  C_13
REMARK    6  A    between atoms: C_13  and  C_14
REMARK    7  A    between atoms: C_13  and  N_15
REMARK    8  A    between atoms: N_15  and  C_16
REMARK    9  A    between atoms: N_15  and  C_17
REMARK                            x       y       z     vdW  Elec       q    Type
REMARK                         _______ _______ _______ _____ _____    ______ ____
ROOT
ATOM      1  C   UNL     1       1.422   9.031  19.016  0.00  0.00    +0.000 A 
ATOM      2  C   UNL     1       1.153   8.834  20.373  0.00  0.00    +0.000 A 
ATOM      3  C   UNL     1       1.464   7.612  20.971  0.00  0.00    +0.000 A 
ATOM      4  C   UNL     1       2.042   6.577  20.224  0.00  0.00    +0.000 A 
ATOM      5  C   UNL     1       2.391   6.783  18.873  0.00  0.00    +0.000 A 
ATOM      6  C   UNL     1       2.049   8.011  18.282  0.00  0.00    +0.000 A 
ATOM      7  N   UNL     1       2.968   5.751  18.098  0.00  0.00    +0.000 N 
ATOM      8  C   UNL     1       2.706   4.383  18.338  0.00  0.00    +0.000 A 
ATOM      9  C   UNL     1       2.688   3.462  17.275  0.00  0.00    +0.000 A 
ATOM     10  C   UNL     1       2.342   2.122  17.481  0.00  0.00    +0.000 A 
ATOM     11  C   UNL     1       2.022   1.675  18.758  0.00  0.00    +0.000 A 
ATOM     12  C   UNL     1       2.035   2.567  19.832  0.00  0.00    +0.000 A 
ATOM     13  C   UNL     1       2.347   3.919  19.621  0.00  0.00    +0.000 A 
ATOM     14  S   UNL     1       2.303   5.011  21.039  0.00  0.00    +0.000 S 
ENDROOT
BRANCH   1  15
ATOM     15  C   UNL     1       1.036  10.288  18.303  0.00  0.00    +0.000 C 
ATOM     16  O   UNL     1      -0.135  10.447  17.963  0.00  0.00    +0.000 OA
BRANCH  15  18
ATOM     17  C   UNL     1       1.992  12.526  18.961  0.00  0.00    +0.000 C 
ATOM     18  C   UNL     1       2.109  11.330  18.032  0.00  0.00    +0.000 C 
ENDBRANCH  15  18
ENDBRANCH   1  15
BRANCH   7  19
ATOM     19  C   UNL     1       4.210   6.088  17.339  0.00  0.00    +0.000 C 
BRANCH  19  20
ATOM     20  C   UNL     1       5.478   6.357  18.239  0.00  0.00    +0.000 C 
ATOM     21  C   UNL     1       5.804   5.108  19.078  0.00  0.00    +0.000 C 
BRANCH  20  22
ATOM     22  N   UNL     1       6.697   6.746  17.448  0.00  0.00    +0.000 NA
ATOM     23  C   UNL     1       7.872   6.977  18.295  0.00  0.00    +0.000 C 
ATOM     24  C   UNL     1       7.053   5.744  16.432  0.00  0.00    +0.000 C 
ENDBRANCH  20  22
ENDBRANCH  19  20
ENDBRANCH   7  19
TORSDOF 5
ENDMDL
MODEL 6
REMARK VINA RESULT:      -6.6      0.985      1.050
REMARK  Name = 
REMARK  9 active torsions:
REMARK  status: ('A' for Active; 'I' for Inactive)
REMARK    1  A    between atoms: C_1  and  C_2
REMARK    2  A    between atoms: C_2  and  C_3
REMARK    3  A    between atoms: C_3  and  C_5
REMARK    4  A    between atoms: N_11  and  C_12
REMARK    5  A    between atoms: C_12  and  C_13
REMARK    6  A    between atoms: C_13  and  C_14
REMARK    7  A    between atoms: C_13  and  N_15
REMARK    8  A    between atoms: N_15  and  C_16
REMARK    9  A    between atoms: N_15  and  C_17
REMARK                            x       y       z     vdW  Elec       q    Type
REMARK                         _______ _______ _______ _____ _____    ______ ____
ROOT
ATOM      1  C   UNL     1       1.262   9.286  19.219  0.00  0.00    +0.000 A 
ATOM      2  C   UNL     1       1.004   8.966  20.554  0.00  0.00    +0.000 A 
ATOM      3  C   UNL     1       1.393   7.724  21.058  0.00  0.00    +0.000 A 
ATOM      4  C   UNL     1       2.039   6.791  20.236  0.00  0.00    +0.000 A 
ATOM      5  C   UNL     1       2.377   7.124  18.909  0.00  0.00    +0.000 A 
ATOM      6  C   UNL     1       1.957   8.370  18.413  0.00  0.00    +0.000 A 
ATOM      7  N   UNL     1       3.023   6.197  18.059  0.00  0.00    +0.000 N 
ATOM      8  C   UNL     1       2.850   4.799  18.190  0.00  0.00    +0.000 A 
ATOM      9  C   UNL     1       2.895   3.965  17.059  0.00  0.00    +0.000 A 
ATOM     10  C   UNL     1       2.638   2.593  17.157  0.00  0.00    +0.000 A 
ATOM     11  C   UNL     1       2.345   2.028  18.392  0.00  0.00    +0.000 A 
ATOM     12  C   UNL     1       2.297   2.832  19.533  0.00  0.00    +0.000 A 
ATOM     13  C   UNL     1       2.520   4.214  19.431  0.00  0.00    +0.000 A 
ATOM     14  S   UNL     1       2.401   5.186  20.929  0.00  0.00    +0.000 S 
ENDROOT
BRANCH   1  15
ATOM     15  C   UNL     1       0.796  10.567  18.604  0.00  0.00    +0.000 C 
ATOM     16  O   UNL     1      -0.329  10.619  18.112  0.00  0.00    +0.000 OA
BRANCH  15  18
ATOM     17  C   UNL     1       1.417  12.723  19.754  0.00  0.00    +0.000 C 
ATOM     18  C   UNL     1       1.733  11.764  18.618  0.00  0.00    +0.000 C 
ENDBRANCH  15  18
ENDBRANCH   1  15
BRANCH   7  19
ATOM     19  C   UNL     1       4.242   6.672  17.339  0.00  0.00    +0.000 C 
BRANCH  19  20
ATOM     20  C   UNL     1       5.363   5.578  17.149  0.00  0.00    +0.000 C 
ATOM     21  C   UNL     1       5.755   5.477  15.663  0.00  0.00    +0.000 C 
BRANCH  20  22
ATOM     22  N   UNL     1       6.599   5.846  17.963  0.00  0.00    +0.000 NA
ATOM     23  C   UNL     1       7.559   4.738  17.915  0.00  0.00    +0.000 C 
ATOM     24  C   UNL     1       7.293   7.074  17.548  0.00  0.00    +0.000 C 
ENDBRANCH  20  22
ENDBRANCH  19  20
ENDBRANCH   7  19
TORSDOF 5
ENDMDL
MODEL 7
REMARK VINA RESULT:      -6.4      0.888      1.255
REMARK  Name = 
REMARK  9 active torsions:
REMARK  status: ('A' for Active; 'I' for Inactive)
REMARK    1  A    between atoms: C_1  and  C_2
REMARK    2  A    between atoms: C_2  and  C_3
REMARK    3  A    between atoms: C_3  and  C_5
REMARK    4  A    between atoms: N_11  and  C_12
REMARK    5  A    between atoms: C_12  and  C_13
REMARK    6  A    between atoms: C_13  and  C_14
REMARK    7  A    between atoms: C_13  and  N_15
REMARK    8  A    between atoms: N_15  and  C_16
REMARK    9  A    between atoms: N_15  and  C_17
REMARK                            x       y       z     vdW  Elec       q    Type
REMARK                         _______ _______ _______ _____ _____    ______ ____
ROOT
ATOM      1  C   UNL     1       1.435   8.892  19.170  0.00  0.00    +0.000 A 
ATOM      2  C   UNL     1       0.917   8.548  20.421  0.00  0.00    +0.000 A 
ATOM      3  C   UNL     1       1.239   7.314  20.989  0.00  0.00    +0.000 A 
ATOM      4  C   UNL     1       2.076   6.415  20.316  0.00  0.00    +0.000 A 
ATOM      5  C   UNL     1       2.669   6.775  19.089  0.00  0.00    +0.000 A 
ATOM      6  C   UNL     1       2.315   8.012  18.522  0.00  0.00    +0.000 A 
ATOM      7  N   UNL     1       3.511   5.881  18.389  0.00  0.00    +0.000 N 
ATOM      8  C   UNL     1       3.367   4.477  18.474  0.00  0.00    +0.000 A 
ATOM      9  C   UNL     1       3.677   3.659  17.374  0.00  0.00    +0.000 A 
ATOM     10  C   UNL     1       3.456   2.278  17.410  0.00  0.00    +0.000 A 
ATOM     11  C   UNL     1       2.934   1.687  18.555  0.00  0.00    +0.000 A 
ATOM     12  C   UNL     1       2.620   2.476  19.664  0.00  0.00    +0.000 A 
ATOM     13  C   UNL     1       2.808   3.866  19.617  0.00  0.00    +0.000 A 
ATOM     14  S   UNL     1       2.344   4.815  21.061  0.00  0.00    +0.000 S 
ENDROOT
BRANCH   1  15
ATOM     15  C   UNL     1       1.060  10.164  18.477  0.00  0.00    +0.000 C 
ATOM     16  O   UNL     1       1.869  11.089  18.448  0.00  0.00    +0.000 OA
BRANCH  15  18
ATOM     17  C   UNL     1      -1.357  10.814  18.778  0.00  0.00    +0.000 C 
ATOM     18  C   UNL     1      -0.309  10.262  17.825  0.00  0.00    +0.000 C 
ENDBRANCH  15  18
ENDBRANCH   1  15
BRANCH   7  19
ATOM     19  C   UNL     1       4.835   6.408  17.940  0.00  0.00    +0.000 C 
BRANCH  19  20
ATOM     20  C   UNL     1       5.254   5.978  16.481  0.00  0.00    +0.000 C 
ATOM     21  C   UNL     1       4.700   6.985  15.455  0.00  0.00    +0.000 C 
BRANCH  20  22
ATOM     22  N   UNL     1       6.742   5.865  16.298  0.00  0.00    +0.000 NA
ATOM     23  C   UNL     1       7.496   6.537  17.362  0.00  0.00    +0.000 C 
ATOM     24  C   UNL     1       7.197   4.469  16.225  0.00  0.00    +0.000 C 
ENDBRANCH  20  22
ENDBRANCH  19  20
ENDBRANCH   7  19
TORSDOF 5
ENDMDL
MODEL 8
REMARK VINA RESULT:      -6.3      2.119      4.182
REMARK  Name = 
REMARK  9 active torsions:
REMARK  status: ('A' for Active; 'I' for Inactive)
REMARK    1  A    between atoms: C_1  and  C_2
REMARK    2  A    between atoms: C_2  and  C_3
REMARK    3  A    between atoms: C_3  and  C_5
REMARK    4  A    between atoms: N_11  and  C_12
REMARK    5  A    between atoms: C_12  and  C_13
REMARK    6  A    between atoms: C_13  and  C_14
REMARK    7  A    between atoms: C_13  and  N_15
REMARK    8  A    between atoms: N_15  and  C_16
REMARK    9  A    between atoms: N_15  and  C_17
REMARK                            x       y       z     vdW  Elec       q    Type
REMARK                         _______ _______ _______ _____ _____    ______ ____
ROOT
ATOM      1  C   UNL     1       0.954   8.564  20.204  0.00  0.00    +0.000 A 
ATOM      2  C   UNL     1       0.927   9.246  18.985  0.00  0.00    +0.000 A 
ATOM      3  C   UNL     1       1.778   8.853  17.951  0.00  0.00    +0.000 A 
ATOM      4  C   UNL     1       2.662   7.779  18.123  0.00  0.00    +0.000 A 
ATOM      5  C   UNL     1       2.649   7.030  19.317  0.00  0.00    +0.000 A 
ATOM      6  C   UNL     1       1.802   7.456  20.355  0.00  0.00    +0.000 A 
ATOM      7  N   UNL     1       3.537   5.947  19.516  0.00  0.00    +0.000 N 
ATOM      8  C   UNL     1       4.813   5.891  18.911  0.00  0.00    +0.000 A 
ATOM      9  C   UNL     1       5.887   5.263  19.565  0.00  0.00    +0.000 A 
ATOM     10  C   UNL     1       7.177   5.275  19.023  0.00  0.00    +0.000 A 
ATOM     11  C   UNL     1       7.413   5.905  17.806  0.00  0.00    +0.000 A 
ATOM     12  C   UNL     1       6.364   6.534  17.133  0.00  0.00    +0.000 A 
ATOM     13  C   UNL     1       5.077   6.553  17.693  0.00  0.00    +0.000 A 
ATOM     14  S   UNL     1       3.793   7.415  16.791  0.00  0.00    +0.000 S 
ENDROOT
BRANCH   1  15
ATOM     15  C   UNL     1       0.124   8.991  21.372  0.00  0.00    +0.000 C 
ATOM     16  O   UNL     1      -0.598   8.165  21.927  0.00  0.00    +0.000 OA
BRANCH  15  18
ATOM     17  C   UNL     1      -0.766  10.733  22.962  0.00  0.00    +0.000 C 
ATOM     18  C   UNL     1       0.212  10.435  21.838  0.00  0.00    +0.000 C 
ENDBRANCH  15  18
ENDBRANCH   1  15
BRANCH   7  19
ATOM     19  C   UNL     1       2.941   4.659  19.979  0.00  0.00    +0.000 C 
BRANCH  19  20
ATOM     20  C   UNL     1       2.503   3.682  18.821  0.00  0.00    +0.000 C 
ATOM     21  C   UNL     1       1.724   4.458  17.742  0.00  0.00    +0.000 C 
BRANCH  20  22
ATOM     22  N   UNL     1       3.660   2.972  18.172  0.00  0.00    +0.000 NA
ATOM     23  C   UNL     1       3.563   1.513  18.283  0.00  0.00    +0.000 C 
ATOM     24  C   UNL     1       3.807   3.316  16.750  0.00  0.00    +0.000 C 
ENDBRANCH  20  22
ENDBRANCH  19  20
ENDBRANCH   7  19
TORSDOF 5
ENDMDL
MODEL 9
REMARK VINA RESULT:      -6.3      2.058      5.393
REMARK  Name = 
REMARK  9 active torsions:
REMARK  status: ('A' for Active; 'I' for Inactive)
REMARK    1  A    between atoms: C_1  and  C_2
REMARK    2  A    between atoms: C_2  and  C_3
REMARK    3  A    between atoms: C_3  and  C_5
REMARK    4  A    between atoms: N_11  and  C_12
REMARK    5  A    between atoms: C_12  and  C_13
REMARK    6  A    between atoms: C_13  and  C_14
REMARK    7  A    between atoms: C_13  and  N_15
REMARK    8  A    between atoms: N_15  and  C_16
REMARK    9  A    between atoms: N_15  and  C_17
REMARK                            x       y       z     vdW  Elec       q    Type
REMARK                         _______ _______ _______ _____ _____    ______ ____
ROOT
ATOM      1  C   UNL     1       6.517   6.729  17.431  0.00  0.00    +0.000 A 
ATOM      2  C   UNL     1       6.978   5.549  16.842  0.00  0.00    +0.000 A 
ATOM      3  C   UNL     1       6.158   4.420  16.815  0.00  0.00    +0.000 A 
ATOM      4  C   UNL     1       4.874   4.458  17.376  0.00  0.00    +0.000 A 
ATOM      5  C   UNL     1       4.363   5.660  17.905  0.00  0.00    +0.000 A 
ATOM      6  C   UNL     1       5.212   6.779  17.944  0.00  0.00    +0.000 A 
ATOM      7  N   UNL     1       3.073   5.719  18.482  0.00  0.00    +0.000 N 
ATOM      8  C   UNL     1       2.471   4.605  19.111  0.00  0.00    +0.000 A 
ATOM      9  C   UNL     1       1.597   4.785  20.199  0.00  0.00    +0.000 A 
ATOM     10  C   UNL     1       1.063   3.692  20.890  0.00  0.00    +0.000 A 
ATOM     11  C   UNL     1       1.381   2.398  20.496  0.00  0.00    +0.000 A 
ATOM     12  C   UNL     1       2.243   2.190  19.418  0.00  0.00    +0.000 A 
ATOM     13  C   UNL     1       2.808   3.285  18.745  0.00  0.00    +0.000 A 
ATOM     14  S   UNL     1       3.936   2.940  17.399  0.00  0.00    +0.000 S 
ENDROOT
BRANCH   1  15
ATOM     15  C   UNL     1       7.381   7.943  17.561  0.00  0.00    +0.000 C 
ATOM     16  O   UNL     1       7.179   8.902  16.819  0.00  0.00    +0.000 OA
BRANCH  15  18
ATOM     17  C   UNL     1       8.946   9.356  18.944  0.00  0.00    +0.000 C 
ATOM     18  C   UNL     1       8.475   7.949  18.616  0.00  0.00    +0.000 C 
ENDBRANCH  15  18
ENDBRANCH   1  15
BRANCH   7  19
ATOM     19  C   UNL     1       2.170   6.811  18.011  0.00  0.00    +0.000 C 
BRANCH  19  20
ATOM     20  C   UNL     1       2.289   8.159  18.822  0.00  0.00    +0.000 C 
ATOM     21  C   UNL     1       2.387   9.352  17.852  0.00  0.00    +0.000 C 
BRANCH  20  22
ATOM     22  N   UNL     1       1.140   8.390  19.764  0.00  0.00    +0.000 NA
ATOM     23  C   UNL     1       1.512   8.194  21.170  0.00  0.00    +0.000 C 
ATOM     24  C   UNL     1       0.558   9.734  19.626  0.00  0.00    +0.000 C 
ENDBRANCH  20  22
ENDBRANCH  19  20
ENDBRANCH   7  19
TORSDOF 5
ENDMDL
