MODEL 1
REMARK VINA RESULT:      -8.4      0.000      0.000
REMARK  Name = 
REMARK  3 active torsions:
REMARK  status: ('A' for Active; 'I' for Inactive)
REMARK    1  A    between atoms: C_1  and  C_2
REMARK    2  A    between atoms: C_7  and  C_8
REMARK    3  A    between atoms: C_17  and  C_18
REMARK                            x       y       z     vdW  Elec       q    Type
REMARK                         _______ _______ _______ _____ _____    ______ ____
ROOT
ATOM      1  C   UNL     1       1.079   3.645  20.913  0.00  0.00    +0.000 C 
ATOM      2  C   UNL     1       2.388   3.520  20.187  0.00  0.00    +0.000 A 
ATOM      3  C   UNL     1       3.080   2.297  20.251  0.00  0.00    +0.000 A 
ATOM      4  C   UNL     1       4.341   2.182  19.698  0.00  0.00    +0.000 A 
ATOM      5  C   UNL     1       4.896   3.273  19.029  0.00  0.00    +0.000 A 
ATOM      6  C   UNL     1       4.193   4.495  18.878  0.00  0.00    +0.000 A 
ATOM      7  C   UNL     1       4.668   5.629  18.163  0.00  0.00    +0.000 A 
ATOM      8  C   UNL     1       3.961   6.823  18.231  0.00  0.00    +0.000 A 
ATOM      9  C   UNL     1       2.744   6.871  18.877  0.00  0.00    +0.000 A 
ATOM     10  N   UNL     1       2.221   5.770  19.468  0.00  0.00    +0.000 NA
ATOM     11  C   UNL     1       2.928   4.622  19.497  0.00  0.00    +0.000 A 
ENDROOT
BRANCH   7  12
ATOM     12  C   UNL     1       5.961   5.635  17.410  0.00  0.00    +0.000 C 
ATOM     13  O   UNL     1       6.877   6.319  17.868  0.00  0.00    +0.000 OA
ATOM     14  N   UNL     1       6.117   4.926  16.202  0.00  0.00    +0.000 N 
ATOM     15  C   UNL     1       7.451   4.941  15.591  0.00  0.00    +0.000 C 
ATOM     16  C   UNL     1       7.394   5.084  14.071  0.00  0.00    +0.000 C 
ATOM     17  C   UNL     1       6.437   4.075  13.443  0.00  0.00    +0.000 C 
ATOM     18  C   UNL     1       5.070   4.153  14.114  0.00  0.00    +0.000 C 
ATOM     19  C   UNL     1       5.209   3.925  15.621  0.00  0.00    +0.000 C 
ENDBRANCH   7  12
BRANCH   9  20
ATOM     20  C   UNL     1       1.949   8.118  18.959  0.00  0.00    +0.000 A 
ATOM     21  C   UNL     1       1.765   8.948  17.842  0.00  0.00    +0.000 A 
ATOM     22  C   UNL     1       1.025  10.131  17.933  0.00  0.00    +0.000 A 
ATOM     23  C   UNL     1       0.456  10.512  19.147  0.00  0.00    +0.000 A 
ATOM     24  C   UNL     1       0.618   9.708  20.266  0.00  0.00    +0.000 A 
ATOM     25  C   UNL     1       1.353   8.523  20.172  0.00  0.00    +0.000 A 
ENDBRANCH   9  20
TORSDOF 2
ENDMDL
MODEL 2
REMARK VINA RESULT:      -7.0      4.897     10.695
REMARK  Name = 
REMARK  3 active torsions:
REMARK  status: ('A' for Active; 'I' for Inactive)
REMARK    1  A    between atoms: C_1  and  C_2
REMARK    2  A    between atoms: C_7  and  C_8
REMARK    3  A    between atoms: C_17  and  C_18
REMARK                            x       y       z     vdW  Elec       q    Type
REMARK                         _______ _______ _______ _____ _____    ______ ____
ROOT
ATOM      1  C   UNL     1       3.243  13.789  18.212  0.00  0.00    +0.000 C 
ATOM      2  C   UNL     1       1.835  14.068  18.653  0.00  0.00    +0.000 A 
ATOM      3  C   UNL     1       1.401  15.404  18.718  0.00  0.00    +0.000 A 
ATOM      4  C   UNL     1       0.154  15.706  19.232  0.00  0.00    +0.000 A 
ATOM      5  C   UNL     1      -0.689  14.671  19.634  0.00  0.00    +0.000 A 
ATOM      6  C   UNL     1      -0.314  13.309  19.510  0.00  0.00    +0.000 A 
ATOM      7  C   UNL     1      -1.138  12.199  19.844  0.00  0.00    +0.000 A 
ATOM      8  C   UNL     1      -0.596  10.921  19.837  0.00  0.00    +0.000 A 
ATOM      9  C   UNL     1       0.691  10.717  19.384  0.00  0.00    +0.000 A 
ATOM     10  N   UNL     1       1.453  11.750  18.954  0.00  0.00    +0.000 NA
ATOM     11  C   UNL     1       0.985  13.012  19.036  0.00  0.00    +0.000 A 
ENDROOT
BRANCH   7  12
ATOM     12  C   UNL     1      -2.553  12.346  20.306  0.00  0.00    +0.000 C 
ATOM     13  O   UNL     1      -3.438  12.252  19.455  0.00  0.00    +0.000 OA
ATOM     14  N   UNL     1      -2.867  12.627  21.652  0.00  0.00    +0.000 N 
ATOM     15  C   UNL     1      -4.291  12.674  22.005  0.00  0.00    +0.000 C 
ATOM     16  C   UNL     1      -4.612  13.809  22.977  0.00  0.00    +0.000 C 
ATOM     17  C   UNL     1      -3.674  13.806  24.181  0.00  0.00    +0.000 C 
ATOM     18  C   UNL     1      -2.221  13.791  23.721  0.00  0.00    +0.000 C 
ATOM     19  C   UNL     1      -1.967  12.584  22.814  0.00  0.00    +0.000 C 
ENDBRANCH   7  12
BRANCH   9  20
ATOM     20  C   UNL     1       1.303   9.369  19.344  0.00  0.00    +0.000 A 
ATOM     21  C   UNL     1       1.924   8.877  18.184  0.00  0.00    +0.000 A 
ATOM     22  C   UNL     1       2.486   7.598  18.151  0.00  0.00    +0.000 A 
ATOM     23  C   UNL     1       2.436   6.779  19.278  0.00  0.00    +0.000 A 
ATOM     24  C   UNL     1       1.833   7.242  20.439  0.00  0.00    +0.000 A 
ATOM     25  C   UNL     1       1.277   8.523  20.472  0.00  0.00    +0.000 A 
ENDBRANCH   9  20
TORSDOF 2
ENDMDL
MODEL 3
REMARK VINA RESULT:      -6.9      6.970     12.542
REMARK  Name = 
REMARK  3 active torsions:
REMARK  status: ('A' for Active; 'I' for Inactive)
REMARK    1  A    between atoms: C_1  and  C_2
REMARK    2  A    between atoms: C_7  and  C_8
REMARK    3  A    between atoms: C_17  and  C_18
REMARK                            x       y       z     vdW  Elec       q    Type
REMARK                         _______ _______ _______ _____ _____    ______ ____
ROOT
ATOM      1  C   UNL     1       1.183  15.469  22.311  0.00  0.00    +0.000 C 
ATOM      2  C   UNL     1      -0.182  15.403  22.933  0.00  0.00    +0.000 A 
ATOM      3  C   UNL     1      -0.706  16.561  23.535  0.00  0.00    +0.000 A 
ATOM      4  C   UNL     1      -1.904  16.508  24.221  0.00  0.00    +0.000 A 
ATOM      5  C   UNL     1      -2.613  15.308  24.265  0.00  0.00    +0.000 A 
ATOM      6  C   UNL     1      -2.153  14.141  23.605  0.00  0.00    +0.000 A 
ATOM      7  C   UNL     1      -2.846  12.900  23.556  0.00  0.00    +0.000 A 
ATOM      8  C   UNL     1      -2.213  11.785  23.022  0.00  0.00    +0.000 A 
ATOM      9  C   UNL     1      -0.975  11.912  22.426  0.00  0.00    +0.000 A 
ATOM     10  N   UNL     1      -0.349  13.111  22.361  0.00  0.00    +0.000 NA
ATOM     11  C   UNL     1      -0.899  14.191  22.953  0.00  0.00    +0.000 A 
ENDROOT
BRANCH   7  12
ATOM     12  C   UNL     1      -4.205  12.703  24.149  0.00  0.00    +0.000 C 
ATOM     13  O   UNL     1      -4.260  12.292  25.309  0.00  0.00    +0.000 OA
ATOM     14  N   UNL     1      -5.379  12.932  23.403  0.00  0.00    +0.000 N 
ATOM     15  C   UNL     1      -6.655  12.779  24.112  0.00  0.00    +0.000 C 
ATOM     16  C   UNL     1      -7.717  12.090  23.256  0.00  0.00    +0.000 C 
ATOM     17  C   UNL     1      -7.845  12.739  21.880  0.00  0.00    +0.000 C 
ATOM     18  C   UNL     1      -6.480  12.824  21.206  0.00  0.00    +0.000 C 
ATOM     19  C   UNL     1      -5.500  13.593  22.095  0.00  0.00    +0.000 C 
ENDBRANCH   7  12
BRANCH   9  20
ATOM     20  C   UNL     1      -0.271  10.754  21.829  0.00  0.00    +0.000 A 
ATOM     21  C   UNL     1       0.131   9.657  22.608  0.00  0.00    +0.000 A 
ATOM     22  C   UNL     1       0.809   8.574  22.040  0.00  0.00    +0.000 A 
ATOM     23  C   UNL     1       1.103   8.568  20.677  0.00  0.00    +0.000 A 
ATOM     24  C   UNL     1       0.713   9.636  19.883  0.00  0.00    +0.000 A 
ATOM     25  C   UNL     1       0.031  10.715  20.452  0.00  0.00    +0.000 A 
ENDBRANCH   9  20
TORSDOF 2
ENDMDL
MODEL 4
REMARK VINA RESULT:      -6.9      4.865     10.111
REMARK  Name = 
REMARK  3 active torsions:
REMARK  status: ('A' for Active; 'I' for Inactive)
REMARK    1  A    between atoms: C_1  and  C_2
REMARK    2  A    between atoms: C_7  and  C_8
REMARK    3  A    between atoms: C_17  and  C_18
REMARK                            x       y       z     vdW  Elec       q    Type
REMARK                         _______ _______ _______ _____ _____    ______ ____
ROOT
ATOM      1  C   UNL     1       3.350  13.627  18.114  0.00  0.00    +0.000 C 
ATOM      2  C   UNL     1       1.943  13.962  18.518  0.00  0.00    +0.000 A 
ATOM      3  C   UNL     1       1.543  15.311  18.514  0.00  0.00    +0.000 A 
ATOM      4  C   UNL     1       0.297  15.668  18.992  0.00  0.00    +0.000 A 
ATOM      5  C   UNL     1      -0.579  14.674  19.427  0.00  0.00    +0.000 A 
ATOM      6  C   UNL     1      -0.238  13.299  19.372  0.00  0.00    +0.000 A 
ATOM      7  C   UNL     1      -1.097  12.227  19.743  0.00  0.00    +0.000 A 
ATOM      8  C   UNL     1      -0.588  10.937  19.804  0.00  0.00    +0.000 A 
ATOM      9  C   UNL     1       0.699  10.679  19.382  0.00  0.00    +0.000 A 
ATOM     10  N   UNL     1       1.495  11.671  18.918  0.00  0.00    +0.000 NA
ATOM     11  C   UNL     1       1.060  12.947  18.934  0.00  0.00    +0.000 A 
ENDROOT
BRANCH   7  12
ATOM     12  C   UNL     1      -2.514  12.432  20.174  0.00  0.00    +0.000 C 
ATOM     13  O   UNL     1      -2.703  12.825  21.326  0.00  0.00    +0.000 OA
ATOM     14  N   UNL     1      -3.597  12.144  19.318  0.00  0.00    +0.000 N 
ATOM     15  C   UNL     1      -4.941  12.455  19.821  0.00  0.00    +0.000 C 
ATOM     16  C   UNL     1      -5.962  11.378  19.457  0.00  0.00    +0.000 C 
ATOM     17  C   UNL     1      -5.920  11.037  17.970  0.00  0.00    +0.000 C 
ATOM     18  C   UNL     1      -4.496  10.695  17.545  0.00  0.00    +0.000 C 
ATOM     19  C   UNL     1      -3.554  11.855  17.877  0.00  0.00    +0.000 C 
ENDBRANCH   7  12
BRANCH   9  20
ATOM     20  C   UNL     1       1.277   9.315  19.414  0.00  0.00    +0.000 A 
ATOM     21  C   UNL     1       1.896   8.752  18.287  0.00  0.00    +0.000 A 
ATOM     22  C   UNL     1       2.426   7.459  18.322  0.00  0.00    +0.000 A 
ATOM     23  C   UNL     1       2.342   6.697  19.487  0.00  0.00    +0.000 A 
ATOM     24  C   UNL     1       1.739   7.231  20.617  0.00  0.00    +0.000 A 
ATOM     25  C   UNL     1       1.216   8.526  20.582  0.00  0.00    +0.000 A 
ENDBRANCH   9  20
TORSDOF 2
ENDMDL
MODEL 5
REMARK VINA RESULT:      -6.8      2.755      6.137
REMARK  Name = 
REMARK  3 active torsions:
REMARK  status: ('A' for Active; 'I' for Inactive)
REMARK    1  A    between atoms: C_1  and  C_2
REMARK    2  A    between atoms: C_7  and  C_8
REMARK    3  A    between atoms: C_17  and  C_18
REMARK                            x       y       z     vdW  Elec       q    Type
REMARK                         _______ _______ _______ _____ _____    ______ ____
ROOT
ATOM      1  C   UNL     1       7.874   5.867  13.556  0.00  0.00    +0.000 C 
ATOM      2  C   UNL     1       7.053   5.011  14.478  0.00  0.00    +0.000 A 
ATOM      3  C   UNL     1       6.446   3.852  13.961  0.00  0.00    +0.000 A 
ATOM      4  C   UNL     1       5.588   3.106  14.746  0.00  0.00    +0.000 A 
ATOM      5  C   UNL     1       5.374   3.483  16.071  0.00  0.00    +0.000 A 
ATOM      6  C   UNL     1       6.029   4.600  16.648  0.00  0.00    +0.000 A 
ATOM      7  C   UNL     1       5.906   5.011  18.004  0.00  0.00    +0.000 A 
ATOM      8  C   UNL     1       6.465   6.218  18.404  0.00  0.00    +0.000 A 
ATOM      9  C   UNL     1       7.244   6.944  17.527  0.00  0.00    +0.000 A 
ATOM     10  N   UNL     1       7.466   6.510  16.264  0.00  0.00    +0.000 NA
ATOM     11  C   UNL     1       6.861   5.389  15.821  0.00  0.00    +0.000 A 
ENDROOT
BRANCH   7  12
ATOM     12  C   UNL     1       5.108   4.252  19.016  0.00  0.00    +0.000 C 
ATOM     13  O   UNL     1       5.733   3.596  19.851  0.00  0.00    +0.000 OA
ATOM     14  N   UNL     1       3.699   4.244  18.994  0.00  0.00    +0.000 N 
ATOM     15  C   UNL     1       3.022   3.527  20.081  0.00  0.00    +0.000 C 
ATOM     16  C   UNL     1       1.809   2.738  19.590  0.00  0.00    +0.000 C 
ATOM     17  C   UNL     1       0.877   3.600  18.742  0.00  0.00    +0.000 C 
ATOM     18  C   UNL     1       1.657   4.278  17.621  0.00  0.00    +0.000 C 
ATOM     19  C   UNL     1       2.806   5.105  18.203  0.00  0.00    +0.000 C 
ENDBRANCH   7  12
BRANCH   9  20
ATOM     20  C   UNL     1       7.873   8.227  17.916  0.00  0.00    +0.000 A 
ATOM     21  C   UNL     1       8.781   8.307  18.984  0.00  0.00    +0.000 A 
ATOM     22  C   UNL     1       9.359   9.525  19.354  0.00  0.00    +0.000 A 
ATOM     23  C   UNL     1       9.037  10.694  18.664  0.00  0.00    +0.000 A 
ATOM     24  C   UNL     1       8.146  10.642  17.602  0.00  0.00    +0.000 A 
ATOM     25  C   UNL     1       7.574   9.423  17.231  0.00  0.00    +0.000 A 
ENDBRANCH   9  20
TORSDOF 2
ENDMDL
MODEL 6
REMARK VINA RESULT:      -6.8      4.361      8.793
REMARK  Name = 
REMARK  3 active torsions:
REMARK  status: ('A' for Active; 'I' for Inactive)
REMARK    1  A    between atoms: C_1  and  C_2
REMARK    2  A    between atoms: C_7  and  C_8
REMARK    3  A    between atoms: C_17  and  C_18
REMARK                            x       y       z     vdW  Elec       q    Type
REMARK                         _______ _______ _______ _____ _____    ______ ____
ROOT
ATOM      1  C   UNL     1      -0.759   9.288  23.313  0.00  0.00    +0.000 C 
ATOM      2  C   UNL     1      -0.764  10.643  22.665  0.00  0.00    +0.000 A 
ATOM      3  C   UNL     1      -1.494  11.679  23.275  0.00  0.00    +0.000 A 
ATOM      4  C   UNL     1      -1.620  12.903  22.647  0.00  0.00    +0.000 A 
ATOM      5  C   UNL     1      -0.972  13.118  21.432  0.00  0.00    +0.000 A 
ATOM      6  C   UNL     1      -0.164  12.122  20.827  0.00  0.00    +0.000 A 
ATOM      7  C   UNL     1       0.573  12.286  19.621  0.00  0.00    +0.000 A 
ATOM      8  C   UNL     1       1.189  11.183  19.044  0.00  0.00    +0.000 A 
ATOM      9  C   UNL     1       1.198   9.971  19.703  0.00  0.00    +0.000 A 
ATOM     10  N   UNL     1       0.598   9.826  20.908  0.00  0.00    +0.000 NA
ATOM     11  C   UNL     1      -0.087  10.854  21.448  0.00  0.00    +0.000 A 
ENDROOT
BRANCH   7  12
ATOM     12  C   UNL     1       0.636  13.581  18.876  0.00  0.00    +0.000 C 
ATOM     13  O   UNL     1      -0.248  13.799  18.046  0.00  0.00    +0.000 OA
ATOM     14  N   UNL     1       1.688  14.499  19.075  0.00  0.00    +0.000 N 
ATOM     15  C   UNL     1       1.606  15.770  18.345  0.00  0.00    +0.000 C 
ATOM     16  C   UNL     1       2.962  16.216  17.801  0.00  0.00    +0.000 C 
ATOM     17  C   UNL     1       4.042  16.189  18.880  0.00  0.00    +0.000 C 
ATOM     18  C   UNL     1       4.078  14.824  19.560  0.00  0.00    +0.000 C 
ATOM     19  C   UNL     1       2.702  14.489  20.140  0.00  0.00    +0.000 C 
ENDBRANCH   7  12
BRANCH   9  20
ATOM     20  C   UNL     1       1.857   8.774  19.132  0.00  0.00    +0.000 A 
ATOM     21  C   UNL     1       2.370   8.770  17.825  0.00  0.00    +0.000 A 
ATOM     22  C   UNL     1       2.978   7.631  17.289  0.00  0.00    +0.000 A 
ATOM     23  C   UNL     1       3.083   6.467  18.050  0.00  0.00    +0.000 A 
ATOM     24  C   UNL     1       2.589   6.445  19.347  0.00  0.00    +0.000 A 
ATOM     25  C   UNL     1       1.987   7.587  19.882  0.00  0.00    +0.000 A 
ENDBRANCH   9  20
TORSDOF 2
ENDMDL
MODEL 7
REMARK VINA RESULT:      -6.7      7.862     10.115
REMARK  Name = 
REMARK  3 active torsions:
REMARK  status: ('A' for Active; 'I' for Inactive)
REMARK    1  A    between atoms: C_1  and  C_2
REMARK    2  A    between atoms: C_7  and  C_8
REMARK    3  A    between atoms: C_17  and  C_18
REMARK                            x       y       z     vdW  Elec       q    Type
REMARK                         _______ _______ _______ _____ _____    ______ ____
ROOT
ATOM      1  C   UNL     1      -0.992  15.580  23.257  0.00  0.00    +0.000 C 
ATOM      2  C   UNL     1      -1.116  14.227  22.616  0.00  0.00    +0.000 A 
ATOM      3  C   UNL     1      -1.439  13.124  23.427  0.00  0.00    +0.000 A 
ATOM      4  C   UNL     1      -1.444  11.848  22.896  0.00  0.00    +0.000 A 
ATOM      5  C   UNL     1      -1.180  11.672  21.539  0.00  0.00    +0.000 A 
ATOM      6  C   UNL     1      -0.927  12.768  20.677  0.00  0.00    +0.000 A 
ATOM      7  C   UNL     1      -0.706  12.673  19.274  0.00  0.00    +0.000 A 
ATOM      8  C   UNL     1      -0.303  13.800  18.570  0.00  0.00    +0.000 A 
ATOM      9  C   UNL     1      -0.246  15.026  19.199  0.00  0.00    +0.000 A 
ATOM     10  N   UNL     1      -0.563  15.156  20.510  0.00  0.00    +0.000 NA
ATOM     11  C   UNL     1      -0.868  14.064  21.240  0.00  0.00    +0.000 A 
ENDROOT
BRANCH   7  12
ATOM     12  C   UNL     1      -0.789  11.383  18.523  0.00  0.00    +0.000 C 
ATOM     13  O   UNL     1       0.240  10.711  18.441  0.00  0.00    +0.000 OA
ATOM     14  N   UNL     1      -1.980  10.969  17.892  0.00  0.00    +0.000 N 
ATOM     15  C   UNL     1      -1.966   9.650  17.249  0.00  0.00    +0.000 C 
ATOM     16  C   UNL     1      -2.707   9.646  15.913  0.00  0.00    +0.000 C 
ATOM     17  C   UNL     1      -4.098  10.261  16.035  0.00  0.00    +0.000 C 
ATOM     18  C   UNL     1      -4.014  11.639  16.681  0.00  0.00    +0.000 C 
ATOM     19  C   UNL     1      -3.326  11.541  18.045  0.00  0.00    +0.000 C 
ENDBRANCH   7  12
BRANCH   9  20
ATOM     20  C   UNL     1       0.163  16.256  18.483  0.00  0.00    +0.000 A 
ATOM     21  C   UNL     1       1.508  16.515  18.174  0.00  0.00    +0.000 A 
ATOM     22  C   UNL     1       1.887  17.685  17.510  0.00  0.00    +0.000 A 
ATOM     23  C   UNL     1       0.926  18.628  17.145  0.00  0.00    +0.000 A 
ATOM     24  C   UNL     1      -0.411  18.395  17.434  0.00  0.00    +0.000 A 
ATOM     25  C   UNL     1      -0.788  17.222  18.092  0.00  0.00    +0.000 A 
ENDBRANCH   9  20
TORSDOF 2
ENDMDL
MODEL 8
REMARK VINA RESULT:      -6.7      4.646      8.719
REMARK  Name = 
REMARK  3 active torsions:
REMARK  status: ('A' for Active; 'I' for Inactive)
REMARK    1  A    between atoms: C_1  and  C_2
REMARK    2  A    between atoms: C_7  and  C_8
REMARK    3  A    between atoms: C_17  and  C_18
REMARK                            x       y       z     vdW  Elec       q    Type
REMARK                         _______ _______ _______ _____ _____    ______ ____
ROOT
ATOM      1  C   UNL     1      -2.347  15.566  21.835  0.00  0.00    +0.000 C 
ATOM      2  C   UNL     1      -2.022  14.122  22.090  0.00  0.00    +0.000 A 
ATOM      3  C   UNL     1      -2.829  13.397  22.985  0.00  0.00    +0.000 A 
ATOM      4  C   UNL     1      -2.492  12.104  23.335  0.00  0.00    +0.000 A 
ATOM      5  C   UNL     1      -1.375  11.507  22.751  0.00  0.00    +0.000 A 
ATOM      6  C   UNL     1      -0.584  12.181  21.787  0.00  0.00    +0.000 A 
ATOM      7  C   UNL     1       0.532  11.620  21.107  0.00  0.00    +0.000 A 
ATOM      8  C   UNL     1       1.326  12.436  20.311  0.00  0.00    +0.000 A 
ATOM      9  C   UNL     1       0.958  13.745  20.078  0.00  0.00    +0.000 A 
ATOM     10  N   UNL     1      -0.165  14.265  20.627  0.00  0.00    +0.000 NA
ATOM     11  C   UNL     1      -0.904  13.524  21.477  0.00  0.00    +0.000 A 
ENDROOT
BRANCH   7  12
ATOM     12  C   UNL     1       0.964  10.199  21.284  0.00  0.00    +0.000 C 
ATOM     13  O   UNL     1       1.200   9.820  22.432  0.00  0.00    +0.000 OA
ATOM     14  N   UNL     1       1.139   9.336  20.183  0.00  0.00    +0.000 N 
ATOM     15  C   UNL     1       1.491   7.943  20.482  0.00  0.00    +0.000 C 
ATOM     16  C   UNL     1       2.536   7.387  19.516  0.00  0.00    +0.000 C 
ATOM     17  C   UNL     1       2.147   7.629  18.061  0.00  0.00    +0.000 C 
ATOM     18  C   UNL     1       1.833   9.104  17.834  0.00  0.00    +0.000 C 
ATOM     19  C   UNL     1       0.727   9.559  18.789  0.00  0.00    +0.000 C 
ENDBRANCH   7  12
BRANCH   9  20
ATOM     20  C   UNL     1       1.766  14.646  19.224  0.00  0.00    +0.000 A 
ATOM     21  C   UNL     1       1.362  15.964  18.956  0.00  0.00    +0.000 A 
ATOM     22  C   UNL     1       2.123  16.802  18.136  0.00  0.00    +0.000 A 
ATOM     23  C   UNL     1       3.306  16.338  17.562  0.00  0.00    +0.000 A 
ATOM     24  C   UNL     1       3.731  15.042  17.814  0.00  0.00    +0.000 A 
ATOM     25  C   UNL     1       2.972  14.207  18.638  0.00  0.00    +0.000 A 
ENDBRANCH   9  20
TORSDOF 2
ENDMDL
MODEL 9
REMARK VINA RESULT:      -6.6      4.812      9.268
REMARK  Name = 
REMARK  3 active torsions:
REMARK  status: ('A' for Active; 'I' for Inactive)
REMARK    1  A    between atoms: C_1  and  C_2
REMARK    2  A    between atoms: C_7  and  C_8
REMARK    3  A    between atoms: C_17  and  C_18
REMARK                            x       y       z     vdW  Elec       q    Type
REMARK                         _______ _______ _______ _____ _____    ______ ____
ROOT
ATOM      1  C   UNL     1      -1.151  10.290  23.382  0.00  0.00    +0.000 C 
ATOM      2  C   UNL     1      -1.019  11.628  22.712  0.00  0.00    +0.000 A 
ATOM      3  C   UNL     1      -1.674  12.735  23.282  0.00  0.00    +0.000 A 
ATOM      4  C   UNL     1      -1.674  13.954  22.631  0.00  0.00    +0.000 A 
ATOM      5  C   UNL     1      -0.975  14.088  21.432  0.00  0.00    +0.000 A 
ATOM      6  C   UNL     1      -0.240  13.015  20.869  0.00  0.00    +0.000 A 
ATOM      7  C   UNL     1       0.542  13.091  19.683  0.00  0.00    +0.000 A 
ATOM      8  C   UNL     1       1.076  11.928  19.143  0.00  0.00    +0.000 A 
ATOM      9  C   UNL     1       0.960  10.733  19.822  0.00  0.00    +0.000 A 
ATOM     10  N   UNL     1       0.315  10.663  21.010  0.00  0.00    +0.000 NA
ATOM     11  C   UNL     1      -0.292  11.756  21.513  0.00  0.00    +0.000 A 
ENDROOT
BRANCH   7  12
ATOM     12  C   UNL     1       0.740  14.361  18.919  0.00  0.00    +0.000 C 
ATOM     13  O   UNL     1      -0.184  14.734  18.194  0.00  0.00    +0.000 OA
ATOM     14  N   UNL     1       1.949  15.083  18.984  0.00  0.00    +0.000 N 
ATOM     15  C   UNL     1       2.003  16.354  18.252  0.00  0.00    +0.000 C 
ATOM     16  C   UNL     1       3.343  16.565  17.549  0.00  0.00    +0.000 C 
ATOM     17  C   UNL     1       4.520  16.345  18.496  0.00  0.00    +0.000 C 
ATOM     18  C   UNL     1       4.400  14.989  19.185  0.00  0.00    +0.000 C 
ATOM     19  C   UNL     1       3.063  14.891  19.924  0.00  0.00    +0.000 C 
ENDBRANCH   7  12
BRANCH   9  20
ATOM     20  C   UNL     1       1.528   9.472  19.291  0.00  0.00    +0.000 A 
ATOM     21  C   UNL     1       1.662   8.330  20.096  0.00  0.00    +0.000 A 
ATOM     22  C   UNL     1       2.213   7.148  19.591  0.00  0.00    +0.000 A 
ATOM     23  C   UNL     1       2.647   7.086  18.268  0.00  0.00    +0.000 A 
ATOM     24  C   UNL     1       2.522   8.198  17.448  0.00  0.00    +0.000 A 
ATOM     25  C   UNL     1       1.966   9.376  17.954  0.00  0.00    +0.000 A 
ENDBRANCH   9  20
TORSDOF 2
ENDMDL
