MODEL 1
REMARK VINA RESULT:      -6.8      0.000      0.000
REMARK  Name = 
REMARK  5 active torsions:
REMARK  status: ('A' for Active; 'I' for Inactive)
REMARK    1  A    between atoms: C_1  and  C_2
REMARK    2  A    between atoms: N_4  and  C_5
REMARK    3  A    between atoms: N_4  and  C_11
REMARK    4  A    between atoms: C_13  and  C_14
REMARK    5  A    between atoms: C_16  and  C_18
REMARK                            x       y       z     vdW  Elec       q    Type
REMARK                         _______ _______ _______ _____ _____    ______ ____
ROOT
ATOM      1  C   UNL     1      10.008  15.399  19.164  0.00  0.00    +0.000 C 
ATOM      2  C   UNL     1       8.871  16.157  18.482  0.00  0.00    +0.000 C 
ATOM      3  C   UNL     1       7.777  16.583  19.434  0.00  0.00    +0.000 C 
ATOM      4  C   UNL     1       8.217  17.793  20.284  0.00  0.00    +0.000 C 
ATOM      5  N   UNL     1       7.294  15.422  20.271  0.00  0.00    +0.000 N 
ATOM      6  C   UNL     1       5.921  15.231  20.589  0.00  0.00    +0.000 C 
ATOM      7  O   UNL     1       5.436  14.628  21.538  0.00  0.00    +0.000 OA
ATOM      8  C   UNL     1       8.343  14.837  21.075  0.00  0.00    +0.000 A 
ATOM      9  C   UNL     1       8.048  14.474  22.405  0.00  0.00    +0.000 A 
ATOM     10  C   UNL     1       8.831  15.005  23.412  0.00  0.00    +0.000 A 
ATOM     11  C   UNL     1       9.986  15.681  23.055  0.00  0.00    +0.000 A 
ATOM     12  C   UNL     1      10.446  15.644  21.715  0.00  0.00    +0.000 A 
ATOM     13  C   UNL     1       9.665  15.118  20.666  0.00  0.00    +0.000 A 
ENDROOT
BRANCH   6  14
ATOM     14  C   UNL     1       4.967  15.615  19.554  0.00  0.00    +0.000 A 
ATOM     15  C   UNL     1       4.070  16.628  19.890  0.00  0.00    +0.000 A 
ATOM     16  C   UNL     1       3.016  16.926  19.035  0.00  0.00    +0.000 A 
ATOM     17  C   UNL     1       2.865  16.207  17.845  0.00  0.00    +0.000 A 
ATOM     18  C   UNL     1       3.790  15.234  17.477  0.00  0.00    +0.000 A 
ATOM     19  C   UNL     1       4.887  14.980  18.300  0.00  0.00    +0.000 A 
ENDBRANCH   6  14
BRANCH   1  23
ATOM     20  C   UNL     1      12.333  15.783  17.221  0.00  0.00    +0.000 C 
ATOM     21  C   UNL     1      11.562  14.501  17.244  0.00  0.00    +0.000 C 
ATOM     22  O   UNL     1      11.932  13.625  16.450  0.00  0.00    +0.000 OA
ATOM     23  N   UNL     1      10.487  14.346  18.141  0.00  0.00    +0.000 N 
BRANCH  23  24
ATOM     24  C   UNL     1      10.135  12.926  18.469  0.00  0.00    +0.000 A 
ATOM     25  C   UNL     1       9.101  12.221  17.800  0.00  0.00    +0.000 A 
ATOM     26  C   UNL     1       8.683  10.933  18.186  0.00  0.00    +0.000 A 
ATOM     27  C   UNL     1       9.313  10.288  19.237  0.00  0.00    +0.000 A 
ATOM     28  C   UNL     1      10.388  10.915  19.859  0.00  0.00    +0.000 A 
ATOM     29  C   UNL     1      10.799  12.209  19.474  0.00  0.00    +0.000 A 
ENDBRANCH  23  24
ENDBRANCH   1  23
TORSDOF 3
ENDMDL
MODEL 2
REMARK VINA RESULT:      -6.7      9.838     13.190
REMARK  Name = 
REMARK  5 active torsions:
REMARK  status: ('A' for Active; 'I' for Inactive)
REMARK    1  A    between atoms: C_1  and  C_2
REMARK    2  A    between atoms: N_4  and  C_5
REMARK    3  A    between atoms: N_4  and  C_11
REMARK    4  A    between atoms: C_13  and  C_14
REMARK    5  A    between atoms: C_16  and  C_18
REMARK                            x       y       z     vdW  Elec       q    Type
REMARK                         _______ _______ _______ _____ _____    ______ ____
ROOT
ATOM      1  C   UNL     1      -3.766  15.200  22.693  0.00  0.00    +0.000 C 
ATOM      2  C   UNL     1      -3.644  15.009  21.183  0.00  0.00    +0.000 C 
ATOM      3  C   UNL     1      -4.892  14.443  20.546  0.00  0.00    +0.000 C 
ATOM      4  C   UNL     1      -5.995  15.515  20.429  0.00  0.00    +0.000 C 
ATOM      5  N   UNL     1      -5.358  13.197  21.263  0.00  0.00    +0.000 N 
ATOM      6  C   UNL     1      -5.873  12.066  20.571  0.00  0.00    +0.000 C 
ATOM      7  O   UNL     1      -6.634  11.201  20.984  0.00  0.00    +0.000 OA
ATOM      8  C   UNL     1      -5.670  13.436  22.654  0.00  0.00    +0.000 A 
ATOM      9  C   UNL     1      -6.824  12.834  23.197  0.00  0.00    +0.000 A 
ATOM     10  C   UNL     1      -7.763  13.651  23.797  0.00  0.00    +0.000 A 
ATOM     11  C   UNL     1      -7.426  14.976  24.024  0.00  0.00    +0.000 A 
ATOM     12  C   UNL     1      -6.091  15.413  23.837  0.00  0.00    +0.000 A 
ATOM     13  C   UNL     1      -5.114  14.604  23.221  0.00  0.00    +0.000 A 
ENDROOT
BRANCH   6  14
ATOM     14  C   UNL     1      -5.259  11.777  19.279  0.00  0.00    +0.000 A 
ATOM     15  C   UNL     1      -3.878  11.589  19.283  0.00  0.00    +0.000 A 
ATOM     16  C   UNL     1      -3.192  11.493  18.078  0.00  0.00    +0.000 A 
ATOM     17  C   UNL     1      -3.895  11.586  16.872  0.00  0.00    +0.000 A 
ATOM     18  C   UNL     1      -5.281  11.716  16.862  0.00  0.00    +0.000 A 
ATOM     19  C   UNL     1      -5.979  11.744  18.069  0.00  0.00    +0.000 A 
ENDBRANCH   6  14
BRANCH   1  23
ATOM     20  C   UNL     1      -2.650  16.394  25.274  0.00  0.00    +0.000 C 
ATOM     21  C   UNL     1      -1.837  15.433  24.463  0.00  0.00    +0.000 C 
ATOM     22  O   UNL     1      -0.716  15.154  24.908  0.00  0.00    +0.000 OA
ATOM     23  N   UNL     1      -2.366  14.901  23.271  0.00  0.00    +0.000 N 
BRANCH  23  24
ATOM     24  C   UNL     1      -1.753  13.607  22.829  0.00  0.00    +0.000 A 
ATOM     25  C   UNL     1      -2.174  12.348  23.331  0.00  0.00    +0.000 A 
ATOM     26  C   UNL     1      -1.522  11.142  23.014  0.00  0.00    +0.000 A 
ATOM     27  C   UNL     1      -0.440  11.148  22.149  0.00  0.00    +0.000 A 
ATOM     28  C   UNL     1      -0.054  12.353  21.570  0.00  0.00    +0.000 A 
ATOM     29  C   UNL     1      -0.706  13.561  21.896  0.00  0.00    +0.000 A 
ENDBRANCH  23  24
ENDBRANCH   1  23
TORSDOF 3
ENDMDL
MODEL 3
REMARK VINA RESULT:      -6.5      8.310     11.393
REMARK  Name = 
REMARK  5 active torsions:
REMARK  status: ('A' for Active; 'I' for Inactive)
REMARK    1  A    between atoms: C_1  and  C_2
REMARK    2  A    between atoms: N_4  and  C_5
REMARK    3  A    between atoms: N_4  and  C_11
REMARK    4  A    between atoms: C_13  and  C_14
REMARK    5  A    between atoms: C_16  and  C_18
REMARK                            x       y       z     vdW  Elec       q    Type
REMARK                         _______ _______ _______ _____ _____    ______ ____
ROOT
ATOM      1  C   UNL     1      -1.228  14.021  21.776  0.00  0.00    +0.000 C 
ATOM      2  C   UNL     1      -2.032  14.333  20.515  0.00  0.00    +0.000 C 
ATOM      3  C   UNL     1      -3.523  14.404  20.755  0.00  0.00    +0.000 C 
ATOM      4  C   UNL     1      -3.913  15.719  21.460  0.00  0.00    +0.000 C 
ATOM      5  N   UNL     1      -4.020  13.177  21.484  0.00  0.00    +0.000 N 
ATOM      6  C   UNL     1      -5.257  12.551  21.166  0.00  0.00    +0.000 C 
ATOM      7  O   UNL     1      -5.964  11.854  21.882  0.00  0.00    +0.000 OA
ATOM      8  C   UNL     1      -3.397  13.002  22.776  0.00  0.00    +0.000 A 
ATOM      9  C   UNL     1      -4.203  12.608  23.864  0.00  0.00    +0.000 A 
ATOM     10  C   UNL     1      -4.203  13.403  24.994  0.00  0.00    +0.000 A 
ATOM     11  C   UNL     1      -3.259  14.413  25.083  0.00  0.00    +0.000 A 
ATOM     12  C   UNL     1      -2.203  14.485  24.141  0.00  0.00    +0.000 A 
ATOM     13  C   UNL     1      -2.181  13.694  22.974  0.00  0.00    +0.000 A 
ENDROOT
BRANCH   6  14
ATOM     14  C   UNL     1      -5.632  12.560  19.756  0.00  0.00    +0.000 A 
ATOM     15  C   UNL     1      -4.881  11.738  18.915  0.00  0.00    +0.000 A 
ATOM     16  C   UNL     1      -5.049  11.824  17.539  0.00  0.00    +0.000 A 
ATOM     17  C   UNL     1      -5.968  12.736  17.009  0.00  0.00    +0.000 A 
ATOM     18  C   UNL     1      -6.761  13.517  17.845  0.00  0.00    +0.000 A 
ATOM     19  C   UNL     1      -6.644  13.384  19.228  0.00  0.00    +0.000 A 
ENDBRANCH   6  14
BRANCH   1  23
ATOM     20  C   UNL     1       1.677  14.958  21.666  0.00  0.00    +0.000 C 
ATOM     21  C   UNL     1       1.309  13.563  21.264  0.00  0.00    +0.000 C 
ATOM     22  O   UNL     1       2.243  12.832  20.907  0.00  0.00    +0.000 OA
ATOM     23  N   UNL     1      -0.038  13.153  21.313  0.00  0.00    +0.000 N 
BRANCH  23  24
ATOM     24  C   UNL     1      -0.245  11.672  21.415  0.00  0.00    +0.000 A 
ATOM     25  C   UNL     1      -0.393  11.004  22.659  0.00  0.00    +0.000 A 
ATOM     26  C   UNL     1      -0.465   9.602  22.768  0.00  0.00    +0.000 A 
ATOM     27  C   UNL     1      -0.426   8.818  21.628  0.00  0.00    +0.000 A 
ATOM     28  C   UNL     1      -0.369   9.443  20.387  0.00  0.00    +0.000 A 
ATOM     29  C   UNL     1      -0.291  10.848  20.281  0.00  0.00    +0.000 A 
ENDBRANCH  23  24
ENDBRANCH   1  23
TORSDOF 3
ENDMDL
MODEL 4
REMARK VINA RESULT:      -6.5      7.364     10.348
REMARK  Name = 
REMARK  5 active torsions:
REMARK  status: ('A' for Active; 'I' for Inactive)
REMARK    1  A    between atoms: C_1  and  C_2
REMARK    2  A    between atoms: N_4  and  C_5
REMARK    3  A    between atoms: N_4  and  C_11
REMARK    4  A    between atoms: C_13  and  C_14
REMARK    5  A    between atoms: C_16  and  C_18
REMARK                            x       y       z     vdW  Elec       q    Type
REMARK                         _______ _______ _______ _____ _____    ______ ____
ROOT
ATOM      1  C   UNL     1      -0.750  10.913  20.532  0.00  0.00    +0.000 C 
ATOM      2  C   UNL     1      -1.744  12.023  20.195  0.00  0.00    +0.000 C 
ATOM      3  C   UNL     1      -1.306  12.890  19.038  0.00  0.00    +0.000 C 
ATOM      4  C   UNL     1      -1.498  12.163  17.691  0.00  0.00    +0.000 C 
ATOM      5  N   UNL     1       0.103  13.399  19.235  0.00  0.00    +0.000 N 
ATOM      6  C   UNL     1       0.492  14.721  18.884  0.00  0.00    +0.000 C 
ATOM      7  O   UNL     1       1.608  15.137  18.601  0.00  0.00    +0.000 OA
ATOM      8  C   UNL     1       1.072  12.333  19.347  0.00  0.00    +0.000 A 
ATOM      9  C   UNL     1       2.306  12.472  18.679  0.00  0.00    +0.000 A 
ATOM     10  C   UNL     1       2.680  11.479  17.794  0.00  0.00    +0.000 A 
ATOM     11  C   UNL     1       1.939  10.309  17.772  0.00  0.00    +0.000 A 
ATOM     12  C   UNL     1       0.965  10.065  18.772  0.00  0.00    +0.000 A 
ATOM     13  C   UNL     1       0.556  11.061  19.682  0.00  0.00    +0.000 A 
ENDROOT
BRANCH   6  14
ATOM     14  C   UNL     1      -0.515  15.757  19.089  0.00  0.00    +0.000 A 
ATOM     15  C   UNL     1      -0.553  16.774  18.135  0.00  0.00    +0.000 A 
ATOM     16  C   UNL     1      -1.352  17.891  18.350  0.00  0.00    +0.000 A 
ATOM     17  C   UNL     1      -2.110  17.984  19.522  0.00  0.00    +0.000 A 
ATOM     18  C   UNL     1      -2.121  16.946  20.450  0.00  0.00    +0.000 A 
ATOM     19  C   UNL     1      -1.374  15.795  20.204  0.00  0.00    +0.000 A 
ENDBRANCH   6  14
BRANCH   1  23
ATOM     20  C   UNL     1       1.057   9.063  22.157  0.00  0.00    +0.000 C 
ATOM     21  C   UNL     1       0.021   9.905  22.834  0.00  0.00    +0.000 C 
ATOM     22  O   UNL     1      -0.040   9.812  24.067  0.00  0.00    +0.000 OA
ATOM     23  N   UNL     1      -0.809  10.745  22.066  0.00  0.00    +0.000 N 
BRANCH  23  24
ATOM     24  C   UNL     1      -1.412  11.895  22.814  0.00  0.00    +0.000 A 
ATOM     25  C   UNL     1      -2.710  11.840  23.386  0.00  0.00    +0.000 A 
ATOM     26  C   UNL     1      -3.329  12.955  23.981  0.00  0.00    +0.000 A 
ATOM     27  C   UNL     1      -2.655  14.162  24.058  0.00  0.00    +0.000 A 
ATOM     28  C   UNL     1      -1.348  14.228  23.585  0.00  0.00    +0.000 A 
ATOM     29  C   UNL     1      -0.732  13.111  22.983  0.00  0.00    +0.000 A 
ENDBRANCH  23  24
ENDBRANCH   1  23
TORSDOF 3
ENDMDL
MODEL 5
REMARK VINA RESULT:      -6.5      0.907      1.316
REMARK  Name = 
REMARK  5 active torsions:
REMARK  status: ('A' for Active; 'I' for Inactive)
REMARK    1  A    between atoms: C_1  and  C_2
REMARK    2  A    between atoms: N_4  and  C_5
REMARK    3  A    between atoms: N_4  and  C_11
REMARK    4  A    between atoms: C_13  and  C_14
REMARK    5  A    between atoms: C_16  and  C_18
REMARK                            x       y       z     vdW  Elec       q    Type
REMARK                         _______ _______ _______ _____ _____    ______ ____
ROOT
ATOM      1  C   UNL     1       9.274  15.835  19.635  0.00  0.00    +0.000 C 
ATOM      2  C   UNL     1       8.098  16.621  19.058  0.00  0.00    +0.000 C 
ATOM      3  C   UNL     1       6.918  16.712  19.997  0.00  0.00    +0.000 C 
ATOM      4  C   UNL     1       7.180  17.727  21.127  0.00  0.00    +0.000 C 
ATOM      5  N   UNL     1       6.520  15.348  20.513  0.00  0.00    +0.000 N 
ATOM      6  C   UNL     1       5.162  14.962  20.678  0.00  0.00    +0.000 C 
ATOM      7  O   UNL     1       4.696  14.114  21.428  0.00  0.00    +0.000 OA
ATOM      8  C   UNL     1       7.583  14.694  21.242  0.00  0.00    +0.000 A 
ATOM      9  C   UNL     1       7.262  14.008  22.430  0.00  0.00    +0.000 A 
ATOM     10  C   UNL     1       7.931  14.362  23.586  0.00  0.00    +0.000 A 
ATOM     11  C   UNL     1       9.022  15.208  23.477  0.00  0.00    +0.000 A 
ATOM     12  C   UNL     1       9.552  15.524  22.201  0.00  0.00    +0.000 A 
ATOM     13  C   UNL     1       8.887  15.184  21.005  0.00  0.00    +0.000 A 
ENDROOT
BRANCH   6  14
ATOM     14  C   UNL     1       4.226  15.484  19.686  0.00  0.00    +0.000 A 
ATOM     15  C   UNL     1       4.386  15.013  18.384  0.00  0.00    +0.000 A 
ATOM     16  C   UNL     1       3.662  15.593  17.349  0.00  0.00    +0.000 A 
ATOM     17  C   UNL     1       2.781  16.644  17.624  0.00  0.00    +0.000 A 
ATOM     18  C   UNL     1       2.575  17.080  18.930  0.00  0.00    +0.000 A 
ATOM     19  C   UNL     1       3.248  16.454  19.978  0.00  0.00    +0.000 A 
ENDBRANCH   6  14
BRANCH   1  23
ATOM     20  C   UNL     1      11.224  17.092  17.648  0.00  0.00    +0.000 C 
ATOM     21  C   UNL     1      10.823  15.655  17.520  0.00  0.00    +0.000 C 
ATOM     22  O   UNL     1      11.335  15.026  16.584  0.00  0.00    +0.000 OA
ATOM     23  N   UNL     1       9.916  15.097  18.440  0.00  0.00    +0.000 N 
BRANCH  23  24
ATOM     24  C   UNL     1       9.982  13.604  18.569  0.00  0.00    +0.000 A 
ATOM     25  C   UNL     1       9.011  12.743  17.994  0.00  0.00    +0.000 A 
ATOM     26  C   UNL     1       8.999  11.353  18.214  0.00  0.00    +0.000 A 
ATOM     27  C   UNL     1       9.982  10.768  18.993  0.00  0.00    +0.000 A 
ATOM     28  C   UNL     1      10.999  11.571  19.501  0.00  0.00    +0.000 A 
ATOM     29  C   UNL     1      11.004  12.964  19.284  0.00  0.00    +0.000 A 
ENDBRANCH  23  24
ENDBRANCH   1  23
TORSDOF 3
ENDMDL
MODEL 6
REMARK VINA RESULT:      -6.3      5.830      9.478
REMARK  Name = 
REMARK  5 active torsions:
REMARK  status: ('A' for Active; 'I' for Inactive)
REMARK    1  A    between atoms: C_1  and  C_2
REMARK    2  A    between atoms: N_4  and  C_5
REMARK    3  A    between atoms: N_4  and  C_11
REMARK    4  A    between atoms: C_13  and  C_14
REMARK    5  A    between atoms: C_16  and  C_18
REMARK                            x       y       z     vdW  Elec       q    Type
REMARK                         _______ _______ _______ _____ _____    ______ ____
ROOT
ATOM      1  C   UNL     1      -0.738  14.661  19.158  0.00  0.00    +0.000 C 
ATOM      2  C   UNL     1      -0.563  13.388  18.333  0.00  0.00    +0.000 C 
ATOM      3  C   UNL     1      -0.898  12.127  19.095  0.00  0.00    +0.000 C 
ATOM      4  C   UNL     1      -2.423  11.951  19.241  0.00  0.00    +0.000 C 
ATOM      5  N   UNL     1      -0.172  12.077  20.419  0.00  0.00    +0.000 N 
ATOM      6  C   UNL     1       0.386  10.875  20.938  0.00  0.00    +0.000 C 
ATOM      7  O   UNL     1       0.620  10.585  22.104  0.00  0.00    +0.000 OA
ATOM      8  C   UNL     1      -0.504  13.187  21.283  0.00  0.00    +0.000 A 
ATOM      9  C   UNL     1      -0.712  12.934  22.654  0.00  0.00    +0.000 A 
ATOM     10  C   UNL     1      -1.912  13.331  23.212  0.00  0.00    +0.000 A 
ATOM     11  C   UNL     1      -2.748  14.140  22.460  0.00  0.00    +0.000 A 
ATOM     12  C   UNL     1      -2.286  14.707  21.247  0.00  0.00    +0.000 A 
ATOM     13  C   UNL     1      -1.071  14.315  20.648  0.00  0.00    +0.000 A 
ENDROOT
BRANCH   6  14
ATOM     14  C   UNL     1       0.946   9.956  19.952  0.00  0.00    +0.000 A 
ATOM     15  C   UNL     1       1.242   8.672  20.409  0.00  0.00    +0.000 A 
ATOM     16  C   UNL     1       1.944   7.795  19.591  0.00  0.00    +0.000 A 
ATOM     17  C   UNL     1       2.347   8.209  18.317  0.00  0.00    +0.000 A 
ATOM     18  C   UNL     1       2.005   9.469  17.834  0.00  0.00    +0.000 A 
ATOM     19  C   UNL     1       1.242  10.326  18.626  0.00  0.00    +0.000 A 
ENDBRANCH   6  14
BRANCH   1  23
ATOM     20  C   UNL     1      -1.177  17.579  18.368  0.00  0.00    +0.000 C 
ATOM     21  C   UNL     1       0.192  16.975  18.328  0.00  0.00    +0.000 C 
ATOM     22  O   UNL     1       1.112  17.726  17.975  0.00  0.00    +0.000 OA
ATOM     23  N   UNL     1       0.373  15.625  18.688  0.00  0.00    +0.000 N 
BRANCH  23  24
ATOM     24  C   UNL     1       1.761  15.266  19.124  0.00  0.00    +0.000 A 
ATOM     25  C   UNL     1       2.243  15.525  20.434  0.00  0.00    +0.000 A 
ATOM     26  C   UNL     1       3.580  15.304  20.813  0.00  0.00    +0.000 A 
ATOM     27  C   UNL     1       4.479  14.780  19.900  0.00  0.00    +0.000 A 
ATOM     28  C   UNL     1       4.021  14.433  18.633  0.00  0.00    +0.000 A 
ATOM     29  C   UNL     1       2.681  14.663  18.255  0.00  0.00    +0.000 A 
ENDBRANCH  23  24
ENDBRANCH   1  23
TORSDOF 3
ENDMDL
MODEL 7
REMARK VINA RESULT:      -6.3      9.157     12.871
REMARK  Name = 
REMARK  5 active torsions:
REMARK  status: ('A' for Active; 'I' for Inactive)
REMARK    1  A    between atoms: C_1  and  C_2
REMARK    2  A    between atoms: N_4  and  C_5
REMARK    3  A    between atoms: N_4  and  C_11
REMARK    4  A    between atoms: C_13  and  C_14
REMARK    5  A    between atoms: C_16  and  C_18
REMARK                            x       y       z     vdW  Elec       q    Type
REMARK                         _______ _______ _______ _____ _____    ______ ____
ROOT
ATOM      1  C   UNL     1      -3.322  13.929  23.200  0.00  0.00    +0.000 C 
ATOM      2  C   UNL     1      -3.313  12.539  22.565  0.00  0.00    +0.000 C 
ATOM      3  C   UNL     1      -2.081  12.267  21.733  0.00  0.00    +0.000 C 
ATOM      4  C   UNL     1      -0.855  11.984  22.626  0.00  0.00    +0.000 C 
ATOM      5  N   UNL     1      -1.837  13.374  20.734  0.00  0.00    +0.000 N 
ATOM      6  C   UNL     1      -1.391  13.119  19.408  0.00  0.00    +0.000 C 
ATOM      7  O   UNL     1      -0.780  13.864  18.653  0.00  0.00    +0.000 OA
ATOM      8  C   UNL     1      -1.641  14.660  21.361  0.00  0.00    +0.000 A 
ATOM      9  C   UNL     1      -0.626  15.503  20.864  0.00  0.00    +0.000 A 
ATOM     10  C   UNL     1       0.337  15.952  21.748  0.00  0.00    +0.000 A 
ATOM     11  C   UNL     1       0.135  15.733  23.101  0.00  0.00    +0.000 A 
ATOM     12  C   UNL     1      -1.114  15.253  23.565  0.00  0.00    +0.000 A 
ATOM     13  C   UNL     1      -2.112  14.780  22.688  0.00  0.00    +0.000 A 
ENDROOT
BRANCH   6  14
ATOM     14  C   UNL     1      -1.901  11.900  18.787  0.00  0.00    +0.000 A 
ATOM     15  C   UNL     1      -0.943  10.976  18.372  0.00  0.00    +0.000 A 
ATOM     16  C   UNL     1      -1.330   9.880  17.610  0.00  0.00    +0.000 A 
ATOM     17  C   UNL     1      -2.675   9.715  17.266  0.00  0.00    +0.000 A 
ATOM     18  C   UNL     1      -3.644  10.603  17.726  0.00  0.00    +0.000 A 
ATOM     19  C   UNL     1      -3.268  11.666  18.548  0.00  0.00    +0.000 A 
ENDBRANCH   6  14
BRANCH   1  23
ATOM     20  C   UNL     1      -4.423  16.277  24.813  0.00  0.00    +0.000 C 
ATOM     21  C   UNL     1      -5.323  15.465  23.935  0.00  0.00    +0.000 C 
ATOM     22  O   UNL     1      -6.512  15.813  23.898  0.00  0.00    +0.000 OA
ATOM     23  N   UNL     1      -4.798  14.381  23.206  0.00  0.00    +0.000 N 
BRANCH  23  24
ATOM     24  C   UNL     1      -5.596  13.981  22.001  0.00  0.00    +0.000 A 
ATOM     25  C   UNL     1      -6.590  12.969  22.042  0.00  0.00    +0.000 A 
ATOM     26  C   UNL     1      -7.254  12.505  20.891  0.00  0.00    +0.000 A 
ATOM     27  C   UNL     1      -6.971  13.064  19.657  0.00  0.00    +0.000 A 
ATOM     28  C   UNL     1      -6.065  14.118  19.592  0.00  0.00    +0.000 A 
ATOM     29  C   UNL     1      -5.396  14.576  20.747  0.00  0.00    +0.000 A 
ENDBRANCH  23  24
ENDBRANCH   1  23
TORSDOF 3
ENDMDL
MODEL 8
REMARK VINA RESULT:      -6.2      6.606     10.452
REMARK  Name = 
REMARK  5 active torsions:
REMARK  status: ('A' for Active; 'I' for Inactive)
REMARK    1  A    between atoms: C_1  and  C_2
REMARK    2  A    between atoms: N_4  and  C_5
REMARK    3  A    between atoms: N_4  and  C_11
REMARK    4  A    between atoms: C_13  and  C_14
REMARK    5  A    between atoms: C_16  and  C_18
REMARK                            x       y       z     vdW  Elec       q    Type
REMARK                         _______ _______ _______ _____ _____    ______ ____
ROOT
ATOM      1  C   UNL     1       0.904  12.719  19.872  0.00  0.00    +0.000 C 
ATOM      2  C   UNL     1       0.444  12.895  21.319  0.00  0.00    +0.000 C 
ATOM      3  C   UNL     1      -0.861  12.196  21.623  0.00  0.00    +0.000 C 
ATOM      4  C   UNL     1      -0.660  10.673  21.759  0.00  0.00    +0.000 C 
ATOM      5  N   UNL     1      -1.927  12.561  20.617  0.00  0.00    +0.000 N 
ATOM      6  C   UNL     1      -3.281  12.786  20.989  0.00  0.00    +0.000 C 
ATOM      7  O   UNL     1      -4.288  12.681  20.300  0.00  0.00    +0.000 OA
ATOM      8  C   UNL     1      -1.566  12.200  19.265  0.00  0.00    +0.000 A 
ATOM      9  C   UNL     1      -2.552  11.627  18.435  0.00  0.00    +0.000 A 
ATOM     10  C   UNL     1      -2.282  10.402  17.857  0.00  0.00    +0.000 A 
ATOM     11  C   UNL     1      -0.991   9.909  17.943  0.00  0.00    +0.000 A 
ATOM     12  C   UNL     1       0.055  10.734  18.425  0.00  0.00    +0.000 A 
ATOM     13  C   UNL     1      -0.190  11.984  19.028  0.00  0.00    +0.000 A 
ENDROOT
BRANCH   6  14
ATOM     14  C   UNL     1      -3.488  13.423  22.285  0.00  0.00    +0.000 A 
ATOM     15  C   UNL     1      -3.149  14.773  22.368  0.00  0.00    +0.000 A 
ATOM     16  C   UNL     1      -3.141  15.406  23.604  0.00  0.00    +0.000 A 
ATOM     17  C   UNL     1      -3.472  14.683  24.755  0.00  0.00    +0.000 A 
ATOM     18  C   UNL     1      -3.867  13.351  24.672  0.00  0.00    +0.000 A 
ATOM     19  C   UNL     1      -3.942  12.731  23.425  0.00  0.00    +0.000 A 
ENDBRANCH   6  14
BRANCH   1  23
ATOM     20  C   UNL     1       3.119  12.989  17.786  0.00  0.00    +0.000 C 
ATOM     21  C   UNL     1       2.611  14.191  18.521  0.00  0.00    +0.000 C 
ATOM     22  O   UNL     1       3.129  15.275  18.220  0.00  0.00    +0.000 OA
ATOM     23  N   UNL     1       1.596  14.044  19.485  0.00  0.00    +0.000 N 
BRANCH  23  24
ATOM     24  C   UNL     1       0.805  15.287  19.767  0.00  0.00    +0.000 A 
ATOM     25  C   UNL     1       1.091  16.145  20.860  0.00  0.00    +0.000 A 
ATOM     26  C   UNL     1       0.278  17.242  21.202  0.00  0.00    +0.000 A 
ATOM     27  C   UNL     1      -0.835  17.543  20.435  0.00  0.00    +0.000 A 
ATOM     28  C   UNL     1      -1.096  16.775  19.305  0.00  0.00    +0.000 A 
ATOM     29  C   UNL     1      -0.283  15.671  18.970  0.00  0.00    +0.000 A 
ENDBRANCH  23  24
ENDBRANCH   1  23
TORSDOF 3
ENDMDL
MODEL 9
REMARK VINA RESULT:      -6.2      6.364     10.297
REMARK  Name = 
REMARK  5 active torsions:
REMARK  status: ('A' for Active; 'I' for Inactive)
REMARK    1  A    between atoms: C_1  and  C_2
REMARK    2  A    between atoms: N_4  and  C_5
REMARK    3  A    between atoms: N_4  and  C_11
REMARK    4  A    between atoms: C_13  and  C_14
REMARK    5  A    between atoms: C_16  and  C_18
REMARK                            x       y       z     vdW  Elec       q    Type
REMARK                         _______ _______ _______ _____ _____    ______ ____
ROOT
ATOM      1  C   UNL     1       1.097  13.309  20.123  0.00  0.00    +0.000 C 
ATOM      2  C   UNL     1       0.393  13.533  21.461  0.00  0.00    +0.000 C 
ATOM      3  C   UNL     1      -0.821  12.654  21.655  0.00  0.00    +0.000 C 
ATOM      4  C   UNL     1      -0.413  11.205  21.991  0.00  0.00    +0.000 C 
ATOM      5  N   UNL     1      -1.757  12.742  20.473  0.00  0.00    +0.000 N 
ATOM      6  C   UNL     1      -3.172  12.767  20.622  0.00  0.00    +0.000 C 
ATOM      7  O   UNL     1      -4.029  12.433  19.814  0.00  0.00    +0.000 OA
ATOM      8  C   UNL     1      -1.137  12.328  19.236  0.00  0.00    +0.000 A 
ATOM      9  C   UNL     1      -1.880  11.525  18.346  0.00  0.00    +0.000 A 
ATOM     10  C   UNL     1      -1.337  10.316  17.954  0.00  0.00    +0.000 A 
ATOM     11  C   UNL     1      -0.015  10.057  18.278  0.00  0.00    +0.000 A 
ATOM     12  C   UNL     1       0.802  11.087  18.806  0.00  0.00    +0.000 A 
ATOM     13  C   UNL     1       0.276  12.327  19.222  0.00  0.00    +0.000 A 
ENDROOT
BRANCH   6  14
ATOM     14  C   UNL     1      -3.676  13.473  21.795  0.00  0.00    +0.000 A 
ATOM     15  C   UNL     1      -3.571  14.863  21.768  0.00  0.00    +0.000 A 
ATOM     16  C   UNL     1      -3.856  15.598  22.913  0.00  0.00    +0.000 A 
ATOM     17  C   UNL     1      -4.245  14.936  24.082  0.00  0.00    +0.000 A 
ATOM     18  C   UNL     1      -4.407  13.553  24.098  0.00  0.00    +0.000 A 
ATOM     19  C   UNL     1      -4.189  12.820  22.932  0.00  0.00    +0.000 A 
ENDBRANCH   6  14
BRANCH   1  23
ATOM     20  C   UNL     1       3.420  13.758  18.192  0.00  0.00    +0.000 C 
ATOM     21  C   UNL     1       2.692  14.920  18.794  0.00  0.00    +0.000 C 
ATOM     22  O   UNL     1       3.080  16.045  18.452  0.00  0.00    +0.000 OA
ATOM     23  N   UNL     1       1.630  14.692  19.690  0.00  0.00    +0.000 N 
BRANCH  23  24
ATOM     24  C   UNL     1       0.655  15.823  19.818  0.00  0.00    +0.000 A 
ATOM     25  C   UNL     1      -0.421  16.013  18.912  0.00  0.00    +0.000 A 
ATOM     26  C   UNL     1      -1.264  17.139  18.954  0.00  0.00    +0.000 A 
ATOM     27  C   UNL     1      -1.081  18.104  19.930  0.00  0.00    +0.000 A 
ATOM     28  C   UNL     1      -0.091  17.907  20.887  0.00  0.00    +0.000 A 
ATOM     29  C   UNL     1       0.756  16.780  20.838  0.00  0.00    +0.000 A 
ENDBRANCH  23  24
ENDBRANCH   1  23
TORSDOF 3
ENDMDL
