MODEL 1
REMARK VINA RESULT:      -6.4      0.000      0.000
REMARK  Name = 
REMARK  4 active torsions:
REMARK  status: ('A' for Active; 'I' for Inactive)
REMARK    1  A    between atoms: C_2  and  C_3
REMARK    2  A    between atoms: C_6  and  C_7
REMARK    3  A    between atoms: N_9  and  C_10
REMARK    4  A    between atoms: C_10  and  C_11
REMARK                            x       y       z     vdW  Elec       q    Type
REMARK                         _______ _______ _______ _____ _____    ______ ____
ROOT
ATOM      1  C   UNL     1       0.465  12.205  20.469  0.00  0.00    +0.000 C 
ATOM      2  O   UNL     1       1.435  12.014  21.208  0.00  0.00    +0.000 OA
ATOM      3  N   UNL     1      -0.300  11.129  19.979  0.00  0.00    +0.000 N 
ATOM      4  C   UNL     1      -1.566  11.350  19.474  0.00  0.00    +0.000 A 
ATOM      5  N   UNL     1      -2.564  11.949  20.067  0.00  0.00    +0.000 NA
ATOM      6  C   UNL     1      -3.666  11.953  19.214  0.00  0.00    +0.000 A 
ATOM      7  C   UNL     1      -4.972  12.404  19.493  0.00  0.00    +0.000 A 
ATOM      8  F   UNL     1      -5.313  12.793  20.730  0.00  0.00    +0.000 F 
ATOM      9  C   UNL     1      -5.939  12.451  18.486  0.00  0.00    +0.000 A 
ATOM     10  C   UNL     1      -5.619  12.067  17.187  0.00  0.00    +0.000 A 
ATOM     11  C   UNL     1      -4.351  11.563  16.887  0.00  0.00    +0.000 A 
ATOM     12  C   UNL     1      -3.408  11.475  17.924  0.00  0.00    +0.000 A 
ATOM     13  S   UNL     1      -1.840  10.770  17.890  0.00  0.00    +0.000 S 
ENDROOT
BRANCH   1  17
ATOM     14  C   UNL     1      -0.271  16.252  19.041  0.00  0.00    +0.000 A 
ATOM     15  C   UNL     1      -0.645  15.898  20.337  0.00  0.00    +0.000 A 
ATOM     16  C   UNL     1      -0.419  14.599  20.816  0.00  0.00    +0.000 A 
ATOM     17  C   UNL     1       0.244  13.640  20.042  0.00  0.00    +0.000 A 
ATOM     18  C   UNL     1       0.607  14.008  18.732  0.00  0.00    +0.000 A 
ATOM     19  C   UNL     1       0.348  15.297  18.233  0.00  0.00    +0.000 A 
BRANCH  14  21
ATOM     20  N   UNL     1      -0.782  18.623  18.119  0.00  0.00    +0.000 NA
ATOM     21  C   UNL     1      -0.560  17.565  18.541  0.00  0.00    +0.000 C 
ENDBRANCH  14  21
ENDBRANCH   1  17
BRANCH   3  22
ATOM     22  C   UNL     1       0.017   9.766  20.458  0.00  0.00    +0.000 C 
BRANCH  22  23
ATOM     23  C   UNL     1       1.094   9.097  19.634  0.00  0.00    +0.000 A 
ATOM     24  C   UNL     1       1.720   7.928  20.075  0.00  0.00    +0.000 A 
ATOM     25  C   UNL     1       2.574   7.235  19.223  0.00  0.00    +0.000 A 
ATOM     26  C   UNL     1       2.803   7.754  17.960  0.00  0.00    +0.000 A 
ATOM     27  N   UNL     1       2.280   8.918  17.523  0.00  0.00    +0.000 NA
ATOM     28  C   UNL     1       1.435   9.558  18.366  0.00  0.00    +0.000 A 
ENDBRANCH  22  23
ENDBRANCH   3  22
TORSDOF 4
ENDMDL
MODEL 2
REMARK VINA RESULT:      -6.4      3.304      7.535
REMARK  Name = 
REMARK  4 active torsions:
REMARK  status: ('A' for Active; 'I' for Inactive)
REMARK    1  A    between atoms: C_2  and  C_3
REMARK    2  A    between atoms: C_6  and  C_7
REMARK    3  A    between atoms: N_9  and  C_10
REMARK    4  A    between atoms: C_10  and  C_11
REMARK                            x       y       z     vdW  Elec       q    Type
REMARK                         _______ _______ _______ _____ _____    ______ ____
ROOT
ATOM      1  C   UNL     1      -0.519  11.106  22.137  0.00  0.00    +0.000 C 
ATOM      2  O   UNL     1      -1.190  10.534  23.000  0.00  0.00    +0.000 OA
ATOM      3  N   UNL     1      -0.608  12.499  21.952  0.00  0.00    +0.000 N 
ATOM      4  C   UNL     1       0.382  13.174  21.266  0.00  0.00    +0.000 A 
ATOM      5  N   UNL     1       1.665  13.166  21.511  0.00  0.00    +0.000 NA
ATOM      6  C   UNL     1       2.312  13.987  20.590  0.00  0.00    +0.000 A 
ATOM      7  C   UNL     1       3.677  14.341  20.558  0.00  0.00    +0.000 A 
ATOM      8  F   UNL     1       4.502  13.977  21.549  0.00  0.00    +0.000 F 
ATOM      9  C   UNL     1       4.194  15.081  19.492  0.00  0.00    +0.000 A 
ATOM     10  C   UNL     1       3.371  15.465  18.438  0.00  0.00    +0.000 A 
ATOM     11  C   UNL     1       2.003  15.179  18.465  0.00  0.00    +0.000 A 
ATOM     12  C   UNL     1       1.491  14.479  19.569  0.00  0.00    +0.000 A 
ATOM     13  S   UNL     1      -0.148  14.119  19.945  0.00  0.00    +0.000 S 
ENDROOT
BRANCH   1  17
ATOM     14  C   UNL     1       1.710   8.316  19.646  0.00  0.00    +0.000 A 
ATOM     15  C   UNL     1       1.068   9.407  19.058  0.00  0.00    +0.000 A 
ATOM     16  C   UNL     1       0.343  10.316  19.842  0.00  0.00    +0.000 A 
ATOM     17  C   UNL     1       0.293  10.202  21.236  0.00  0.00    +0.000 A 
ATOM     18  C   UNL     1       0.937   9.091  21.815  0.00  0.00    +0.000 A 
ATOM     19  C   UNL     1       1.633   8.154  21.030  0.00  0.00    +0.000 A 
BRANCH  14  21
ATOM     20  N   UNL     1       2.975   6.590  18.179  0.00  0.00    +0.000 NA
ATOM     21  C   UNL     1       2.399   7.361  18.828  0.00  0.00    +0.000 C 
ENDBRANCH  14  21
ENDBRANCH   1  17
BRANCH   3  22
ATOM     22  C   UNL     1      -1.445  13.281  22.889  0.00  0.00    +0.000 C 
BRANCH  22  23
ATOM     23  C   UNL     1      -2.919  13.190  22.564  0.00  0.00    +0.000 A 
ATOM     24  C   UNL     1      -3.381  13.345  21.254  0.00  0.00    +0.000 A 
ATOM     25  C   UNL     1      -4.713  13.080  20.953  0.00  0.00    +0.000 A 
ATOM     26  C   UNL     1      -5.555  12.697  21.983  0.00  0.00    +0.000 A 
ATOM     27  N   UNL     1      -5.167  12.610  23.273  0.00  0.00    +0.000 NA
ATOM     28  C   UNL     1      -3.861  12.852  23.532  0.00  0.00    +0.000 A 
ENDBRANCH  22  23
ENDBRANCH   3  22
TORSDOF 4
ENDMDL
MODEL 3
REMARK VINA RESULT:      -6.4      3.406      7.429
REMARK  Name = 
REMARK  4 active torsions:
REMARK  status: ('A' for Active; 'I' for Inactive)
REMARK    1  A    between atoms: C_2  and  C_3
REMARK    2  A    between atoms: C_6  and  C_7
REMARK    3  A    between atoms: N_9  and  C_10
REMARK    4  A    between atoms: C_10  and  C_11
REMARK                            x       y       z     vdW  Elec       q    Type
REMARK                         _______ _______ _______ _____ _____    ______ ____
ROOT
ATOM      1  C   UNL     1      -0.728  11.125  22.496  0.00  0.00    +0.000 C 
ATOM      2  O   UNL     1      -1.275  10.482  23.396  0.00  0.00    +0.000 OA
ATOM      3  N   UNL     1      -0.946  12.510  22.356  0.00  0.00    +0.000 N 
ATOM      4  C   UNL     1      -0.075  13.277  21.608  0.00  0.00    +0.000 A 
ATOM      5  N   UNL     1       1.221  13.371  21.746  0.00  0.00    +0.000 NA
ATOM      6  C   UNL     1       1.718  14.260  20.796  0.00  0.00    +0.000 A 
ATOM      7  C   UNL     1       3.042  14.727  20.659  0.00  0.00    +0.000 A 
ATOM      8  F   UNL     1       3.976  14.414  21.569  0.00  0.00    +0.000 F 
ATOM      9  C   UNL     1       3.405  15.528  19.574  0.00  0.00    +0.000 A 
ATOM     10  C   UNL     1       2.466  15.864  18.603  0.00  0.00    +0.000 A 
ATOM     11  C   UNL     1       1.134  15.465  18.736  0.00  0.00    +0.000 A 
ATOM     12  C   UNL     1       0.776  14.703  19.860  0.00  0.00    +0.000 A 
ATOM     13  S   UNL     1      -0.791  14.201  20.361  0.00  0.00    +0.000 S 
ENDROOT
BRANCH   1  17
ATOM     14  C   UNL     1       1.499   8.579  19.755  0.00  0.00    +0.000 A 
ATOM     15  C   UNL     1       0.721   9.622  19.251  0.00  0.00    +0.000 A 
ATOM     16  C   UNL     1      -0.006  10.452  20.117  0.00  0.00    +0.000 A 
ATOM     17  C   UNL     1       0.075  10.309  21.507  0.00  0.00    +0.000 A 
ATOM     18  C   UNL     1       0.857   9.247  22.001  0.00  0.00    +0.000 A 
ATOM     19  C   UNL     1       1.557   8.387  21.136  0.00  0.00    +0.000 A 
BRANCH  14  21
ATOM     20  N   UNL     1       2.742   6.971  18.141  0.00  0.00    +0.000 NA
ATOM     21  C   UNL     1       2.192   7.700  18.858  0.00  0.00    +0.000 C 
ENDBRANCH  14  21
ENDBRANCH   1  17
BRANCH   3  22
ATOM     22  C   UNL     1      -1.760  13.201  23.379  0.00  0.00    +0.000 C 
BRANCH  22  23
ATOM     23  C   UNL     1      -3.234  12.889  23.255  0.00  0.00    +0.000 A 
ATOM     24  C   UNL     1      -4.056  12.821  24.383  0.00  0.00    +0.000 A 
ATOM     25  C   UNL     1      -5.435  12.713  24.231  0.00  0.00    +0.000 A 
ATOM     26  C   UNL     1      -5.950  12.640  22.948  0.00  0.00    +0.000 A 
ATOM     27  N   UNL     1      -5.186  12.624  21.836  0.00  0.00    +0.000 NA
ATOM     28  C   UNL     1      -3.850  12.755  22.014  0.00  0.00    +0.000 A 
ENDBRANCH  22  23
ENDBRANCH   3  22
TORSDOF 4
ENDMDL
MODEL 4
REMARK VINA RESULT:      -6.3      2.995      5.593
REMARK  Name = 
REMARK  4 active torsions:
REMARK  status: ('A' for Active; 'I' for Inactive)
REMARK    1  A    between atoms: C_2  and  C_3
REMARK    2  A    between atoms: C_6  and  C_7
REMARK    3  A    between atoms: N_9  and  C_10
REMARK    4  A    between atoms: C_10  and  C_11
REMARK                            x       y       z     vdW  Elec       q    Type
REMARK                         _______ _______ _______ _____ _____    ______ ____
ROOT
ATOM      1  C   UNL     1      -1.496  15.759  22.132  0.00  0.00    +0.000 C 
ATOM      2  O   UNL     1      -1.677  16.628  22.990  0.00  0.00    +0.000 OA
ATOM      3  N   UNL     1      -1.556  14.390  22.458  0.00  0.00    +0.000 N 
ATOM      4  C   UNL     1      -1.720  13.446  21.465  0.00  0.00    +0.000 A 
ATOM      5  N   UNL     1      -2.663  13.397  20.563  0.00  0.00    +0.000 NA
ATOM      6  C   UNL     1      -2.467  12.278  19.757  0.00  0.00    +0.000 A 
ATOM      7  C   UNL     1      -3.307  11.795  18.732  0.00  0.00    +0.000 A 
ATOM      8  F   UNL     1      -4.505  12.352  18.508  0.00  0.00    +0.000 F 
ATOM      9  C   UNL     1      -2.906  10.722  17.930  0.00  0.00    +0.000 A 
ATOM     10  C   UNL     1      -1.664  10.127  18.125  0.00  0.00    +0.000 A 
ATOM     11  C   UNL     1      -0.831  10.544  19.166  0.00  0.00    +0.000 A 
ATOM     12  C   UNL     1      -1.273  11.589  19.993  0.00  0.00    +0.000 A 
ATOM     13  S   UNL     1      -0.542  12.208  21.422  0.00  0.00    +0.000 S 
ENDROOT
BRANCH   1  17
ATOM     14  C   UNL     1      -0.407  17.438  18.265  0.00  0.00    +0.000 A 
ATOM     15  C   UNL     1       0.505  16.637  18.951  0.00  0.00    +0.000 A 
ATOM     16  C   UNL     1       0.175  16.088  20.199  0.00  0.00    +0.000 A 
ATOM     17  C   UNL     1      -1.093  16.267  20.765  0.00  0.00    +0.000 A 
ATOM     18  C   UNL     1      -2.000  17.086  20.066  0.00  0.00    +0.000 A 
ATOM     19  C   UNL     1      -1.661  17.671  18.832  0.00  0.00    +0.000 A 
BRANCH  14  21
ATOM     20  N   UNL     1       0.281  18.531  16.014  0.00  0.00    +0.000 NA
ATOM     21  C   UNL     1      -0.038  18.043  17.018  0.00  0.00    +0.000 C 
ENDBRANCH  14  21
ENDBRANCH   1  17
BRANCH   3  22
ATOM     22  C   UNL     1      -1.950  14.012  23.833  0.00  0.00    +0.000 C 
BRANCH  22  23
ATOM     23  C   UNL     1      -3.427  13.710  23.950  0.00  0.00    +0.000 A 
ATOM     24  C   UNL     1      -4.389  14.670  23.628  0.00  0.00    +0.000 A 
ATOM     25  C   UNL     1      -5.733  14.314  23.570  0.00  0.00    +0.000 A 
ATOM     26  C   UNL     1      -6.079  13.007  23.870  0.00  0.00    +0.000 A 
ATOM     27  N   UNL     1      -5.190  12.069  24.259  0.00  0.00    +0.000 NA
ATOM     28  C   UNL     1      -3.888  12.439  24.284  0.00  0.00    +0.000 A 
ENDBRANCH  22  23
ENDBRANCH   3  22
TORSDOF 4
ENDMDL
MODEL 5
REMARK VINA RESULT:      -6.2      0.555      1.061
REMARK  Name = 
REMARK  4 active torsions:
REMARK  status: ('A' for Active; 'I' for Inactive)
REMARK    1  A    between atoms: C_2  and  C_3
REMARK    2  A    between atoms: C_6  and  C_7
REMARK    3  A    between atoms: N_9  and  C_10
REMARK    4  A    between atoms: C_10  and  C_11
REMARK                            x       y       z     vdW  Elec       q    Type
REMARK                         _______ _______ _______ _____ _____    ______ ____
ROOT
ATOM      1  C   UNL     1       0.833  11.999  20.426  0.00  0.00    +0.000 C 
ATOM      2  O   UNL     1       1.779  11.824  21.199  0.00  0.00    +0.000 OA
ATOM      3  N   UNL     1       0.043  10.918  19.987  0.00  0.00    +0.000 N 
ATOM      4  C   UNL     1      -1.204  11.147  19.439  0.00  0.00    +0.000 A 
ATOM      5  N   UNL     1      -2.194  11.815  19.968  0.00  0.00    +0.000 NA
ATOM      6  C   UNL     1      -3.276  11.799  19.091  0.00  0.00    +0.000 A 
ATOM      7  C   UNL     1      -4.572  12.309  19.310  0.00  0.00    +0.000 A 
ATOM      8  F   UNL     1      -4.926  12.788  20.511  0.00  0.00    +0.000 F 
ATOM      9  C   UNL     1      -5.515  12.323  18.278  0.00  0.00    +0.000 A 
ATOM     10  C   UNL     1      -5.180  11.847  17.015  0.00  0.00    +0.000 A 
ATOM     11  C   UNL     1      -3.923  11.284  16.778  0.00  0.00    +0.000 A 
ATOM     12  C   UNL     1      -3.006  11.232  17.841  0.00  0.00    +0.000 A 
ATOM     13  S   UNL     1      -1.462  10.476  17.889  0.00  0.00    +0.000 S 
ENDROOT
BRANCH   1  17
ATOM     14  C   UNL     1       0.438  16.138  19.136  0.00  0.00    +0.000 A 
ATOM     15  C   UNL     1       1.112  15.224  18.326  0.00  0.00    +0.000 A 
ATOM     16  C   UNL     1       1.252  13.886  18.724  0.00  0.00    +0.000 A 
ATOM     17  C   UNL     1       0.669  13.409  19.904  0.00  0.00    +0.000 A 
ATOM     18  C   UNL     1       0.001  14.345  20.716  0.00  0.00    +0.000 A 
ATOM     19  C   UNL     1      -0.109  15.697  20.341  0.00  0.00    +0.000 A 
BRANCH  14  21
ATOM     20  N   UNL     1       0.294  18.627  18.414  0.00  0.00    +0.000 NA
ATOM     21  C   UNL     1       0.352  17.516  18.747  0.00  0.00    +0.000 C 
ENDBRANCH  14  21
ENDBRANCH   1  17
BRANCH   3  22
ATOM     22  C   UNL     1       0.303   9.579  20.559  0.00  0.00    +0.000 C 
BRANCH  22  23
ATOM     23  C   UNL     1       1.312   8.791  19.755  0.00  0.00    +0.000 A 
ATOM     24  C   UNL     1       1.798   7.562  20.209  0.00  0.00    +0.000 A 
ATOM     25  C   UNL     1       2.582   6.774  19.373  0.00  0.00    +0.000 A 
ATOM     26  C   UNL     1       2.887   7.257  18.112  0.00  0.00    +0.000 A 
ATOM     27  N   UNL     1       2.503   8.470  17.663  0.00  0.00    +0.000 NA
ATOM     28  C   UNL     1       1.721   9.205  18.490  0.00  0.00    +0.000 A 
ENDBRANCH  22  23
ENDBRANCH   3  22
TORSDOF 4
ENDMDL
MODEL 6
REMARK VINA RESULT:      -6.2      1.440      1.956
REMARK  Name = 
REMARK  4 active torsions:
REMARK  status: ('A' for Active; 'I' for Inactive)
REMARK    1  A    between atoms: C_2  and  C_3
REMARK    2  A    between atoms: C_6  and  C_7
REMARK    3  A    between atoms: N_9  and  C_10
REMARK    4  A    between atoms: C_10  and  C_11
REMARK                            x       y       z     vdW  Elec       q    Type
REMARK                         _______ _______ _______ _____ _____    ______ ____
ROOT
ATOM      1  C   UNL     1       0.947  11.301  20.579  0.00  0.00    +0.000 C 
ATOM      2  O   UNL     1       1.635  11.195  21.599  0.00  0.00    +0.000 OA
ATOM      3  N   UNL     1       0.255  10.195  20.050  0.00  0.00    +0.000 N 
ATOM      4  C   UNL     1      -0.781  10.386  19.157  0.00  0.00    +0.000 A 
ATOM      5  N   UNL     1      -1.843  11.128  19.319  0.00  0.00    +0.000 NA
ATOM      6  C   UNL     1      -2.642  11.036  18.181  0.00  0.00    +0.000 A 
ATOM      7  C   UNL     1      -3.922  11.593  17.978  0.00  0.00    +0.000 A 
ATOM      8  F   UNL     1      -4.568  12.209  18.978  0.00  0.00    +0.000 F 
ATOM      9  C   UNL     1      -4.543  11.510  16.729  0.00  0.00    +0.000 A 
ATOM     10  C   UNL     1      -3.898  10.889  15.664  0.00  0.00    +0.000 A 
ATOM     11  C   UNL     1      -2.655  10.279  15.844  0.00  0.00    +0.000 A 
ATOM     12  C   UNL     1      -2.069  10.327  17.120  0.00  0.00    +0.000 A 
ATOM     13  S   UNL     1      -0.637   9.551  17.672  0.00  0.00    +0.000 S 
ENDROOT
BRANCH   1  17
ATOM     14  C   UNL     1       1.157  15.276  18.814  0.00  0.00    +0.000 A 
ATOM     15  C   UNL     1       1.865  14.224  18.232  0.00  0.00    +0.000 A 
ATOM     16  C   UNL     1       1.812  12.936  18.787  0.00  0.00    +0.000 A 
ATOM     17  C   UNL     1       1.003  12.648  19.892  0.00  0.00    +0.000 A 
ATOM     18  C   UNL     1       0.302  13.722  20.474  0.00  0.00    +0.000 A 
ATOM     19  C   UNL     1       0.382  15.023  19.947  0.00  0.00    +0.000 A 
BRANCH  14  21
ATOM     20  N   UNL     1       1.340  17.666  17.819  0.00  0.00    +0.000 NA
ATOM     21  C   UNL     1       1.265  16.600  18.274  0.00  0.00    +0.000 C 
ENDBRANCH  14  21
ENDBRANCH   1  17
BRANCH   3  22
ATOM     22  C   UNL     1       0.281   8.923  20.805  0.00  0.00    +0.000 C 
BRANCH  22  23
ATOM     23  C   UNL     1       1.314   7.955  20.274  0.00  0.00    +0.000 A 
ATOM     24  C   UNL     1       1.458   6.678  20.824  0.00  0.00    +0.000 A 
ATOM     25  C   UNL     1       2.286   5.746  20.206  0.00  0.00    +0.000 A 
ATOM     26  C   UNL     1       2.975   6.133  19.069  0.00  0.00    +0.000 A 
ATOM     27  N   UNL     1       2.923   7.377  18.550  0.00  0.00    +0.000 NA
ATOM     28  C   UNL     1       2.092   8.256  19.159  0.00  0.00    +0.000 A 
ENDBRANCH  22  23
ENDBRANCH   3  22
TORSDOF 4
ENDMDL
MODEL 7
REMARK VINA RESULT:      -6.2      3.349      6.261
REMARK  Name = 
REMARK  4 active torsions:
REMARK  status: ('A' for Active; 'I' for Inactive)
REMARK    1  A    between atoms: C_2  and  C_3
REMARK    2  A    between atoms: C_6  and  C_7
REMARK    3  A    between atoms: N_9  and  C_10
REMARK    4  A    between atoms: C_10  and  C_11
REMARK                            x       y       z     vdW  Elec       q    Type
REMARK                         _______ _______ _______ _____ _____    ______ ____
ROOT
ATOM      1  C   UNL     1      -0.512  13.914  20.042  0.00  0.00    +0.000 C 
ATOM      2  O   UNL     1      -1.166  14.938  19.826  0.00  0.00    +0.000 OA
ATOM      3  N   UNL     1      -1.147  12.674  20.248  0.00  0.00    +0.000 N 
ATOM      4  C   UNL     1      -0.434  11.498  20.121  0.00  0.00    +0.000 A 
ATOM      5  N   UNL     1       0.271  11.104  19.094  0.00  0.00    +0.000 NA
ATOM      6  C   UNL     1       0.821   9.855  19.371  0.00  0.00    +0.000 A 
ATOM      7  C   UNL     1       1.562   9.026  18.503  0.00  0.00    +0.000 A 
ATOM      8  F   UNL     1       1.714   9.350  17.211  0.00  0.00    +0.000 F 
ATOM      9  C   UNL     1       2.151   7.849  18.973  0.00  0.00    +0.000 A 
ATOM     10  C   UNL     1       2.025   7.488  20.311  0.00  0.00    +0.000 A 
ATOM     11  C   UNL     1       1.253   8.256  21.185  0.00  0.00    +0.000 A 
ATOM     12  C   UNL     1       0.626   9.408  20.683  0.00  0.00    +0.000 A 
ATOM     13  S   UNL     1      -0.489  10.453  21.472  0.00  0.00    +0.000 S 
ENDROOT
BRANCH   1  17
ATOM     14  C   UNL     1       3.767  14.674  20.307  0.00  0.00    +0.000 A 
ATOM     15  C   UNL     1       3.026  14.485  21.474  0.00  0.00    +0.000 A 
ATOM     16  C   UNL     1       1.646  14.242  21.409  0.00  0.00    +0.000 A 
ATOM     17  C   UNL     1       0.981  14.113  20.185  0.00  0.00    +0.000 A 
ATOM     18  C   UNL     1       1.740  14.315  19.016  0.00  0.00    +0.000 A 
ATOM     19  C   UNL     1       3.117  14.599  19.074  0.00  0.00    +0.000 A 
BRANCH  14  21
ATOM     20  N   UNL     1       6.294  15.242  20.466  0.00  0.00    +0.000 NA
ATOM     21  C   UNL     1       5.166  14.980  20.385  0.00  0.00    +0.000 C 
ENDBRANCH  14  21
ENDBRANCH   1  17
BRANCH   3  22
ATOM     22  C   UNL     1      -2.617  12.603  20.093  0.00  0.00    +0.000 C 
BRANCH  22  23
ATOM     23  C   UNL     1      -3.342  12.641  21.419  0.00  0.00    +0.000 A 
ATOM     24  C   UNL     1      -2.653  12.865  22.614  0.00  0.00    +0.000 A 
ATOM     25  C   UNL     1      -3.360  13.075  23.794  0.00  0.00    +0.000 A 
ATOM     26  C   UNL     1      -4.742  13.020  23.749  0.00  0.00    +0.000 A 
ATOM     27  N   UNL     1      -5.443  12.730  22.633  0.00  0.00    +0.000 NA
ATOM     28  C   UNL     1      -4.730  12.554  21.495  0.00  0.00    +0.000 A 
ENDBRANCH  22  23
ENDBRANCH   3  22
TORSDOF 4
ENDMDL
MODEL 8
REMARK VINA RESULT:      -6.1      2.437      5.135
REMARK  Name = 
REMARK  4 active torsions:
REMARK  status: ('A' for Active; 'I' for Inactive)
REMARK    1  A    between atoms: C_2  and  C_3
REMARK    2  A    between atoms: C_6  and  C_7
REMARK    3  A    between atoms: N_9  and  C_10
REMARK    4  A    between atoms: C_10  and  C_11
REMARK                            x       y       z     vdW  Elec       q    Type
REMARK                         _______ _______ _______ _____ _____    ______ ____
ROOT
ATOM      1  C   UNL     1      -1.309  10.849  17.928  0.00  0.00    +0.000 C 
ATOM      2  O   UNL     1      -1.215   9.839  17.224  0.00  0.00    +0.000 OA
ATOM      3  N   UNL     1      -0.193  11.360  18.618  0.00  0.00    +0.000 N 
ATOM      4  C   UNL     1      -0.202  12.658  19.090  0.00  0.00    +0.000 A 
ATOM      5  N   UNL     1      -0.435  13.749  18.409  0.00  0.00    +0.000 NA
ATOM      6  C   UNL     1      -0.339  14.847  19.261  0.00  0.00    +0.000 A 
ATOM      7  C   UNL     1      -0.416  16.214  18.919  0.00  0.00    +0.000 A 
ATOM      8  F   UNL     1      -0.483  16.596  17.636  0.00  0.00    +0.000 F 
ATOM      9  C   UNL     1      -0.421  17.196  19.913  0.00  0.00    +0.000 A 
ATOM     10  C   UNL     1      -0.367  16.836  21.256  0.00  0.00    +0.000 A 
ATOM     11  C   UNL     1      -0.234  15.496  21.628  0.00  0.00    +0.000 A 
ATOM     12  C   UNL     1      -0.178  14.526  20.613  0.00  0.00    +0.000 A 
ATOM     13  S   UNL     1       0.125  12.840  20.757  0.00  0.00    +0.000 S 
ENDROOT
BRANCH   1  17
ATOM     14  C   UNL     1      -5.413  12.258  18.275  0.00  0.00    +0.000 A 
ATOM     15  C   UNL     1      -4.572  12.302  19.387  0.00  0.00    +0.000 A 
ATOM     16  C   UNL     1      -3.247  11.850  19.296  0.00  0.00    +0.000 A 
ATOM     17  C   UNL     1      -2.706  11.408  18.084  0.00  0.00    +0.000 A 
ATOM     18  C   UNL     1      -3.569  11.361  16.973  0.00  0.00    +0.000 A 
ATOM     19  C   UNL     1      -4.910  11.775  17.066  0.00  0.00    +0.000 A 
BRANCH  14  21
ATOM     20  N   UNL     1      -7.898  12.976  18.490  0.00  0.00    +0.000 NA
ATOM     21  C   UNL     1      -6.783  12.667  18.393  0.00  0.00    +0.000 C 
ENDBRANCH  14  21
ENDBRANCH   1  17
BRANCH   3  22
ATOM     22  C   UNL     1       1.124  10.724  18.396  0.00  0.00    +0.000 C 
BRANCH  22  23
ATOM     23  C   UNL     1       1.268   9.415  19.139  0.00  0.00    +0.000 A 
ATOM     24  C   UNL     1       2.016   8.361  18.608  0.00  0.00    +0.000 A 
ATOM     25  C   UNL     1       2.283   7.239  19.386  0.00  0.00    +0.000 A 
ATOM     26  C   UNL     1       1.763   7.190  20.668  0.00  0.00    +0.000 A 
ATOM     27  N   UNL     1       0.973   8.151  21.191  0.00  0.00    +0.000 NA
ATOM     28  C   UNL     1       0.750   9.241  20.419  0.00  0.00    +0.000 A 
ENDBRANCH  22  23
ENDBRANCH   3  22
TORSDOF 4
ENDMDL
MODEL 9
REMARK VINA RESULT:      -6.0      3.567      6.906
REMARK  Name = 
REMARK  4 active torsions:
REMARK  status: ('A' for Active; 'I' for Inactive)
REMARK    1  A    between atoms: C_2  and  C_3
REMARK    2  A    between atoms: C_6  and  C_7
REMARK    3  A    between atoms: N_9  and  C_10
REMARK    4  A    between atoms: C_10  and  C_11
REMARK                            x       y       z     vdW  Elec       q    Type
REMARK                         _______ _______ _______ _____ _____    ______ ____
ROOT
ATOM      1  C   UNL     1      -1.774  15.121  23.120  0.00  0.00    +0.000 C 
ATOM      2  O   UNL     1      -1.760  16.215  23.693  0.00  0.00    +0.000 OA
ATOM      3  N   UNL     1      -0.661  14.672  22.383  0.00  0.00    +0.000 N 
ATOM      4  C   UNL     1      -0.533  13.335  22.063  0.00  0.00    +0.000 A 
ATOM      5  N   UNL     1      -0.557  12.317  22.882  0.00  0.00    +0.000 NA
ATOM      6  C   UNL     1      -0.384  11.142  22.153  0.00  0.00    +0.000 A 
ATOM      7  C   UNL     1      -0.244   9.830  22.652  0.00  0.00    +0.000 A 
ATOM      8  F   UNL     1      -0.149   9.604  23.970  0.00  0.00    +0.000 F 
ATOM      9  C   UNL     1      -0.200   8.739  21.780  0.00  0.00    +0.000 A 
ATOM     10  C   UNL     1      -0.308   8.933  20.407  0.00  0.00    +0.000 A 
ATOM     11  C   UNL     1      -0.392  10.222  19.875  0.00  0.00    +0.000 A 
ATOM     12  C   UNL     1      -0.383  11.310  20.764  0.00  0.00    +0.000 A 
ATOM     13  S   UNL     1      -0.326  12.990  20.402  0.00  0.00    +0.000 S 
ENDROOT
BRANCH   1  17
ATOM     14  C   UNL     1      -5.599  13.072  23.474  0.00  0.00    +0.000 A 
ATOM     15  C   UNL     1      -5.308  13.796  22.317  0.00  0.00    +0.000 A 
ATOM     16  C   UNL     1      -4.082  14.465  22.185  0.00  0.00    +0.000 A 
ATOM     17  C   UNL     1      -3.090  14.377  23.168  0.00  0.00    +0.000 A 
ATOM     18  C   UNL     1      -3.401  13.651  24.333  0.00  0.00    +0.000 A 
ATOM     19  C   UNL     1      -4.644  13.010  24.490  0.00  0.00    +0.000 A 
BRANCH  14  21
ATOM     20  N   UNL     1      -7.903  11.910  23.748  0.00  0.00    +0.000 NA
ATOM     21  C   UNL     1      -6.878  12.441  23.625  0.00  0.00    +0.000 C 
ENDBRANCH  14  21
ENDBRANCH   1  17
BRANCH   3  22
ATOM     22  C   UNL     1       0.571  15.492  22.400  0.00  0.00    +0.000 C 
BRANCH  22  23
ATOM     23  C   UNL     1       0.739  16.311  21.140  0.00  0.00    +0.000 A 
ATOM     24  C   UNL     1       1.845  16.134  20.305  0.00  0.00    +0.000 A 
ATOM     25  C   UNL     1       1.887  16.766  19.066  0.00  0.00    +0.000 A 
ATOM     26  C   UNL     1       0.831  17.589  18.713  0.00  0.00    +0.000 A 
ATOM     27  N   UNL     1      -0.218  17.847  19.521  0.00  0.00    +0.000 NA
ATOM     28  C   UNL     1      -0.243  17.200  20.710  0.00  0.00    +0.000 A 
ENDBRANCH  22  23
ENDBRANCH   3  22
TORSDOF 4
ENDMDL
