MODEL 1
REMARK VINA RESULT:      -7.8      0.000      0.000
REMARK  Name = 
REMARK  4 active torsions:
REMARK  status: ('A' for Active; 'I' for Inactive)
REMARK    1  A    between atoms: C_1  and  C_2
REMARK    2  A    between atoms: C_2  and  C_3
REMARK    3  A    between atoms: C_4  and  C_5
REMARK    4  A    between atoms: C_5  and  C_6
REMARK                            x       y       z     vdW  Elec       q    Type
REMARK                         _______ _______ _______ _____ _____    ______ ____
ROOT
ATOM      1  C   UNL     1       6.148   5.583  16.490  0.00  0.00    +0.000 C 
ATOM      2  O   UNL     1       6.422   6.932  16.914  0.00  0.00    +0.000 OA
ATOM      3  C   UNL     1       5.136   6.714  16.322  0.00  0.00    +0.000 C 
ATOM      4  C   UNL     1       3.973   6.719  17.245  0.00  0.00    +0.000 C 
ATOM      5  O   UNL     1       3.372   7.745  17.525  0.00  0.00    +0.000 OA
ATOM      6  C   UNL     1       3.508   5.382  17.670  0.00  0.00    +0.000 A 
ATOM      7  C   UNL     1       2.149   5.123  17.840  0.00  0.00    +0.000 A 
ATOM      8  C   UNL     1       1.723   3.803  18.009  0.00  0.00    +0.000 A 
ATOM      9  C   UNL     1       2.651   2.754  18.043  0.00  0.00    +0.000 A 
ATOM     10  C   UNL     1       4.015   3.021  17.956  0.00  0.00    +0.000 A 
ATOM     11  C   UNL     1       4.432   4.340  17.773  0.00  0.00    +0.000 A 
ATOM     12  C   UNL     1       5.858   4.627  17.589  0.00  0.00    +0.000 C 
ATOM     13  O   UNL     1       6.731   4.052  18.222  0.00  0.00    +0.000 OA
ENDROOT
BRANCH   1  14
ATOM     14  C   UNL     1       6.925   5.090  15.300  0.00  0.00    +0.000 C 
BRANCH  14  18
ATOM     15  C   UNL     1       5.442   3.094  12.297  0.00  0.00    +0.000 C 
ATOM     16  C   UNL     1       6.336   4.043  13.046  0.00  0.00    +0.000 C 
ATOM     17  C   UNL     1       7.454   4.693  12.287  0.00  0.00    +0.000 C 
ATOM     18  C   UNL     1       6.109   4.254  14.355  0.00  0.00    +0.000 C 
ENDBRANCH  14  18
ENDBRANCH   1  14
TORSDOF 2
ENDMDL
MODEL 2
REMARK VINA RESULT:      -7.6      1.826      2.254
REMARK  Name = 
REMARK  4 active torsions:
REMARK  status: ('A' for Active; 'I' for Inactive)
REMARK    1  A    between atoms: C_1  and  C_2
REMARK    2  A    between atoms: C_2  and  C_3
REMARK    3  A    between atoms: C_4  and  C_5
REMARK    4  A    between atoms: C_5  and  C_6
REMARK                            x       y       z     vdW  Elec       q    Type
REMARK                         _______ _______ _______ _____ _____    ______ ____
ROOT
ATOM      1  C   UNL     1       4.577   5.006  17.552  0.00  0.00    +0.000 C 
ATOM      2  O   UNL     1       4.887   6.413  17.559  0.00  0.00    +0.000 OA
ATOM      3  C   UNL     1       3.495   6.081  17.626  0.00  0.00    +0.000 C 
ATOM      4  C   UNL     1       2.831   6.276  18.940  0.00  0.00    +0.000 C 
ATOM      5  O   UNL     1       2.317   7.339  19.254  0.00  0.00    +0.000 OA
ATOM      6  C   UNL     1       2.704   5.055  19.763  0.00  0.00    +0.000 A 
ATOM      7  C   UNL     1       1.569   4.839  20.543  0.00  0.00    +0.000 A 
ATOM      8  C   UNL     1       1.369   3.582  21.120  0.00  0.00    +0.000 A 
ATOM      9  C   UNL     1       2.312   2.560  20.947  0.00  0.00    +0.000 A 
ATOM     10  C   UNL     1       3.484   2.801  20.236  0.00  0.00    +0.000 A 
ATOM     11  C   UNL     1       3.672   4.054  19.651  0.00  0.00    +0.000 A 
ATOM     12  C   UNL     1       4.858   4.296  18.825  0.00  0.00    +0.000 C 
ATOM     13  O   UNL     1       5.962   3.860  19.117  0.00  0.00    +0.000 OA
ENDROOT
BRANCH   1  14
ATOM     14  C   UNL     1       4.823   4.279  16.257  0.00  0.00    +0.000 C 
BRANCH  14  18
ATOM     15  C   UNL     1       7.624   5.149  13.690  0.00  0.00    +0.000 C 
ATOM     16  C   UNL     1       6.382   4.513  14.248  0.00  0.00    +0.000 C 
ATOM     17  C   UNL     1       5.560   3.660  13.327  0.00  0.00    +0.000 C 
ATOM     18  C   UNL     1       6.053   4.746  15.532  0.00  0.00    +0.000 C 
ENDBRANCH  14  18
ENDBRANCH   1  14
TORSDOF 2
ENDMDL
MODEL 3
REMARK VINA RESULT:      -7.5      3.450      5.757
REMARK  Name = 
REMARK  4 active torsions:
REMARK  status: ('A' for Active; 'I' for Inactive)
REMARK    1  A    between atoms: C_1  and  C_2
REMARK    2  A    between atoms: C_2  and  C_3
REMARK    3  A    between atoms: C_4  and  C_5
REMARK    4  A    between atoms: C_5  and  C_6
REMARK                            x       y       z     vdW  Elec       q    Type
REMARK                         _______ _______ _______ _____ _____    ______ ____
ROOT
ATOM      1  C   UNL     1       3.068   5.814  17.995  0.00  0.00    +0.000 C 
ATOM      2  O   UNL     1       4.197   5.521  17.149  0.00  0.00    +0.000 OA
ATOM      3  C   UNL     1       4.444   5.466  18.559  0.00  0.00    +0.000 C 
ATOM      4  C   UNL     1       4.606   4.113  19.150  0.00  0.00    +0.000 C 
ATOM      5  O   UNL     1       5.692   3.558  19.209  0.00  0.00    +0.000 OA
ATOM      6  C   UNL     1       3.394   3.564  19.792  0.00  0.00    +0.000 A 
ATOM      7  C   UNL     1       3.490   2.799  20.954  0.00  0.00    +0.000 A 
ATOM      8  C   UNL     1       2.327   2.494  21.667  0.00  0.00    +0.000 A 
ATOM      9  C   UNL     1       1.076   2.922  21.205  0.00  0.00    +0.000 A 
ATOM     10  C   UNL     1       0.972   3.615  20.002  0.00  0.00    +0.000 A 
ATOM     11  C   UNL     1       2.138   3.928  19.302  0.00  0.00    +0.000 A 
ATOM     12  C   UNL     1       2.053   4.734  18.081  0.00  0.00    +0.000 C 
ATOM     13  O   UNL     1       1.160   4.590  17.259  0.00  0.00    +0.000 OA
ENDROOT
BRANCH   1  14
ATOM     14  C   UNL     1       2.597   7.243  18.001  0.00  0.00    +0.000 C 
BRANCH  14  18
ATOM     15  C   UNL     1       0.874   9.042  21.000  0.00  0.00    +0.000 C 
ATOM     16  C   UNL     1       1.383   8.819  19.603  0.00  0.00    +0.000 C 
ATOM     17  C   UNL     1       1.072   9.863  18.572  0.00  0.00    +0.000 C 
ATOM     18  C   UNL     1       2.074   7.696  19.335  0.00  0.00    +0.000 C 
ENDBRANCH  14  18
ENDBRANCH   1  14
TORSDOF 2
ENDMDL
MODEL 4
REMARK VINA RESULT:      -7.5      2.174      3.979
REMARK  Name = 
REMARK  4 active torsions:
REMARK  status: ('A' for Active; 'I' for Inactive)
REMARK    1  A    between atoms: C_1  and  C_2
REMARK    2  A    between atoms: C_2  and  C_3
REMARK    3  A    between atoms: C_4  and  C_5
REMARK    4  A    between atoms: C_5  and  C_6
REMARK                            x       y       z     vdW  Elec       q    Type
REMARK                         _______ _______ _______ _____ _____    ______ ____
ROOT
ATOM      1  C   UNL     1       5.567   4.574  15.535  0.00  0.00    +0.000 C 
ATOM      2  O   UNL     1       4.380   3.878  15.962  0.00  0.00    +0.000 OA
ATOM      3  C   UNL     1       5.573   3.589  16.701  0.00  0.00    +0.000 C 
ATOM      4  C   UNL     1       5.660   4.164  18.068  0.00  0.00    +0.000 C 
ATOM      5  O   UNL     1       5.230   3.575  19.047  0.00  0.00    +0.000 OA
ATOM      6  C   UNL     1       6.436   5.418  18.168  0.00  0.00    +0.000 A 
ATOM      7  C   UNL     1       7.236   5.671  19.281  0.00  0.00    +0.000 A 
ATOM      8  C   UNL     1       8.135   6.741  19.245  0.00  0.00    +0.000 A 
ATOM      9  C   UNL     1       8.209   7.571  18.119  0.00  0.00    +0.000 A 
ATOM     10  C   UNL     1       7.353   7.368  17.041  0.00  0.00    +0.000 A 
ATOM     11  C   UNL     1       6.468   6.290  17.077  0.00  0.00    +0.000 A 
ATOM     12  C   UNL     1       5.623   6.009  15.913  0.00  0.00    +0.000 C 
ATOM     13  O   UNL     1       5.094   6.893  15.255  0.00  0.00    +0.000 OA
ENDROOT
BRANCH   1  14
ATOM     14  C   UNL     1       6.136   4.161  14.204  0.00  0.00    +0.000 C 
BRANCH  14  18
ATOM     15  C   UNL     1       3.957   3.210  11.115  0.00  0.00    +0.000 C 
ATOM     16  C   UNL     1       5.145   3.247  12.035  0.00  0.00    +0.000 C 
ATOM     17  C   UNL     1       6.317   2.375  11.696  0.00  0.00    +0.000 C 
ATOM     18  C   UNL     1       5.101   4.039  13.122  0.00  0.00    +0.000 C 
ENDBRANCH  14  18
ENDBRANCH   1  14
TORSDOF 2
ENDMDL
MODEL 5
REMARK VINA RESULT:      -7.3      1.875      5.498
REMARK  Name = 
REMARK  4 active torsions:
REMARK  status: ('A' for Active; 'I' for Inactive)
REMARK    1  A    between atoms: C_1  and  C_2
REMARK    2  A    between atoms: C_2  and  C_3
REMARK    3  A    between atoms: C_4  and  C_5
REMARK    4  A    between atoms: C_5  and  C_6
REMARK                            x       y       z     vdW  Elec       q    Type
REMARK                         _______ _______ _______ _____ _____    ______ ____
ROOT
ATOM      1  C   UNL     1       4.857   4.258  18.835  0.00  0.00    +0.000 C 
ATOM      2  O   UNL     1       5.028   5.372  19.733  0.00  0.00    +0.000 OA
ATOM      3  C   UNL     1       6.221   4.889  19.104  0.00  0.00    +0.000 C 
ATOM      4  C   UNL     1       6.792   5.739  18.029  0.00  0.00    +0.000 C 
ATOM      5  O   UNL     1       7.597   6.628  18.265  0.00  0.00    +0.000 OA
ATOM      6  C   UNL     1       6.436   5.330  16.654  0.00  0.00    +0.000 A 
ATOM      7  C   UNL     1       7.363   5.440  15.618  0.00  0.00    +0.000 A 
ATOM      8  C   UNL     1       7.086   4.832  14.390  0.00  0.00    +0.000 A 
ATOM      9  C   UNL     1       5.879   4.149  14.189  0.00  0.00    +0.000 A 
ATOM     10  C   UNL     1       4.920   4.110  15.197  0.00  0.00    +0.000 A 
ATOM     11  C   UNL     1       5.208   4.707  16.425  0.00  0.00    +0.000 A 
ATOM     12  C   UNL     1       4.245   4.597  17.525  0.00  0.00    +0.000 C 
ATOM     13  O   UNL     1       3.038   4.679  17.353  0.00  0.00    +0.000 OA
ENDROOT
BRANCH   1  14
ATOM     14  C   UNL     1       4.503   2.941  19.471  0.00  0.00    +0.000 C 
BRANCH  14  18
ATOM     15  C   UNL     1       1.226   2.778  21.577  0.00  0.00    +0.000 C 
ATOM     16  C   UNL     1       2.133   2.664  20.384  0.00  0.00    +0.000 C 
ATOM     17  C   UNL     1       1.554   2.107  19.117  0.00  0.00    +0.000 C 
ATOM     18  C   UNL     1       3.418   3.047  20.505  0.00  0.00    +0.000 C 
ENDBRANCH  14  18
ENDBRANCH   1  14
TORSDOF 2
ENDMDL
MODEL 6
REMARK VINA RESULT:      -7.2      2.480      4.208
REMARK  Name = 
REMARK  4 active torsions:
REMARK  status: ('A' for Active; 'I' for Inactive)
REMARK    1  A    between atoms: C_1  and  C_2
REMARK    2  A    between atoms: C_2  and  C_3
REMARK    3  A    between atoms: C_4  and  C_5
REMARK    4  A    between atoms: C_5  and  C_6
REMARK                            x       y       z     vdW  Elec       q    Type
REMARK                         _______ _______ _______ _____ _____    ______ ____
ROOT
ATOM      1  C   UNL     1       4.887   4.690  17.043  0.00  0.00    +0.000 C 
ATOM      2  O   UNL     1       4.522   3.969  15.850  0.00  0.00    +0.000 OA
ATOM      3  C   UNL     1       4.268   3.295  17.089  0.00  0.00    +0.000 C 
ATOM      4  C   UNL     1       2.848   3.203  17.513  0.00  0.00    +0.000 C 
ATOM      5  O   UNL     1       2.128   2.277  17.171  0.00  0.00    +0.000 OA
ATOM      6  C   UNL     1       2.423   4.222  18.495  0.00  0.00    +0.000 A 
ATOM      7  C   UNL     1       1.524   3.899  19.511  0.00  0.00    +0.000 A 
ATOM      8  C   UNL     1       1.324   4.805  20.556  0.00  0.00    +0.000 A 
ATOM      9  C   UNL     1       1.989   6.037  20.568  0.00  0.00    +0.000 A 
ATOM     10  C   UNL     1       2.824   6.394  19.512  0.00  0.00    +0.000 A 
ATOM     11  C   UNL     1       3.031   5.480  18.479  0.00  0.00    +0.000 A 
ATOM     12  C   UNL     1       3.975   5.804  17.406  0.00  0.00    +0.000 C 
ATOM     13  O   UNL     1       4.065   6.924  16.926  0.00  0.00    +0.000 OA
ENDROOT
BRANCH   1  14
ATOM     14  C   UNL     1       6.362   4.863  17.288  0.00  0.00    +0.000 C 
BRANCH  14  18
ATOM     15  C   UNL     1       8.033   8.347  17.802  0.00  0.00    +0.000 C 
ATOM     16  C   UNL     1       7.631   6.928  18.093  0.00  0.00    +0.000 C 
ATOM     17  C   UNL     1       8.184   6.286  19.331  0.00  0.00    +0.000 C 
ATOM     18  C   UNL     1       6.815   6.294  17.231  0.00  0.00    +0.000 C 
ENDBRANCH  14  18
ENDBRANCH   1  14
TORSDOF 2
ENDMDL
MODEL 7
REMARK VINA RESULT:      -7.2      1.871      2.209
REMARK  Name = 
REMARK  4 active torsions:
REMARK  status: ('A' for Active; 'I' for Inactive)
REMARK    1  A    between atoms: C_1  and  C_2
REMARK    2  A    between atoms: C_2  and  C_3
REMARK    3  A    between atoms: C_4  and  C_5
REMARK    4  A    between atoms: C_5  and  C_6
REMARK                            x       y       z     vdW  Elec       q    Type
REMARK                         _______ _______ _______ _____ _____    ______ ____
ROOT
ATOM      1  C   UNL     1       6.687   4.465  16.299  0.00  0.00    +0.000 C 
ATOM      2  O   UNL     1       7.907   4.176  17.009  0.00  0.00    +0.000 OA
ATOM      3  C   UNL     1       7.204   5.351  17.430  0.00  0.00    +0.000 C 
ATOM      4  C   UNL     1       6.491   5.265  18.730  0.00  0.00    +0.000 C 
ATOM      5  O   UNL     1       7.038   5.539  19.787  0.00  0.00    +0.000 OA
ATOM      6  C   UNL     1       5.045   4.977  18.631  0.00  0.00    +0.000 A 
ATOM      7  C   UNL     1       4.141   5.572  19.511  0.00  0.00    +0.000 A 
ATOM      8  C   UNL     1       2.772   5.471  19.250  0.00  0.00    +0.000 A 
ATOM      9  C   UNL     1       2.308   4.755  18.139  0.00  0.00    +0.000 A 
ATOM     10  C   UNL     1       3.207   4.093  17.307  0.00  0.00    +0.000 A 
ATOM     11  C   UNL     1       4.574   4.209  17.565  0.00  0.00    +0.000 A 
ATOM     12  C   UNL     1       5.537   3.593  16.647  0.00  0.00    +0.000 C 
ATOM     13  O   UNL     1       5.352   2.496  16.139  0.00  0.00    +0.000 OA
ENDROOT
BRANCH   1  14
ATOM     14  C   UNL     1       6.841   4.910  14.869  0.00  0.00    +0.000 C 
BRANCH  14  18
ATOM     15  C   UNL     1       4.803   3.275  11.976  0.00  0.00    +0.000 C 
ATOM     16  C   UNL     1       5.972   3.885  12.697  0.00  0.00    +0.000 C 
ATOM     17  C   UNL     1       7.288   3.931  11.979  0.00  0.00    +0.000 C 
ATOM     18  C   UNL     1       5.796   4.344  13.950  0.00  0.00    +0.000 C 
ENDBRANCH  14  18
ENDBRANCH   1  14
TORSDOF 2
ENDMDL
MODEL 8
REMARK VINA RESULT:      -7.2      2.838      4.536
REMARK  Name = 
REMARK  4 active torsions:
REMARK  status: ('A' for Active; 'I' for Inactive)
REMARK    1  A    between atoms: C_1  and  C_2
REMARK    2  A    between atoms: C_2  and  C_3
REMARK    3  A    between atoms: C_4  and  C_5
REMARK    4  A    between atoms: C_5  and  C_6
REMARK                            x       y       z     vdW  Elec       q    Type
REMARK                         _______ _______ _______ _____ _____    ______ ____
ROOT
ATOM      1  C   UNL     1       5.170   4.859  18.006  0.00  0.00    +0.000 C 
ATOM      2  O   UNL     1       6.360   4.084  18.249  0.00  0.00    +0.000 OA
ATOM      3  C   UNL     1       5.453   4.196  19.352  0.00  0.00    +0.000 C 
ATOM      4  C   UNL     1       4.662   2.983  19.684  0.00  0.00    +0.000 C 
ATOM      5  O   UNL     1       5.075   2.132  20.456  0.00  0.00    +0.000 OA
ATOM      6  C   UNL     1       3.290   2.965  19.135  0.00  0.00    +0.000 A 
ATOM      7  C   UNL     1       2.238   2.419  19.871  0.00  0.00    +0.000 A 
ATOM      8  C   UNL     1       0.926   2.625  19.437  0.00  0.00    +0.000 A 
ATOM      9  C   UNL     1       0.668   3.341  18.261  0.00  0.00    +0.000 A 
ATOM     10  C   UNL     1       1.721   3.815  17.484  0.00  0.00    +0.000 A 
ATOM     11  C   UNL     1       3.029   3.618  17.929  0.00  0.00    +0.000 A 
ATOM     12  C   UNL     1       4.144   4.188  17.169  0.00  0.00    +0.000 C 
ATOM     13  O   UNL     1       4.172   4.195  15.946  0.00  0.00    +0.000 OA
ENDROOT
BRANCH   1  14
ATOM     14  C   UNL     1       5.366   6.343  17.848  0.00  0.00    +0.000 C 
BRANCH  14  18
ATOM     15  C   UNL     1       1.906   8.131  17.671  0.00  0.00    +0.000 C 
ATOM     16  C   UNL     1       3.025   7.294  18.224  0.00  0.00    +0.000 C 
ATOM     17  C   UNL     1       2.874   6.761  19.618  0.00  0.00    +0.000 C 
ATOM     18  C   UNL     1       4.112   7.075  17.461  0.00  0.00    +0.000 C 
ENDBRANCH  14  18
ENDBRANCH   1  14
TORSDOF 2
ENDMDL
MODEL 9
REMARK VINA RESULT:      -7.2      2.237      4.380
REMARK  Name = 
REMARK  4 active torsions:
REMARK  status: ('A' for Active; 'I' for Inactive)
REMARK    1  A    between atoms: C_1  and  C_2
REMARK    2  A    between atoms: C_2  and  C_3
REMARK    3  A    between atoms: C_4  and  C_5
REMARK    4  A    between atoms: C_5  and  C_6
REMARK                            x       y       z     vdW  Elec       q    Type
REMARK                         _______ _______ _______ _____ _____    ______ ____
ROOT
ATOM      1  C   UNL     1       4.730   3.815  17.501  0.00  0.00    +0.000 C 
ATOM      2  O   UNL     1       5.928   3.974  16.717  0.00  0.00    +0.000 OA
ATOM      3  C   UNL     1       4.772   4.670  16.235  0.00  0.00    +0.000 C 
ATOM      4  C   UNL     1       4.764   6.143  16.418  0.00  0.00    +0.000 C 
ATOM      5  O   UNL     1       5.236   6.902  15.586  0.00  0.00    +0.000 OA
ATOM      6  C   UNL     1       4.010   6.621  17.596  0.00  0.00    +0.000 A 
ATOM      7  C   UNL     1       3.273   7.803  17.536  0.00  0.00    +0.000 A 
ATOM      8  C   UNL     1       2.388   8.107  18.574  0.00  0.00    +0.000 A 
ATOM      9  C   UNL     1       2.265   7.254  19.679  0.00  0.00    +0.000 A 
ATOM     10  C   UNL     1       3.062   6.116  19.778  0.00  0.00    +0.000 A 
ATOM     11  C   UNL     1       3.934   5.811  18.732  0.00  0.00    +0.000 A 
ATOM     12  C   UNL     1       4.713   4.571  18.779  0.00  0.00    +0.000 C 
ATOM     13  O   UNL     1       5.218   4.150  19.809  0.00  0.00    +0.000 OA
ENDROOT
BRANCH   1  14
ATOM     14  C   UNL     1       4.087   2.455  17.464  0.00  0.00    +0.000 C 
BRANCH  14  18
ATOM     15  C   UNL     1       0.740   2.521  19.461  0.00  0.00    +0.000 C 
ATOM     16  C   UNL     1       1.757   2.888  18.417  0.00  0.00    +0.000 C 
ATOM     17  C   UNL     1       1.358   3.890  17.375  0.00  0.00    +0.000 C 
ATOM     18  C   UNL     1       2.965   2.295  18.450  0.00  0.00    +0.000 C 
ENDBRANCH  14  18
ENDBRANCH   1  14
TORSDOF 2
ENDMDL
