MODEL 1
REMARK VINA RESULT:      -7.0      0.000      0.000
REMARK  Name = 
REMARK  9 active torsions:
REMARK  status: ('A' for Active; 'I' for Inactive)
REMARK    1  A    between atoms: C_1  and  O_2
REMARK    2  A    between atoms: O_2  and  C_3
REMARK    3  A    between atoms: N_9  and  C_10
REMARK    4  A    between atoms: C_10  and  C_11
REMARK    5  A    between atoms: C_11  and  N_12
REMARK    6  A    between atoms: N_12  and  C_13
REMARK    7  A    between atoms: N_12  and  C_14
REMARK    8  A    between atoms: C_15  and  C_17
REMARK    9  A    between atoms: C_18  and  C_19
REMARK                            x       y       z     vdW  Elec       q    Type
REMARK                         _______ _______ _______ _____ _____    ______ ____
ROOT
ATOM      1  C   UNL     1      -1.619  11.862  22.394  0.00  0.00    +0.000 A 
ATOM      2  C   UNL     1      -1.996  12.412  21.171  0.00  0.00    +0.000 A 
ATOM      3  C   UNL     1      -1.488  11.911  19.965  0.00  0.00    +0.000 A 
ATOM      4  C   UNL     1      -0.580  10.842  20.014  0.00  0.00    +0.000 A 
ATOM      5  S   UNL     1       0.202  10.009  18.732  0.00  0.00    +0.000 S 
ATOM      6  C   UNL     1       1.033   9.005  19.847  0.00  0.00    +0.000 A 
ATOM      7  N   UNL     1       1.876   7.943  19.443  0.00  0.00    +0.000 N 
ATOM      8  C   UNL     1       2.521   8.018  18.192  0.00  0.00    +0.000 C 
ATOM      9  O   UNL     1       2.375   8.894  17.343  0.00  0.00    +0.000 OA
ATOM     10  N   UNL     1       0.736   9.249  21.106  0.00  0.00    +0.000 NA
ATOM     11  C   UNL     1      -0.180  10.280  21.222  0.00  0.00    +0.000 A 
ATOM     12  C   UNL     1      -0.720  10.788  22.423  0.00  0.00    +0.000 A 
ENDROOT
BRANCH   1  14
ATOM     13  C   UNL     1      -3.451  12.504  23.771  0.00  0.00    +0.000 C 
ATOM     14  O   UNL     1      -2.051  12.287  23.622  0.00  0.00    +0.000 OA
ENDBRANCH   1  14
BRANCH   8  15
ATOM     15  C   UNL     1       3.505   6.936  17.873  0.00  0.00    +0.000 C 
ATOM     16  C   UNL     1       4.468   7.158  16.966  0.00  0.00    +0.000 C 
BRANCH  16  17
ATOM     17  C   UNL     1       5.406   6.147  16.590  0.00  0.00    +0.000 A 
ATOM     18  C   UNL     1       5.616   5.505  15.377  0.00  0.00    +0.000 A 
ATOM     19  C   UNL     1       6.682   4.558  15.411  0.00  0.00    +0.000 A 
ATOM     20  C   UNL     1       7.269   4.494  16.652  0.00  0.00    +0.000 A 
ATOM     21  S   UNL     1       6.540   5.566  17.760  0.00  0.00    +0.000 S 
ENDBRANCH  16  17
ENDBRANCH   8  15
BRANCH   7  22
ATOM     22  C   UNL     1       2.256   6.910  20.448  0.00  0.00    +0.000 C 
BRANCH  22  23
ATOM     23  C   UNL     1       1.494   5.563  20.405  0.00  0.00    +0.000 C 
BRANCH  23  24
ATOM     24  N   UNL     1       2.231   4.392  20.941  0.00  0.00    +0.000 NA
ATOM     25  C   UNL     1       1.330   3.268  21.220  0.00  0.00    +0.000 C 
ATOM     26  C   UNL     1       3.209   3.970  19.923  0.00  0.00    +0.000 C 
ENDBRANCH  23  24
ENDBRANCH  22  23
ENDBRANCH   7  22
TORSDOF 6
ENDMDL
MODEL 2
REMARK VINA RESULT:      -6.6      2.589      9.207
REMARK  Name = 
REMARK  9 active torsions:
REMARK  status: ('A' for Active; 'I' for Inactive)
REMARK    1  A    between atoms: C_1  and  O_2
REMARK    2  A    between atoms: O_2  and  C_3
REMARK    3  A    between atoms: N_9  and  C_10
REMARK    4  A    between atoms: C_10  and  C_11
REMARK    5  A    between atoms: C_11  and  N_12
REMARK    6  A    between atoms: N_12  and  C_13
REMARK    7  A    between atoms: N_12  and  C_14
REMARK    8  A    between atoms: C_15  and  C_17
REMARK    9  A    between atoms: C_18  and  C_19
REMARK                            x       y       z     vdW  Elec       q    Type
REMARK                         _______ _______ _______ _____ _____    ______ ____
ROOT
ATOM      1  C   UNL     1       5.530   5.743  16.498  0.00  0.00    +0.000 A 
ATOM      2  C   UNL     1       5.446   4.783  17.503  0.00  0.00    +0.000 A 
ATOM      3  C   UNL     1       4.545   4.926  18.568  0.00  0.00    +0.000 A 
ATOM      4  C   UNL     1       3.729   6.067  18.604  0.00  0.00    +0.000 A 
ATOM      5  S   UNL     1       2.535   6.524  19.751  0.00  0.00    +0.000 S 
ATOM      6  C   UNL     1       2.226   7.980  18.898  0.00  0.00    +0.000 A 
ATOM      7  N   UNL     1       1.213   8.891  19.278  0.00  0.00    +0.000 N 
ATOM      8  C   UNL     1       0.825   8.959  20.632  0.00  0.00    +0.000 C 
ATOM      9  O   UNL     1       1.223   8.241  21.546  0.00  0.00    +0.000 OA
ATOM     10  N   UNL     1       2.947   8.120  17.807  0.00  0.00    +0.000 NA
ATOM     11  C   UNL     1       3.799   7.046  17.618  0.00  0.00    +0.000 A 
ATOM     12  C   UNL     1       4.700   6.871  16.545  0.00  0.00    +0.000 A 
ENDROOT
BRANCH   1  14
ATOM     13  C   UNL     1       6.654   4.413  14.877  0.00  0.00    +0.000 C 
ATOM     14  O   UNL     1       6.382   5.698  15.427  0.00  0.00    +0.000 OA
ENDBRANCH   1  14
BRANCH   8  15
ATOM     15  C   UNL     1      -0.151  10.032  21.002  0.00  0.00    +0.000 C 
ATOM     16  C   UNL     1      -0.043  10.651  22.187  0.00  0.00    +0.000 C 
BRANCH  16  17
ATOM     17  C   UNL     1      -0.974  11.650  22.611  0.00  0.00    +0.000 A 
ATOM     18  C   UNL     1      -2.172  11.543  23.305  0.00  0.00    +0.000 A 
ATOM     19  C   UNL     1      -2.799  12.799  23.555  0.00  0.00    +0.000 A 
ATOM     20  C   UNL     1      -2.066  13.846  23.048  0.00  0.00    +0.000 A 
ATOM     21  S   UNL     1      -0.639  13.314  22.280  0.00  0.00    +0.000 S 
ENDBRANCH  16  17
ENDBRANCH   8  15
BRANCH   7  22
ATOM     22  C   UNL     1       0.772   9.921  18.295  0.00  0.00    +0.000 C 
BRANCH  22  23
ATOM     23  C   UNL     1      -0.512   9.623  17.483  0.00  0.00    +0.000 C 
BRANCH  23  24
ATOM     24  N   UNL     1      -1.749  10.277  17.976  0.00  0.00    +0.000 NA
ATOM     25  C   UNL     1      -1.608  11.737  18.022  0.00  0.00    +0.000 C 
ATOM     26  C   UNL     1      -2.839   9.939  17.045  0.00  0.00    +0.000 C 
ENDBRANCH  23  24
ENDBRANCH  22  23
ENDBRANCH   7  22
TORSDOF 6
ENDMDL
MODEL 3
REMARK VINA RESULT:      -6.4      2.402      9.396
REMARK  Name = 
REMARK  9 active torsions:
REMARK  status: ('A' for Active; 'I' for Inactive)
REMARK    1  A    between atoms: C_1  and  O_2
REMARK    2  A    between atoms: O_2  and  C_3
REMARK    3  A    between atoms: N_9  and  C_10
REMARK    4  A    between atoms: C_10  and  C_11
REMARK    5  A    between atoms: C_11  and  N_12
REMARK    6  A    between atoms: N_12  and  C_13
REMARK    7  A    between atoms: N_12  and  C_14
REMARK    8  A    between atoms: C_15  and  C_17
REMARK    9  A    between atoms: C_18  and  C_19
REMARK                            x       y       z     vdW  Elec       q    Type
REMARK                         _______ _______ _______ _____ _____    ______ ____
ROOT
ATOM      1  C   UNL     1       4.002   5.697  17.594  0.00  0.00    +0.000 A 
ATOM      2  C   UNL     1       3.781   4.797  18.633  0.00  0.00    +0.000 A 
ATOM      3  C   UNL     1       3.005   5.150  19.745  0.00  0.00    +0.000 A 
ATOM      4  C   UNL     1       2.457   6.441  19.795  0.00  0.00    +0.000 A 
ATOM      5  S   UNL     1       1.467   7.165  20.997  0.00  0.00    +0.000 S 
ATOM      6  C   UNL     1       1.421   8.638  20.119  0.00  0.00    +0.000 A 
ATOM      7  N   UNL     1       0.654   9.753  20.531  0.00  0.00    +0.000 N 
ATOM      8  C   UNL     1       0.381   9.927  21.903  0.00  0.00    +0.000 C 
ATOM      9  O   UNL     1       0.676   9.157  22.813  0.00  0.00    +0.000 OA
ATOM     10  N   UNL     1       2.081   8.599  18.982  0.00  0.00    +0.000 NA
ATOM     11  C   UNL     1       2.668   7.363  18.776  0.00  0.00    +0.000 A 
ATOM     12  C   UNL     1       3.437   6.978  17.656  0.00  0.00    +0.000 A 
ENDROOT
BRANCH   1  14
ATOM     13  C   UNL     1       5.148   4.100  16.254  0.00  0.00    +0.000 C 
ATOM     14  O   UNL     1       4.751   5.450  16.475  0.00  0.00    +0.000 OA
ENDBRANCH   1  14
BRANCH   8  15
ATOM     15  C   UNL     1      -0.316  11.193  22.298  0.00  0.00    +0.000 C 
ATOM     16  C   UNL     1      -1.487  11.133  22.948  0.00  0.00    +0.000 C 
BRANCH  16  17
ATOM     17  C   UNL     1      -2.217  12.308  23.309  0.00  0.00    +0.000 A 
ATOM     18  C   UNL     1      -3.498  12.463  23.821  0.00  0.00    +0.000 A 
ATOM     19  C   UNL     1      -3.851  13.822  24.070  0.00  0.00    +0.000 A 
ATOM     20  C   UNL     1      -2.830  14.683  23.746  0.00  0.00    +0.000 A 
ATOM     21  S   UNL     1      -1.463  13.856  23.147  0.00  0.00    +0.000 S 
ENDBRANCH  16  17
ENDBRANCH   8  15
BRANCH   7  22
ATOM     22  C   UNL     1       0.379  10.835  19.544  0.00  0.00    +0.000 C 
BRANCH  22  23
ATOM     23  C   UNL     1      -0.907  10.710  18.693  0.00  0.00    +0.000 C 
BRANCH  23  24
ATOM     24  N   UNL     1      -1.660  11.972  18.479  0.00  0.00    +0.000 NA
ATOM     25  C   UNL     1      -2.599  12.233  19.575  0.00  0.00    +0.000 C 
ATOM     26  C   UNL     1      -0.685  13.074  18.420  0.00  0.00    +0.000 C 
ENDBRANCH  23  24
ENDBRANCH  22  23
ENDBRANCH   7  22
TORSDOF 6
ENDMDL
MODEL 4
REMARK VINA RESULT:      -6.3      2.472      9.213
REMARK  Name = 
REMARK  9 active torsions:
REMARK  status: ('A' for Active; 'I' for Inactive)
REMARK    1  A    between atoms: C_1  and  O_2
REMARK    2  A    between atoms: O_2  and  C_3
REMARK    3  A    between atoms: N_9  and  C_10
REMARK    4  A    between atoms: C_10  and  C_11
REMARK    5  A    between atoms: C_11  and  N_12
REMARK    6  A    between atoms: N_12  and  C_13
REMARK    7  A    between atoms: N_12  and  C_14
REMARK    8  A    between atoms: C_15  and  C_17
REMARK    9  A    between atoms: C_18  and  C_19
REMARK                            x       y       z     vdW  Elec       q    Type
REMARK                         _______ _______ _______ _____ _____    ______ ____
ROOT
ATOM      1  C   UNL     1       4.606   5.022  17.435  0.00  0.00    +0.000 A 
ATOM      2  C   UNL     1       4.374   4.196  18.532  0.00  0.00    +0.000 A 
ATOM      3  C   UNL     1       3.542   4.604  19.583  0.00  0.00    +0.000 A 
ATOM      4  C   UNL     1       2.950   5.874  19.512  0.00  0.00    +0.000 A 
ATOM      5  S   UNL     1       1.889   6.651  20.617  0.00  0.00    +0.000 S 
ATOM      6  C   UNL     1       1.829   8.050  19.627  0.00  0.00    +0.000 A 
ATOM      7  N   UNL     1       1.008   9.164  19.922  0.00  0.00    +0.000 N 
ATOM      8  C   UNL     1       0.674   9.433  21.265  0.00  0.00    +0.000 C 
ATOM      9  O   UNL     1       0.958   8.745  22.242  0.00  0.00    +0.000 OA
ATOM     10  N   UNL     1       2.535   7.949  18.521  0.00  0.00    +0.000 NA
ATOM     11  C   UNL     1       3.171   6.724  18.434  0.00  0.00    +0.000 A 
ATOM     12  C   UNL     1       3.997   6.283  17.377  0.00  0.00    +0.000 A 
ENDROOT
BRANCH   1  14
ATOM     13  C   UNL     1       6.806   4.628  16.621  0.00  0.00    +0.000 C 
ATOM     14  O   UNL     1       5.408   4.719  16.368  0.00  0.00    +0.000 OA
ENDBRANCH   1  14
BRANCH   8  15
ATOM     15  C   UNL     1      -0.080  10.698  21.534  0.00  0.00    +0.000 C 
ATOM     16  C   UNL     1      -0.813  10.811  22.651  0.00  0.00    +0.000 C 
BRANCH  16  17
ATOM     17  C   UNL     1      -1.588  11.978  22.937  0.00  0.00    +0.000 A 
ATOM     18  C   UNL     1      -2.871  12.116  23.448  0.00  0.00    +0.000 A 
ATOM     19  C   UNL     1      -3.278  13.474  23.606  0.00  0.00    +0.000 A 
ATOM     20  C   UNL     1      -2.296  14.351  23.214  0.00  0.00    +0.000 A 
ATOM     21  S   UNL     1      -0.900  13.540  22.661  0.00  0.00    +0.000 S 
ENDBRANCH  16  17
ENDBRANCH   8  15
BRANCH   7  22
ATOM     22  C   UNL     1       0.738  10.158  18.844  0.00  0.00    +0.000 C 
BRANCH  22  23
ATOM     23  C   UNL     1      -0.356   9.802  17.808  0.00  0.00    +0.000 C 
BRANCH  23  24
ATOM     24  N   UNL     1      -1.442  10.802  17.651  0.00  0.00    +0.000 NA
ATOM     25  C   UNL     1      -2.703  10.324  18.228  0.00  0.00    +0.000 C 
ATOM     26  C   UNL     1      -1.033  12.026  18.361  0.00  0.00    +0.000 C 
ENDBRANCH  23  24
ENDBRANCH  22  23
ENDBRANCH   7  22
TORSDOF 6
ENDMDL
MODEL 5
REMARK VINA RESULT:      -6.3      2.538      9.447
REMARK  Name = 
REMARK  9 active torsions:
REMARK  status: ('A' for Active; 'I' for Inactive)
REMARK    1  A    between atoms: C_1  and  O_2
REMARK    2  A    between atoms: O_2  and  C_3
REMARK    3  A    between atoms: N_9  and  C_10
REMARK    4  A    between atoms: C_10  and  C_11
REMARK    5  A    between atoms: C_11  and  N_12
REMARK    6  A    between atoms: N_12  and  C_13
REMARK    7  A    between atoms: N_12  and  C_14
REMARK    8  A    between atoms: C_15  and  C_17
REMARK    9  A    between atoms: C_18  and  C_19
REMARK                            x       y       z     vdW  Elec       q    Type
REMARK                         _______ _______ _______ _____ _____    ______ ____
ROOT
ATOM      1  C   UNL     1       3.801   5.832  17.839  0.00  0.00    +0.000 A 
ATOM      2  C   UNL     1       3.648   5.036  18.971  0.00  0.00    +0.000 A 
ATOM      3  C   UNL     1       2.900   5.478  20.072  0.00  0.00    +0.000 A 
ATOM      4  C   UNL     1       2.312   6.751  20.012  0.00  0.00    +0.000 A 
ATOM      5  S   UNL     1       1.343   7.565  21.173  0.00  0.00    +0.000 S 
ATOM      6  C   UNL     1       1.217   8.938  20.153  0.00  0.00    +0.000 A 
ATOM      7  N   UNL     1       0.428  10.066  20.479  0.00  0.00    +0.000 N 
ATOM      8  C   UNL     1       0.199  10.372  21.836  0.00  0.00    +0.000 C 
ATOM      9  O   UNL     1       0.551   9.708  22.807  0.00  0.00    +0.000 OA
ATOM     10  N   UNL     1       1.836   8.802  19.000  0.00  0.00    +0.000 NA
ATOM     11  C   UNL     1       2.457   7.570  18.898  0.00  0.00    +0.000 A 
ATOM     12  C   UNL     1       3.197   7.095  17.793  0.00  0.00    +0.000 A 
ENDROOT
BRANCH   1  14
ATOM     13  C   UNL     1       4.655   4.104  16.444  0.00  0.00    +0.000 C 
ATOM     14  O   UNL     1       4.518   5.493  16.722  0.00  0.00    +0.000 OA
ENDBRANCH   1  14
BRANCH   8  15
ATOM     15  C   UNL     1      -0.526  11.650  22.128  0.00  0.00    +0.000 C 
ATOM     16  C   UNL     1      -1.649  11.627  22.859  0.00  0.00    +0.000 C 
BRANCH  16  17
ATOM     17  C   UNL     1      -2.405  12.810  23.130  0.00  0.00    +0.000 A 
ATOM     18  C   UNL     1      -2.174  14.136  22.789  0.00  0.00    +0.000 A 
ATOM     19  C   UNL     1      -3.196  15.024  23.237  0.00  0.00    +0.000 A 
ATOM     20  C   UNL     1      -4.191  14.360  23.911  0.00  0.00    +0.000 A 
ATOM     21  S   UNL     1      -3.893  12.683  24.001  0.00  0.00    +0.000 S 
ENDBRANCH  16  17
ENDBRANCH   8  15
BRANCH   7  22
ATOM     22  C   UNL     1       0.082  11.033  19.399  0.00  0.00    +0.000 C 
BRANCH  22  23
ATOM     23  C   UNL     1      -1.050  10.633  18.423  0.00  0.00    +0.000 C 
BRANCH  23  24
ATOM     24  N   UNL     1      -2.014  11.710  18.082  0.00  0.00    +0.000 NA
ATOM     25  C   UNL     1      -2.926  11.298  17.009  0.00  0.00    +0.000 C 
ATOM     26  C   UNL     1      -2.807  12.004  19.288  0.00  0.00    +0.000 C 
ENDBRANCH  23  24
ENDBRANCH  22  23
ENDBRANCH   7  22
TORSDOF 6
ENDMDL
MODEL 6
REMARK VINA RESULT:      -6.3      2.545      9.663
REMARK  Name = 
REMARK  9 active torsions:
REMARK  status: ('A' for Active; 'I' for Inactive)
REMARK    1  A    between atoms: C_1  and  O_2
REMARK    2  A    between atoms: O_2  and  C_3
REMARK    3  A    between atoms: N_9  and  C_10
REMARK    4  A    between atoms: C_10  and  C_11
REMARK    5  A    between atoms: C_11  and  N_12
REMARK    6  A    between atoms: N_12  and  C_13
REMARK    7  A    between atoms: N_12  and  C_14
REMARK    8  A    between atoms: C_15  and  C_17
REMARK    9  A    between atoms: C_18  and  C_19
REMARK                            x       y       z     vdW  Elec       q    Type
REMARK                         _______ _______ _______ _____ _____    ______ ____
ROOT
ATOM      1  C   UNL     1       3.191   6.800  18.095  0.00  0.00    +0.000 A 
ATOM      2  C   UNL     1       3.072   5.974  19.209  0.00  0.00    +0.000 A 
ATOM      3  C   UNL     1       2.313   6.362  20.322  0.00  0.00    +0.000 A 
ATOM      4  C   UNL     1       1.677   7.613  20.292  0.00  0.00    +0.000 A 
ATOM      5  S   UNL     1       0.682   8.364  21.474  0.00  0.00    +0.000 S 
ATOM      6  C   UNL     1       0.500   9.754  20.486  0.00  0.00    +0.000 A 
ATOM      7  N   UNL     1      -0.329  10.844  20.840  0.00  0.00    +0.000 N 
ATOM      8  C   UNL     1      -0.564  11.111  22.204  0.00  0.00    +0.000 C 
ATOM      9  O   UNL     1      -0.183  10.439  23.159  0.00  0.00    +0.000 OA
ATOM     10  N   UNL     1       1.120   9.668  19.328  0.00  0.00    +0.000 NA
ATOM     11  C   UNL     1       1.786   8.462  19.196  0.00  0.00    +0.000 A 
ATOM     12  C   UNL     1       2.539   8.041  18.079  0.00  0.00    +0.000 A 
ENDROOT
BRANCH   1  14
ATOM     13  C   UNL     1       4.693   5.322  16.991  0.00  0.00    +0.000 C 
ATOM     14  O   UNL     1       3.915   6.514  16.968  0.00  0.00    +0.000 OA
ENDBRANCH   1  14
BRANCH   8  15
ATOM     15  C   UNL     1      -1.335  12.353  22.527  0.00  0.00    +0.000 C 
ATOM     16  C   UNL     1      -2.524  12.259  23.140  0.00  0.00    +0.000 C 
BRANCH  16  17
ATOM     17  C   UNL     1      -3.322  13.409  23.431  0.00  0.00    +0.000 A 
ATOM     18  C   UNL     1      -3.236  14.343  24.455  0.00  0.00    +0.000 A 
ATOM     19  C   UNL     1      -4.224  15.368  24.376  0.00  0.00    +0.000 A 
ATOM     20  C   UNL     1      -5.049  15.200  23.290  0.00  0.00    +0.000 A 
ATOM     21  S   UNL     1      -4.631  13.820  22.377  0.00  0.00    +0.000 S 
ENDBRANCH  16  17
ENDBRANCH   8  15
BRANCH   7  22
ATOM     22  C   UNL     1      -0.715  11.822  19.783  0.00  0.00    +0.000 C 
BRANCH  22  23
ATOM     23  C   UNL     1      -2.174  11.772  19.269  0.00  0.00    +0.000 C 
BRANCH  23  24
ATOM     24  N   UNL     1      -2.332  11.548  17.810  0.00  0.00    +0.000 NA
ATOM     25  C   UNL     1      -1.652  10.323  17.374  0.00  0.00    +0.000 C 
ATOM     26  C   UNL     1      -3.772  11.413  17.528  0.00  0.00    +0.000 C 
ENDBRANCH  23  24
ENDBRANCH  22  23
ENDBRANCH   7  22
TORSDOF 6
ENDMDL
MODEL 7
REMARK VINA RESULT:      -6.3      2.592      9.338
REMARK  Name = 
REMARK  9 active torsions:
REMARK  status: ('A' for Active; 'I' for Inactive)
REMARK    1  A    between atoms: C_1  and  O_2
REMARK    2  A    between atoms: O_2  and  C_3
REMARK    3  A    between atoms: N_9  and  C_10
REMARK    4  A    between atoms: C_10  and  C_11
REMARK    5  A    between atoms: C_11  and  N_12
REMARK    6  A    between atoms: N_12  and  C_13
REMARK    7  A    between atoms: N_12  and  C_14
REMARK    8  A    between atoms: C_15  and  C_17
REMARK    9  A    between atoms: C_18  and  C_19
REMARK                            x       y       z     vdW  Elec       q    Type
REMARK                         _______ _______ _______ _____ _____    ______ ____
ROOT
ATOM      1  C   UNL     1       5.109   5.500  16.949  0.00  0.00    +0.000 A 
ATOM      2  C   UNL     1       4.881   4.575  17.964  0.00  0.00    +0.000 A 
ATOM      3  C   UNL     1       3.966   4.838  18.993  0.00  0.00    +0.000 A 
ATOM      4  C   UNL     1       3.285   6.065  18.983  0.00  0.00    +0.000 A 
ATOM      5  S   UNL     1       2.111   6.674  20.079  0.00  0.00    +0.000 S 
ATOM      6  C   UNL     1       1.999   8.140  19.195  0.00  0.00    +0.000 A 
ATOM      7  N   UNL     1       1.083   9.167  19.524  0.00  0.00    +0.000 N 
ATOM      8  C   UNL     1       0.659   9.303  20.862  0.00  0.00    +0.000 C 
ATOM      9  O   UNL     1       0.941   8.562  21.800  0.00  0.00    +0.000 OA
ATOM     10  N   UNL     1       2.769   8.178  18.128  0.00  0.00    +0.000 NA
ATOM     11  C   UNL     1       3.499   7.011  17.987  0.00  0.00    +0.000 A 
ATOM     12  C   UNL     1       4.411   6.715  16.950  0.00  0.00    +0.000 A 
ENDROOT
BRANCH   1  14
ATOM     13  C   UNL     1       5.662   4.346  14.943  0.00  0.00    +0.000 C 
ATOM     14  O   UNL     1       5.987   5.339  15.910  0.00  0.00    +0.000 OA
ENDBRANCH   1  14
BRANCH   8  15
ATOM     15  C   UNL     1      -0.201  10.486  21.181  0.00  0.00    +0.000 C 
ATOM     16  C   UNL     1      -0.481  10.781  22.459  0.00  0.00    +0.000 C 
BRANCH  16  17
ATOM     17  C   UNL     1      -1.333  11.871  22.819  0.00  0.00    +0.000 A 
ATOM     18  C   UNL     1      -2.614  11.887  23.355  0.00  0.00    +0.000 A 
ATOM     19  C   UNL     1      -3.114  13.201  23.593  0.00  0.00    +0.000 A 
ATOM     20  C   UNL     1      -2.204  14.167  23.236  0.00  0.00    +0.000 A 
ATOM     21  S   UNL     1      -0.764  13.492  22.621  0.00  0.00    +0.000 S 
ENDBRANCH  16  17
ENDBRANCH   8  15
BRANCH   7  22
ATOM     22  C   UNL     1       0.797  10.222  18.511  0.00  0.00    +0.000 C 
BRANCH  22  23
ATOM     23  C   UNL     1       1.866  11.322  18.310  0.00  0.00    +0.000 C 
BRANCH  23  24
ATOM     24  N   UNL     1       1.530  12.654  18.871  0.00  0.00    +0.000 NA
ATOM     25  C   UNL     1       2.436  13.695  18.372  0.00  0.00    +0.000 C 
ATOM     26  C   UNL     1       0.157  12.985  18.453  0.00  0.00    +0.000 C 
ENDBRANCH  23  24
ENDBRANCH  22  23
ENDBRANCH   7  22
TORSDOF 6
ENDMDL
MODEL 8
REMARK VINA RESULT:      -6.2      2.513      9.207
REMARK  Name = 
REMARK  9 active torsions:
REMARK  status: ('A' for Active; 'I' for Inactive)
REMARK    1  A    between atoms: C_1  and  O_2
REMARK    2  A    between atoms: O_2  and  C_3
REMARK    3  A    between atoms: N_9  and  C_10
REMARK    4  A    between atoms: C_10  and  C_11
REMARK    5  A    between atoms: C_11  and  N_12
REMARK    6  A    between atoms: N_12  and  C_13
REMARK    7  A    between atoms: N_12  and  C_14
REMARK    8  A    between atoms: C_15  and  C_17
REMARK    9  A    between atoms: C_18  and  C_19
REMARK                            x       y       z     vdW  Elec       q    Type
REMARK                         _______ _______ _______ _____ _____    ______ ____
ROOT
ATOM      1  C   UNL     1       3.971   4.995  17.926  0.00  0.00    +0.000 A 
ATOM      2  C   UNL     1       3.590   4.210  19.011  0.00  0.00    +0.000 A 
ATOM      3  C   UNL     1       2.762   4.722  20.020  0.00  0.00    +0.000 A 
ATOM      4  C   UNL     1       2.330   6.053  19.919  0.00  0.00    +0.000 A 
ATOM      5  S   UNL     1       1.317   6.959  20.969  0.00  0.00    +0.000 S 
ATOM      6  C   UNL     1       1.472   8.347  19.974  0.00  0.00    +0.000 A 
ATOM      7  N   UNL     1       0.777   9.553  20.227  0.00  0.00    +0.000 N 
ATOM      8  C   UNL     1       0.413   9.869  21.552  0.00  0.00    +0.000 C 
ATOM      9  O   UNL     1       0.565   9.160  22.544  0.00  0.00    +0.000 OA
ATOM     10  N   UNL     1       2.213   8.155  18.905  0.00  0.00    +0.000 NA
ATOM     11  C   UNL     1       2.702   6.862  18.851  0.00  0.00    +0.000 A 
ATOM     12  C   UNL     1       3.520   6.319  17.836  0.00  0.00    +0.000 A 
ENDROOT
BRANCH   1  14
ATOM     13  C   UNL     1       5.469   5.611  16.184  0.00  0.00    +0.000 C 
ATOM     14  O   UNL     1       4.782   4.590  16.899  0.00  0.00    +0.000 OA
ENDBRANCH   1  14
BRANCH   8  15
ATOM     15  C   UNL     1      -0.198  11.217  21.782  0.00  0.00    +0.000 C 
ATOM     16  C   UNL     1      -0.955  11.428  22.869  0.00  0.00    +0.000 C 
BRANCH  16  17
ATOM     17  C   UNL     1      -1.599  12.681  23.115  0.00  0.00    +0.000 A 
ATOM     18  C   UNL     1      -1.093  13.973  23.153  0.00  0.00    +0.000 A 
ATOM     19  C   UNL     1      -2.084  14.965  23.412  0.00  0.00    +0.000 A 
ATOM     20  C   UNL     1      -3.332  14.412  23.567  0.00  0.00    +0.000 A 
ATOM     21  S   UNL     1      -3.305  12.715  23.399  0.00  0.00    +0.000 S 
ENDBRANCH  16  17
ENDBRANCH   8  15
BRANCH   7  22
ATOM     22  C   UNL     1       0.678  10.564  19.136  0.00  0.00    +0.000 C 
BRANCH  22  23
ATOM     23  C   UNL     1      -0.464  10.389  18.107  0.00  0.00    +0.000 C 
BRANCH  23  24
ATOM     24  N   UNL     1      -1.840  10.428  18.661  0.00  0.00    +0.000 NA
ATOM     25  C   UNL     1      -2.294  11.805  18.882  0.00  0.00    +0.000 C 
ATOM     26  C   UNL     1      -2.738   9.786  17.686  0.00  0.00    +0.000 C 
ENDBRANCH  23  24
ENDBRANCH  22  23
ENDBRANCH   7  22
TORSDOF 6
ENDMDL
MODEL 9
REMARK VINA RESULT:      -6.2      2.590      9.299
REMARK  Name = 
REMARK  9 active torsions:
REMARK  status: ('A' for Active; 'I' for Inactive)
REMARK    1  A    between atoms: C_1  and  O_2
REMARK    2  A    between atoms: O_2  and  C_3
REMARK    3  A    between atoms: N_9  and  C_10
REMARK    4  A    between atoms: C_10  and  C_11
REMARK    5  A    between atoms: C_11  and  N_12
REMARK    6  A    between atoms: N_12  and  C_13
REMARK    7  A    between atoms: N_12  and  C_14
REMARK    8  A    between atoms: C_15  and  C_17
REMARK    9  A    between atoms: C_18  and  C_19
REMARK                            x       y       z     vdW  Elec       q    Type
REMARK                         _______ _______ _______ _____ _____    ______ ____
ROOT
ATOM      1  C   UNL     1       6.084   5.553  16.498  0.00  0.00    +0.000 A 
ATOM      2  C   UNL     1       5.766   4.508  17.362  0.00  0.00    +0.000 A 
ATOM      3  C   UNL     1       4.711   4.620  18.277  0.00  0.00    +0.000 A 
ATOM      4  C   UNL     1       3.981   5.818  18.312  0.00  0.00    +0.000 A 
ATOM      5  S   UNL     1       2.645   6.258  19.297  0.00  0.00    +0.000 S 
ATOM      6  C   UNL     1       2.584   7.814  18.577  0.00  0.00    +0.000 A 
ATOM      7  N   UNL     1       1.586   8.766  18.891  0.00  0.00    +0.000 N 
ATOM      8  C   UNL     1       0.981   8.730  20.163  0.00  0.00    +0.000 C 
ATOM      9  O   UNL     1       1.169   7.893  21.042  0.00  0.00    +0.000 OA
ATOM     10  N   UNL     1       3.486   8.000  17.638  0.00  0.00    +0.000 NA
ATOM     11  C   UNL     1       4.282   6.881  17.468  0.00  0.00    +0.000 A 
ATOM     12  C   UNL     1       5.337   6.738  16.540  0.00  0.00    +0.000 A 
ENDROOT
BRANCH   1  14
ATOM     13  C   UNL     1       6.888   4.778  14.398  0.00  0.00    +0.000 C 
ATOM     14  O   UNL     1       7.100   5.544  15.579  0.00  0.00    +0.000 OA
ENDBRANCH   1  14
BRANCH   8  15
ATOM     15  C   UNL     1       0.032   9.841  20.492  0.00  0.00    +0.000 C 
ATOM     16  C   UNL     1      -0.236  10.130  21.774  0.00  0.00    +0.000 C 
BRANCH  16  17
ATOM     17  C   UNL     1      -1.168  11.149  22.144  0.00  0.00    +0.000 A 
ATOM     18  C   UNL     1      -1.771  11.433  23.362  0.00  0.00    +0.000 A 
ATOM     19  C   UNL     1      -2.636  12.566  23.319  0.00  0.00    +0.000 A 
ATOM     20  C   UNL     1      -2.678  13.130  22.066  0.00  0.00    +0.000 A 
ATOM     21  S   UNL     1      -1.683  12.298  20.958  0.00  0.00    +0.000 S 
ENDBRANCH  16  17
ENDBRANCH   8  15
BRANCH   7  22
ATOM     22  C   UNL     1       1.388   9.923  17.973  0.00  0.00    +0.000 C 
BRANCH  22  23
ATOM     23  C   UNL     1       2.334  11.136  18.145  0.00  0.00    +0.000 C 
BRANCH  23  24
ATOM     24  N   UNL     1       1.696  12.384  18.634  0.00  0.00    +0.000 NA
ATOM     25  C   UNL     1       1.995  12.625  20.050  0.00  0.00    +0.000 C 
ATOM     26  C   UNL     1       2.232  13.504  17.842  0.00  0.00    +0.000 C 
ENDBRANCH  23  24
ENDBRANCH  22  23
ENDBRANCH   7  22
TORSDOF 6
ENDMDL
