MODEL 1
REMARK VINA RESULT:      -8.0      0.000      0.000
REMARK  Name = 
REMARK  9 active torsions:
REMARK  status: ('A' for Active; 'I' for Inactive)
REMARK    1  A    between atoms: C_1  and  C_2
REMARK    2  A    between atoms: C_4  and  C_5
REMARK    3  A    between atoms: C_7  and  C_8
REMARK    4  A    between atoms: C_10  and  N_11
REMARK    5  A    between atoms: N_11  and  C_12
REMARK    6  A    between atoms: C_12  and  C_13
REMARK    7  A    between atoms: C_12  and  C_14
REMARK    8  A    between atoms: C_17  and  S_18
REMARK    9  A    between atoms: S_18  and  N_21
REMARK                            x       y       z     vdW  Elec       q    Type
REMARK                         _______ _______ _______ _____ _____    ______ ____
ROOT
ATOM      1  C   UNL     1       1.951   3.160  21.068  0.00  0.00    +0.000 C 
ATOM      2  C   UNL     1       2.371   4.432  20.457  0.00  0.00    +0.000 A 
ATOM      3  O   UNL     1       1.676   5.536  20.864  0.00  0.00    +0.000 OA
ATOM      4  C   UNL     1       2.122   6.623  20.156  0.00  0.00    +0.000 A 
ATOM      5  C   UNL     1       3.150   6.209  19.324  0.00  0.00    +0.000 A 
ATOM      6  C   UNL     1       3.311   4.809  19.520  0.00  0.00    +0.000 A 
ENDROOT
BRANCH   4   7
ATOM      7  C   UNL     1       1.560   7.936  20.318  0.00  0.00    +0.000 A 
ATOM      8  N   UNL     1       1.107   8.408  21.476  0.00  0.00    +0.000 NA
ATOM      9  C   UNL     1       0.701   9.699  21.171  0.00  0.00    +0.000 A 
ATOM     10  C   UNL     1       0.900   9.960  19.831  0.00  0.00    +0.000 A 
ATOM     11  O   UNL     1       1.444   8.834  19.286  0.00  0.00    +0.000 OA
BRANCH   9  12
ATOM     12  C   UNL     1       0.127  10.576  22.155  0.00  0.00    +0.000 C 
ATOM     13  N   UNL     1      -0.338  11.305  22.927  0.00  0.00    +0.000 NA
ENDBRANCH   9  12
BRANCH  10  14
ATOM     14  N   UNL     1       0.688  11.030  19.030  0.00  0.00    +0.000 N 
ATOM     15  H   UNL     1       1.412  11.733  18.950  0.00  0.00    +0.000 HD
BRANCH  14  16
ATOM     16  C   UNL     1      -0.668  11.552  18.822  0.00  0.00    +0.000 C 
ATOM     17  C   UNL     1      -0.592  12.945  18.196  0.00  0.00    +0.000 C 
ATOM     18  C   UNL     1      -1.425  10.595  17.902  0.00  0.00    +0.000 C 
ENDBRANCH  14  16
ENDBRANCH  10  14
ENDBRANCH   4   7
BRANCH   6  19
ATOM     19  S   UNL     1       4.432   3.799  18.673  0.00  0.00    +0.000 S 
ATOM     20  O   UNL     1       4.822   2.798  19.643  0.00  0.00    +0.000 OA
ATOM     21  O   UNL     1       3.731   3.456  17.461  0.00  0.00    +0.000 OA
BRANCH  19  22
ATOM     22  N   UNL     1       5.829   4.709  18.238  0.00  0.00    +0.000 NA
ATOM     23  C   UNL     1       5.644   5.563  17.036  0.00  0.00    +0.000 C 
ATOM     24  C   UNL     1       6.900   6.343  16.669  0.00  0.00    +0.000 C 
ATOM     25  C   UNL     1       7.450   7.096  17.870  0.00  0.00    +0.000 C 
ATOM     26  C   UNL     1       7.784   6.092  18.960  0.00  0.00    +0.000 C 
ATOM     27  C   UNL     1       6.543   5.320  19.389  0.00  0.00    +0.000 C 
ENDBRANCH  19  22
ENDBRANCH   6  19
TORSDOF 6
ENDMDL
MODEL 2
REMARK VINA RESULT:      -7.9      0.873      1.602
REMARK  Name = 
REMARK  9 active torsions:
REMARK  status: ('A' for Active; 'I' for Inactive)
REMARK    1  A    between atoms: C_1  and  C_2
REMARK    2  A    between atoms: C_4  and  C_5
REMARK    3  A    between atoms: C_7  and  C_8
REMARK    4  A    between atoms: C_10  and  N_11
REMARK    5  A    between atoms: N_11  and  C_12
REMARK    6  A    between atoms: C_12  and  C_13
REMARK    7  A    between atoms: C_12  and  C_14
REMARK    8  A    between atoms: C_17  and  S_18
REMARK    9  A    between atoms: S_18  and  N_21
REMARK                            x       y       z     vdW  Elec       q    Type
REMARK                         _______ _______ _______ _____ _____    ______ ____
ROOT
ATOM      1  C   UNL     1       1.531   2.959  20.955  0.00  0.00    +0.000 C 
ATOM      2  C   UNL     1       2.052   4.234  20.433  0.00  0.00    +0.000 A 
ATOM      3  O   UNL     1       1.403   5.354  20.871  0.00  0.00    +0.000 OA
ATOM      4  C   UNL     1       1.943   6.448  20.243  0.00  0.00    +0.000 A 
ATOM      5  C   UNL     1       2.981   6.019  19.434  0.00  0.00    +0.000 A 
ATOM      6  C   UNL     1       3.053   4.603  19.559  0.00  0.00    +0.000 A 
ENDROOT
BRANCH   4   7
ATOM      7  C   UNL     1       1.450   7.783  20.454  0.00  0.00    +0.000 A 
ATOM      8  N   UNL     1       0.877   8.188  21.583  0.00  0.00    +0.000 NA
ATOM      9  C   UNL     1       0.600   9.528  21.350  0.00  0.00    +0.000 A 
ATOM     10  C   UNL     1       0.992   9.884  20.077  0.00  0.00    +0.000 A 
ATOM     11  O   UNL     1       1.530   8.770  19.503  0.00  0.00    +0.000 OA
BRANCH   9  12
ATOM     12  C   UNL     1      -0.043  10.361  22.330  0.00  0.00    +0.000 C 
ATOM     13  N   UNL     1      -0.571  11.005  23.136  0.00  0.00    +0.000 NA
ENDBRANCH   9  12
BRANCH  10  14
ATOM     14  N   UNL     1       0.959  11.031  19.358  0.00  0.00    +0.000 N 
ATOM     15  H   UNL     1       1.553  11.800  19.636  0.00  0.00    +0.000 HD
BRANCH  14  16
ATOM     16  C   UNL     1      -0.271  11.450  18.676  0.00  0.00    +0.000 C 
ATOM     17  C   UNL     1      -1.147  10.229  18.399  0.00  0.00    +0.000 C 
ATOM     18  C   UNL     1      -1.011  12.446  19.569  0.00  0.00    +0.000 C 
ENDBRANCH  14  16
ENDBRANCH  10  14
ENDBRANCH   4   7
BRANCH   6  19
ATOM     19  S   UNL     1       4.153   3.574  18.707  0.00  0.00    +0.000 S 
ATOM     20  O   UNL     1       5.077   3.113  19.720  0.00  0.00    +0.000 OA
ATOM     21  O   UNL     1       3.286   2.668  17.995  0.00  0.00    +0.000 OA
BRANCH  19  22
ATOM     22  N   UNL     1       5.032   4.490  17.543  0.00  0.00    +0.000 NA
ATOM     23  C   UNL     1       6.417   4.830  17.960  0.00  0.00    +0.000 C 
ATOM     24  C   UNL     1       7.162   5.651  16.916  0.00  0.00    +0.000 C 
ATOM     25  C   UNL     1       7.085   4.998  15.545  0.00  0.00    +0.000 C 
ATOM     26  C   UNL     1       5.624   4.884  15.144  0.00  0.00    +0.000 C 
ATOM     27  C   UNL     1       4.850   4.031  16.141  0.00  0.00    +0.000 C 
ENDBRANCH  19  22
ENDBRANCH   6  19
TORSDOF 6
ENDMDL
MODEL 3
REMARK VINA RESULT:      -7.6      5.211      7.681
REMARK  Name = 
REMARK  9 active torsions:
REMARK  status: ('A' for Active; 'I' for Inactive)
REMARK    1  A    between atoms: C_1  and  C_2
REMARK    2  A    between atoms: C_4  and  C_5
REMARK    3  A    between atoms: C_7  and  C_8
REMARK    4  A    between atoms: C_10  and  N_11
REMARK    5  A    between atoms: N_11  and  C_12
REMARK    6  A    between atoms: C_12  and  C_13
REMARK    7  A    between atoms: C_12  and  C_14
REMARK    8  A    between atoms: C_17  and  S_18
REMARK    9  A    between atoms: S_18  and  N_21
REMARK                            x       y       z     vdW  Elec       q    Type
REMARK                         _______ _______ _______ _____ _____    ______ ____
ROOT
ATOM      1  C   UNL     1       7.863   5.078  19.183  0.00  0.00    +0.000 C 
ATOM      2  C   UNL     1       7.790   6.375  18.491  0.00  0.00    +0.000 A 
ATOM      3  O   UNL     1       8.531   7.379  19.049  0.00  0.00    +0.000 OA
ATOM      4  C   UNL     1       8.302   8.536  18.348  0.00  0.00    +0.000 A 
ATOM      5  C   UNL     1       7.443   8.249  17.301  0.00  0.00    +0.000 A 
ATOM      6  C   UNL     1       7.119   6.866  17.390  0.00  0.00    +0.000 A 
ENDROOT
BRANCH   4   7
ATOM      7  C   UNL     1       8.901   9.792  18.711  0.00  0.00    +0.000 A 
ATOM      8  N   UNL     1       9.241  10.730  17.832  0.00  0.00    +0.000 NA
ATOM      9  C   UNL     1       9.738  11.758  18.622  0.00  0.00    +0.000 A 
ATOM     10  C   UNL     1       9.704  11.399  19.952  0.00  0.00    +0.000 A 
ATOM     11  O   UNL     1       9.175  10.143  20.011  0.00  0.00    +0.000 OA
BRANCH   9  12
ATOM     12  C   UNL     1      10.235  12.984  18.060  0.00  0.00    +0.000 C 
ATOM     13  N   UNL     1      10.607  13.986  17.610  0.00  0.00    +0.000 NA
ENDBRANCH   9  12
BRANCH  10  14
ATOM     14  N   UNL     1      10.054  12.008  21.110  0.00  0.00    +0.000 N 
ATOM     15  H   UNL     1      10.543  11.474  21.816  0.00  0.00    +0.000 HD
BRANCH  14  16
ATOM     16  C   UNL     1       9.242  13.103  21.653  0.00  0.00    +0.000 C 
ATOM     17  C   UNL     1       8.798  12.757  23.074  0.00  0.00    +0.000 C 
ATOM     18  C   UNL     1      10.081  14.382  21.653  0.00  0.00    +0.000 C 
ENDBRANCH  14  16
ENDBRANCH  10  14
ENDBRANCH   4   7
BRANCH   6  19
ATOM     19  S   UNL     1       6.033   6.019  16.343  0.00  0.00    +0.000 S 
ATOM     20  O   UNL     1       5.480   7.047  15.487  0.00  0.00    +0.000 OA
ATOM     21  O   UNL     1       6.837   4.942  15.821  0.00  0.00    +0.000 OA
BRANCH  19  22
ATOM     22  N   UNL     1       4.751   5.327  17.261  0.00  0.00    +0.000 NA
ATOM     23  C   UNL     1       3.685   6.291  17.637  0.00  0.00    +0.000 C 
ATOM     24  C   UNL     1       2.574   5.651  18.459  0.00  0.00    +0.000 C 
ATOM     25  C   UNL     1       2.045   4.396  17.785  0.00  0.00    +0.000 C 
ATOM     26  C   UNL     1       3.190   3.408  17.634  0.00  0.00    +0.000 C 
ATOM     27  C   UNL     1       4.306   3.994  16.778  0.00  0.00    +0.000 C 
ENDBRANCH  19  22
ENDBRANCH   6  19
TORSDOF 6
ENDMDL
MODEL 4
REMARK VINA RESULT:      -7.5      4.964      7.137
REMARK  Name = 
REMARK  9 active torsions:
REMARK  status: ('A' for Active; 'I' for Inactive)
REMARK    1  A    between atoms: C_1  and  C_2
REMARK    2  A    between atoms: C_4  and  C_5
REMARK    3  A    between atoms: C_7  and  C_8
REMARK    4  A    between atoms: C_10  and  N_11
REMARK    5  A    between atoms: N_11  and  C_12
REMARK    6  A    between atoms: C_12  and  C_13
REMARK    7  A    between atoms: C_12  and  C_14
REMARK    8  A    between atoms: C_17  and  S_18
REMARK    9  A    between atoms: S_18  and  N_21
REMARK                            x       y       z     vdW  Elec       q    Type
REMARK                         _______ _______ _______ _____ _____    ______ ____
ROOT
ATOM      1  C   UNL     1       7.958   4.997  19.095  0.00  0.00    +0.000 C 
ATOM      2  C   UNL     1       7.729   6.232  18.326  0.00  0.00    +0.000 A 
ATOM      3  O   UNL     1       8.405   7.333  18.772  0.00  0.00    +0.000 OA
ATOM      4  C   UNL     1       8.032   8.414  18.014  0.00  0.00    +0.000 A 
ATOM      5  C   UNL     1       7.146   7.981  17.042  0.00  0.00    +0.000 A 
ATOM      6  C   UNL     1       6.956   6.585  17.240  0.00  0.00    +0.000 A 
ENDROOT
BRANCH   4   7
ATOM      7  C   UNL     1       8.534   9.740  18.258  0.00  0.00    +0.000 A 
ATOM      8  N   UNL     1       9.394  10.038  19.227  0.00  0.00    +0.000 NA
ATOM      9  C   UNL     1       9.618  11.398  19.063  0.00  0.00    +0.000 A 
ATOM     10  C   UNL     1       8.866  11.884  18.015  0.00  0.00    +0.000 A 
ATOM     11  O   UNL     1       8.170  10.829  17.503  0.00  0.00    +0.000 OA
BRANCH   9  12
ATOM     12  C   UNL     1      10.496  12.139  19.927  0.00  0.00    +0.000 C 
ATOM     13  N   UNL     1      11.197  12.718  20.647  0.00  0.00    +0.000 NA
ENDBRANCH   9  12
BRANCH  10  14
ATOM     14  N   UNL     1       8.712  13.101  17.441  0.00  0.00    +0.000 N 
ATOM     15  H   UNL     1       9.387  13.406  16.752  0.00  0.00    +0.000 HD
BRANCH  14  16
ATOM     16  C   UNL     1       8.081  14.201  18.179  0.00  0.00    +0.000 C 
ATOM     17  C   UNL     1       8.882  15.486  17.968  0.00  0.00    +0.000 C 
ATOM     18  C   UNL     1       6.650  14.375  17.671  0.00  0.00    +0.000 C 
ENDBRANCH  14  16
ENDBRANCH  10  14
ENDBRANCH   4   7
BRANCH   6  19
ATOM     19  S   UNL     1       5.895   5.576  16.318  0.00  0.00    +0.000 S 
ATOM     20  O   UNL     1       5.407   6.434  15.260  0.00  0.00    +0.000 OA
ATOM     21  O   UNL     1       6.693   4.406  16.045  0.00  0.00    +0.000 OA
BRANCH  19  22
ATOM     22  N   UNL     1       4.557   5.089  17.287  0.00  0.00    +0.000 NA
ATOM     23  C   UNL     1       3.657   6.204  17.682  0.00  0.00    +0.000 C 
ATOM     24  C   UNL     1       2.492   5.744  18.548  0.00  0.00    +0.000 C 
ATOM     25  C   UNL     1       1.762   4.574  17.910  0.00  0.00    +0.000 C 
ATOM     26  C   UNL     1       2.743   3.426  17.738  0.00  0.00    +0.000 C 
ATOM     27  C   UNL     1       3.904   3.832  16.839  0.00  0.00    +0.000 C 
ENDBRANCH  19  22
ENDBRANCH   6  19
TORSDOF 6
ENDMDL
MODEL 5
REMARK VINA RESULT:      -7.5      2.649      8.143
REMARK  Name = 
REMARK  9 active torsions:
REMARK  status: ('A' for Active; 'I' for Inactive)
REMARK    1  A    between atoms: C_1  and  C_2
REMARK    2  A    between atoms: C_4  and  C_5
REMARK    3  A    between atoms: C_7  and  C_8
REMARK    4  A    between atoms: C_10  and  N_11
REMARK    5  A    between atoms: N_11  and  C_12
REMARK    6  A    between atoms: C_12  and  C_13
REMARK    7  A    between atoms: C_12  and  C_14
REMARK    8  A    between atoms: C_17  and  S_18
REMARK    9  A    between atoms: S_18  and  N_21
REMARK                            x       y       z     vdW  Elec       q    Type
REMARK                         _______ _______ _______ _____ _____    ______ ____
ROOT
ATOM      1  C   UNL     1       0.568   8.943  22.220  0.00  0.00    +0.000 C 
ATOM      2  C   UNL     1       1.120   8.590  20.901  0.00  0.00    +0.000 A 
ATOM      3  O   UNL     1       1.724   7.366  20.828  0.00  0.00    +0.000 OA
ATOM      4  C   UNL     1       2.256   7.213  19.573  0.00  0.00    +0.000 A 
ATOM      5  C   UNL     1       1.939   8.335  18.825  0.00  0.00    +0.000 A 
ATOM      6  C   UNL     1       1.210   9.213  19.674  0.00  0.00    +0.000 A 
ENDROOT
BRANCH   4   7
ATOM      7  C   UNL     1       2.999   6.044  19.184  0.00  0.00    +0.000 A 
ATOM      8  N   UNL     1       3.282   5.041  20.010  0.00  0.00    +0.000 NA
ATOM      9  C   UNL     1       3.968   4.138  19.209  0.00  0.00    +0.000 A 
ATOM     10  C   UNL     1       4.099   4.636  17.930  0.00  0.00    +0.000 A 
ATOM     11  O   UNL     1       3.486   5.854  17.914  0.00  0.00    +0.000 OA
BRANCH   9  12
ATOM     12  C   UNL     1       4.475   2.893  19.718  0.00  0.00    +0.000 C 
ATOM     13  N   UNL     1       4.894   1.882  20.099  0.00  0.00    +0.000 NA
ENDBRANCH   9  12
BRANCH  10  14
ATOM     14  N   UNL     1       4.660   4.179  16.786  0.00  0.00    +0.000 N 
ATOM     15  H   UNL     1       4.590   3.194  16.565  0.00  0.00    +0.000 HD
BRANCH  14  16
ATOM     16  C   UNL     1       5.853   4.826  16.227  0.00  0.00    +0.000 C 
ATOM     17  C   UNL     1       7.055   4.556  17.132  0.00  0.00    +0.000 C 
ATOM     18  C   UNL     1       6.103   4.268  14.827  0.00  0.00    +0.000 C 
ENDBRANCH  14  16
ENDBRANCH  10  14
ENDBRANCH   4   7
BRANCH   6  19
ATOM     19  S   UNL     1       0.628  10.782  19.234  0.00  0.00    +0.000 S 
ATOM     20  O   UNL     1       0.782  11.576  20.434  0.00  0.00    +0.000 OA
ATOM     21  O   UNL     1       1.350  11.083  18.022  0.00  0.00    +0.000 OA
BRANCH  19  22
ATOM     22  N   UNL     1      -1.048  10.700  18.846  0.00  0.00    +0.000 NA
ATOM     23  C   UNL     1      -1.799  11.949  19.134  0.00  0.00    +0.000 C 
ATOM     24  C   UNL     1      -3.279  11.839  18.794  0.00  0.00    +0.000 C 
ATOM     25  C   UNL     1      -3.480  11.325  17.377  0.00  0.00    +0.000 C 
ATOM     26  C   UNL     1      -2.837   9.953  17.264  0.00  0.00    +0.000 C 
ATOM     27  C   UNL     1      -1.343  10.026  17.554  0.00  0.00    +0.000 C 
ENDBRANCH  19  22
ENDBRANCH   6  19
TORSDOF 6
ENDMDL
MODEL 6
REMARK VINA RESULT:      -7.5      1.949      3.878
REMARK  Name = 
REMARK  9 active torsions:
REMARK  status: ('A' for Active; 'I' for Inactive)
REMARK    1  A    between atoms: C_1  and  C_2
REMARK    2  A    between atoms: C_4  and  C_5
REMARK    3  A    between atoms: C_7  and  C_8
REMARK    4  A    between atoms: C_10  and  N_11
REMARK    5  A    between atoms: N_11  and  C_12
REMARK    6  A    between atoms: C_12  and  C_13
REMARK    7  A    between atoms: C_12  and  C_14
REMARK    8  A    between atoms: C_17  and  S_18
REMARK    9  A    between atoms: S_18  and  N_21
REMARK                            x       y       z     vdW  Elec       q    Type
REMARK                         _______ _______ _______ _____ _____    ______ ____
ROOT
ATOM      1  C   UNL     1       5.257   6.689  16.067  0.00  0.00    +0.000 C 
ATOM      2  C   UNL     1       4.222   6.642  17.114  0.00  0.00    +0.000 A 
ATOM      3  O   UNL     1       3.504   7.792  17.278  0.00  0.00    +0.000 OA
ATOM      4  C   UNL     1       2.641   7.625  18.333  0.00  0.00    +0.000 A 
ATOM      5  C   UNL     1       2.781   6.332  18.810  0.00  0.00    +0.000 A 
ATOM      6  C   UNL     1       3.790   5.703  18.027  0.00  0.00    +0.000 A 
ENDROOT
BRANCH   4   7
ATOM      7  C   UNL     1       1.770   8.672  18.794  0.00  0.00    +0.000 A 
ATOM      8  N   UNL     1       1.389   8.811  20.060  0.00  0.00    +0.000 NA
ATOM      9  C   UNL     1       0.599   9.953  20.043  0.00  0.00    +0.000 A 
ATOM     10  C   UNL     1       0.508  10.454  18.762  0.00  0.00    +0.000 A 
ATOM     11  O   UNL     1       1.251   9.634  17.963  0.00  0.00    +0.000 OA
BRANCH   9  12
ATOM     12  C   UNL     1      -0.035  10.464  21.228  0.00  0.00    +0.000 C 
ATOM     13  N   UNL     1      -0.553  10.903  22.167  0.00  0.00    +0.000 NA
ENDBRANCH   9  12
BRANCH  10  14
ATOM     14  N   UNL     1      -0.113  11.517  18.199  0.00  0.00    +0.000 N 
ATOM     15  H   UNL     1       0.208  12.448  18.428  0.00  0.00    +0.000 HD
BRANCH  14  16
ATOM     16  C   UNL     1      -1.536  11.451  17.847  0.00  0.00    +0.000 C 
ATOM     17  C   UNL     1      -1.920  10.007  17.526  0.00  0.00    +0.000 C 
ATOM     18  C   UNL     1      -2.357  11.972  19.027  0.00  0.00    +0.000 C 
ENDBRANCH  14  16
ENDBRANCH  10  14
ENDBRANCH   4   7
BRANCH   6  19
ATOM     19  S   UNL     1       4.380   4.093  18.256  0.00  0.00    +0.000 S 
ATOM     20  O   UNL     1       4.395   3.519  16.927  0.00  0.00    +0.000 OA
ATOM     21  O   UNL     1       5.589   4.281  19.020  0.00  0.00    +0.000 OA
BRANCH  19  22
ATOM     22  N   UNL     1       3.276   3.194  19.225  0.00  0.00    +0.000 NA
ATOM     23  C   UNL     1       3.360   3.496  20.678  0.00  0.00    +0.000 C 
ATOM     24  C   UNL     1       2.381   2.676  21.508  0.00  0.00    +0.000 C 
ATOM     25  C   UNL     1       0.971   2.774  20.950  0.00  0.00    +0.000 C 
ATOM     26  C   UNL     1       0.977   2.252  19.523  0.00  0.00    +0.000 C 
ATOM     27  C   UNL     1       1.912   3.075  18.646  0.00  0.00    +0.000 C 
ENDBRANCH  19  22
ENDBRANCH   6  19
TORSDOF 6
ENDMDL
MODEL 7
REMARK VINA RESULT:      -7.4      2.032      4.377
REMARK  Name = 
REMARK  9 active torsions:
REMARK  status: ('A' for Active; 'I' for Inactive)
REMARK    1  A    between atoms: C_1  and  C_2
REMARK    2  A    between atoms: C_4  and  C_5
REMARK    3  A    between atoms: C_7  and  C_8
REMARK    4  A    between atoms: C_10  and  N_11
REMARK    5  A    between atoms: N_11  and  C_12
REMARK    6  A    between atoms: C_12  and  C_13
REMARK    7  A    between atoms: C_12  and  C_14
REMARK    8  A    between atoms: C_17  and  S_18
REMARK    9  A    between atoms: S_18  and  N_21
REMARK                            x       y       z     vdW  Elec       q    Type
REMARK                         _______ _______ _______ _____ _____    ______ ____
ROOT
ATOM      1  C   UNL     1       5.224   6.585  15.839  0.00  0.00    +0.000 C 
ATOM      2  C   UNL     1       4.264   6.616  16.956  0.00  0.00    +0.000 A 
ATOM      3  O   UNL     1       3.585   7.791  17.112  0.00  0.00    +0.000 OA
ATOM      4  C   UNL     1       2.796   7.696  18.230  0.00  0.00    +0.000 A 
ATOM      5  C   UNL     1       2.939   6.425  18.760  0.00  0.00    +0.000 A 
ATOM      6  C   UNL     1       3.876   5.733  17.942  0.00  0.00    +0.000 A 
ENDROOT
BRANCH   4   7
ATOM      7  C   UNL     1       1.983   8.787  18.698  0.00  0.00    +0.000 A 
ATOM      8  N   UNL     1       1.983   9.997  18.148  0.00  0.00    +0.000 NA
ATOM      9  C   UNL     1       1.041  10.697  18.888  0.00  0.00    +0.000 A 
ATOM     10  C   UNL     1       0.518   9.894  19.879  0.00  0.00    +0.000 A 
ATOM     11  O   UNL     1       1.121   8.676  19.762  0.00  0.00    +0.000 OA
BRANCH   9  12
ATOM     12  C   UNL     1       0.730  12.076  18.627  0.00  0.00    +0.000 C 
ATOM     13  N   UNL     1       0.460  13.179  18.393  0.00  0.00    +0.000 NA
ENDBRANCH   9  12
BRANCH  10  14
ATOM     14  N   UNL     1      -0.409  10.066  20.851  0.00  0.00    +0.000 N 
ATOM     15  H   UNL     1      -1.366  10.257  20.587  0.00  0.00    +0.000 HD
BRANCH  14  16
ATOM     16  C   UNL     1      -0.032  10.629  22.152  0.00  0.00    +0.000 C 
ATOM     17  C   UNL     1      -0.955  11.799  22.493  0.00  0.00    +0.000 C 
ATOM     18  C   UNL     1      -0.145   9.534  23.212  0.00  0.00    +0.000 C 
ENDBRANCH  14  16
ENDBRANCH  10  14
ENDBRANCH   4   7
BRANCH   6  19
ATOM     19  S   UNL     1       4.444   4.121  18.209  0.00  0.00    +0.000 S 
ATOM     20  O   UNL     1       4.574   3.557  16.883  0.00  0.00    +0.000 OA
ATOM     21  O   UNL     1       5.582   4.302  19.077  0.00  0.00    +0.000 OA
BRANCH  19  22
ATOM     22  N   UNL     1       3.259   3.216  19.072  0.00  0.00    +0.000 NA
ATOM     23  C   UNL     1       3.243   3.478  20.535  0.00  0.00    +0.000 C 
ATOM     24  C   UNL     1       2.195   2.653  21.270  0.00  0.00    +0.000 C 
ATOM     25  C   UNL     1       0.830   2.789  20.615  0.00  0.00    +0.000 C 
ATOM     26  C   UNL     1       0.932   2.305  19.178  0.00  0.00    +0.000 C 
ATOM     27  C   UNL     1       1.940   3.135  18.394  0.00  0.00    +0.000 C 
ENDBRANCH  19  22
ENDBRANCH   6  19
TORSDOF 6
ENDMDL
MODEL 8
REMARK VINA RESULT:      -7.4      5.014      7.188
REMARK  Name = 
REMARK  9 active torsions:
REMARK  status: ('A' for Active; 'I' for Inactive)
REMARK    1  A    between atoms: C_1  and  C_2
REMARK    2  A    between atoms: C_4  and  C_5
REMARK    3  A    between atoms: C_7  and  C_8
REMARK    4  A    between atoms: C_10  and  N_11
REMARK    5  A    between atoms: N_11  and  C_12
REMARK    6  A    between atoms: C_12  and  C_13
REMARK    7  A    between atoms: C_12  and  C_14
REMARK    8  A    between atoms: C_17  and  S_18
REMARK    9  A    between atoms: S_18  and  N_21
REMARK                            x       y       z     vdW  Elec       q    Type
REMARK                         _______ _______ _______ _____ _____    ______ ____
ROOT
ATOM      1  C   UNL     1       7.985   5.236  19.416  0.00  0.00    +0.000 C 
ATOM      2  C   UNL     1       7.792   6.407  18.544  0.00  0.00    +0.000 A 
ATOM      3  O   UNL     1       8.458   7.537  18.925  0.00  0.00    +0.000 OA
ATOM      4  C   UNL     1       8.120   8.556  18.071  0.00  0.00    +0.000 A 
ATOM      5  C   UNL     1       7.266   8.050  17.105  0.00  0.00    +0.000 A 
ATOM      6  C   UNL     1       7.060   6.675  17.406  0.00  0.00    +0.000 A 
ENDROOT
BRANCH   4   7
ATOM      7  C   UNL     1       8.621   9.895  18.226  0.00  0.00    +0.000 A 
ATOM      8  N   UNL     1       9.587  10.229  19.077  0.00  0.00    +0.000 NA
ATOM      9  C   UNL     1       9.761  11.589  18.862  0.00  0.00    +0.000 A 
ATOM     10  C   UNL     1       8.878  12.040  17.905  0.00  0.00    +0.000 A 
ATOM     11  O   UNL     1       8.146  10.961  17.502  0.00  0.00    +0.000 OA
BRANCH   9  12
ATOM     12  C   UNL     1      10.723  12.364  19.598  0.00  0.00    +0.000 C 
ATOM     13  N   UNL     1      11.475  13.008  20.201  0.00  0.00    +0.000 NA
ENDBRANCH   9  12
BRANCH  10  14
ATOM     14  N   UNL     1       8.630  13.241  17.331  0.00  0.00    +0.000 N 
ATOM     15  H   UNL     1       9.165  13.514  16.517  0.00  0.00    +0.000 HD
BRANCH  14  16
ATOM     16  C   UNL     1       8.163  14.373  18.139  0.00  0.00    +0.000 C 
ATOM     17  C   UNL     1       9.119  15.554  17.969  0.00  0.00    +0.000 C 
ATOM     18  C   UNL     1       6.756  14.755  17.681  0.00  0.00    +0.000 C 
ENDBRANCH  14  16
ENDBRANCH  10  14
ENDBRANCH   4   7
BRANCH   6  19
ATOM     19  S   UNL     1       6.027   5.599  16.529  0.00  0.00    +0.000 S 
ATOM     20  O   UNL     1       5.650   6.343  15.346  0.00  0.00    +0.000 OA
ATOM     21  O   UNL     1       6.793   4.380  16.453  0.00  0.00    +0.000 OA
BRANCH  19  22
ATOM     22  N   UNL     1       4.604   5.274  17.444  0.00  0.00    +0.000 NA
ATOM     23  C   UNL     1       4.710   4.084  18.327  0.00  0.00    +0.000 C 
ATOM     24  C   UNL     1       3.433   3.815  19.112  0.00  0.00    +0.000 C 
ATOM     25  C   UNL     1       2.959   5.066  19.835  0.00  0.00    +0.000 C 
ATOM     26  C   UNL     1       2.697   6.151  18.804  0.00  0.00    +0.000 C 
ATOM     27  C   UNL     1       3.964   6.482  18.026  0.00  0.00    +0.000 C 
ENDBRANCH  19  22
ENDBRANCH   6  19
TORSDOF 6
ENDMDL
MODEL 9
REMARK VINA RESULT:      -7.3      5.093      7.628
REMARK  Name = 
REMARK  9 active torsions:
REMARK  status: ('A' for Active; 'I' for Inactive)
REMARK    1  A    between atoms: C_1  and  C_2
REMARK    2  A    between atoms: C_4  and  C_5
REMARK    3  A    between atoms: C_7  and  C_8
REMARK    4  A    between atoms: C_10  and  N_11
REMARK    5  A    between atoms: N_11  and  C_12
REMARK    6  A    between atoms: C_12  and  C_13
REMARK    7  A    between atoms: C_12  and  C_14
REMARK    8  A    between atoms: C_17  and  S_18
REMARK    9  A    between atoms: S_18  and  N_21
REMARK                            x       y       z     vdW  Elec       q    Type
REMARK                         _______ _______ _______ _____ _____    ______ ____
ROOT
ATOM      1  C   UNL     1       7.947   5.180  19.282  0.00  0.00    +0.000 C 
ATOM      2  C   UNL     1       7.785   6.412  18.491  0.00  0.00    +0.000 A 
ATOM      3  O   UNL     1       8.441   7.508  18.975  0.00  0.00    +0.000 OA
ATOM      4  C   UNL     1       8.133   8.588  18.186  0.00  0.00    +0.000 A 
ATOM      5  C   UNL     1       7.311   8.157  17.159  0.00  0.00    +0.000 A 
ATOM      6  C   UNL     1       7.092   6.764  17.352  0.00  0.00    +0.000 A 
ENDROOT
BRANCH   4   7
ATOM      7  C   UNL     1       8.632   9.910  18.455  0.00  0.00    +0.000 A 
ATOM      8  N   UNL     1       9.104  10.295  19.637  0.00  0.00    +0.000 NA
ATOM      9  C   UNL     1       9.496  11.609  19.424  0.00  0.00    +0.000 A 
ATOM     10  C   UNL     1       9.226  11.985  18.125  0.00  0.00    +0.000 A 
ATOM     11  O   UNL     1       8.670  10.903  17.507  0.00  0.00    +0.000 OA
BRANCH   9  12
ATOM     12  C   UNL     1      10.064  12.419  20.467  0.00  0.00    +0.000 C 
ATOM     13  N   UNL     1      10.547  13.077  21.290  0.00  0.00    +0.000 NA
ENDBRANCH   9  12
BRANCH  10  14
ATOM     14  N   UNL     1       9.405  13.119  17.407  0.00  0.00    +0.000 N 
ATOM     15  H   UNL     1       8.696  13.392  16.740  0.00  0.00    +0.000 HD
BRANCH  14  16
ATOM     16  C   UNL     1      10.754  13.578  17.058  0.00  0.00    +0.000 C 
ATOM     17  C   UNL     1      11.141  14.760  17.948  0.00  0.00    +0.000 C 
ATOM     18  C   UNL     1      11.732  12.420  17.256  0.00  0.00    +0.000 C 
ENDBRANCH  14  16
ENDBRANCH  10  14
ENDBRANCH   4   7
BRANCH   6  19
ATOM     19  S   UNL     1       6.085   5.760  16.366  0.00  0.00    +0.000 S 
ATOM     20  O   UNL     1       5.593   6.645  15.332  0.00  0.00    +0.000 OA
ATOM     21  O   UNL     1       6.927   4.628  16.067  0.00  0.00    +0.000 OA
BRANCH  19  22
ATOM     22  N   UNL     1       4.742   5.194  17.283  0.00  0.00    +0.000 NA
ATOM     23  C   UNL     1       3.758   6.251  17.634  0.00  0.00    +0.000 C 
ATOM     24  C   UNL     1       2.590   5.721  18.456  0.00  0.00    +0.000 C 
ATOM     25  C   UNL     1       1.962   4.504  17.796  0.00  0.00    +0.000 C 
ATOM     26  C   UNL     1       3.020   3.421  17.672  0.00  0.00    +0.000 C 
ATOM     27  C   UNL     1       4.189   3.895  16.818  0.00  0.00    +0.000 C 
ENDBRANCH  19  22
ENDBRANCH   6  19
TORSDOF 6
ENDMDL
