MODEL 1
REMARK VINA RESULT:      -7.2      0.000      0.000
REMARK  Name = 
REMARK  14 active torsions:
REMARK  status: ('A' for Active; 'I' for Inactive)
REMARK    1  A    between atoms: C_1  and  O_2
REMARK    2  A    between atoms: O_2  and  C_3
REMARK    3  A    between atoms: C_6  and  C_7
REMARK    4  A    between atoms: C_7  and  N_8
REMARK    5  A    between atoms: N_8  and  C_9
REMARK    6  A    between atoms: N_8  and  S_19
REMARK    7  A    between atoms: C_9  and  C_10
REMARK    8  A    between atoms: C_9  and  C_14
REMARK    9  A    between atoms: C_10  and  C_11
REMARK   10  A    between atoms: C_11  and  C_12
REMARK   11  A    between atoms: C_11  and  C_13
REMARK   12  A    between atoms: N_16  and  C_17
REMARK   13  A    between atoms: N_16  and  C_18
REMARK   14  A    between atoms: S_19  and  C_22
REMARK                            x       y       z     vdW  Elec       q    Type
REMARK                         _______ _______ _______ _____ _____    ______ ____
ROOT
ATOM      1  N   UNL     1       3.863   5.495  17.404  0.00  0.00    +0.000 NA
ENDROOT
BRANCH   1   2
ATOM      2  S   UNL     1       3.363   3.791  17.342  0.00  0.00    +0.000 S 
ATOM      3  O   UNL     1       2.326   3.646  16.356  0.00  0.00    +0.000 OA
ATOM      4  O   UNL     1       4.557   2.973  17.339  0.00  0.00    +0.000 OA
BRANCH   2   5
ATOM      5  C   UNL     1       2.603   3.436  18.937  0.00  0.00    +0.000 A 
ATOM      6  C   UNL     1       1.223   3.548  19.125  0.00  0.00    +0.000 A 
ATOM      7  C   UNL     1       0.667   3.197  20.362  0.00  0.00    +0.000 A 
ATOM      8  C   UNL     1       1.482   2.710  21.390  0.00  0.00    +0.000 A 
ATOM      9 CL   UNL     1       0.807   2.341  22.929  0.00  0.00    +0.000 Cl
ATOM     10  C   UNL     1       2.844   2.519  21.175  0.00  0.00    +0.000 A 
ATOM     11  C   UNL     1       3.402   2.866  19.944  0.00  0.00    +0.000 A 
ENDBRANCH   2   5
ENDBRANCH   1   2
BRANCH   1  12
ATOM     12  C   UNL     1       3.553   6.074  18.755  0.00  0.00    +0.000 C 
BRANCH  12  16
ATOM     13  C   UNL     1       1.024   9.583  19.313  0.00  0.00    +0.000 A 
ATOM     14  C   UNL     1       1.150   8.676  20.363  0.00  0.00    +0.000 A 
ATOM     15  C   UNL     1       1.928   7.503  20.209  0.00  0.00    +0.000 A 
ATOM     16  C   UNL     1       2.546   7.199  18.996  0.00  0.00    +0.000 A 
ATOM     17  C   UNL     1       2.369   8.112  17.937  0.00  0.00    +0.000 A 
ATOM     18  C   UNL     1       1.621   9.284  18.093  0.00  0.00    +0.000 A 
BRANCH  13  20
ATOM     19  C   UNL     1       1.040  11.913  18.790  0.00  0.00    +0.000 C 
ATOM     20  O   UNL     1       0.370  10.786  19.340  0.00  0.00    +0.000 OA
ENDBRANCH  13  20
ENDBRANCH  12  16
ENDBRANCH   1  12
BRANCH   1  21
ATOM     21  C   UNL     1       5.312   5.735  16.958  0.00  0.00    +0.000 C 
BRANCH  21  22
ATOM     22  C   UNL     1       5.572   5.803  15.424  0.00  0.00    +0.000 C 
ATOM     23  O   UNL     1       5.156   6.760  14.763  0.00  0.00    +0.000 OA
ATOM     24  N   UNL     1       6.399   4.862  14.803  0.00  0.00    +0.000 N 
ATOM     25  C   UNL     1       6.608   5.026  13.368  0.00  0.00    +0.000 C 
ATOM     26  C   UNL     1       6.649   3.529  15.319  0.00  0.00    +0.000 C 
ENDBRANCH  21  22
BRANCH  21  27
ATOM     27  C   UNL     1       5.948   7.038  17.518  0.00  0.00    +0.000 C 
BRANCH  27  28
ATOM     28  C   UNL     1       7.478   7.173  17.638  0.00  0.00    +0.000 C 
ATOM     29  C   UNL     1       7.973   8.603  17.840  0.00  0.00    +0.000 C 
ATOM     30  C   UNL     1       7.950   6.299  18.814  0.00  0.00    +0.000 C 
ENDBRANCH  27  28
ENDBRANCH  21  27
ENDBRANCH   1  21
TORSDOF 9
ENDMDL
MODEL 2
REMARK VINA RESULT:      -7.0      3.072      5.718
REMARK  Name = 
REMARK  14 active torsions:
REMARK  status: ('A' for Active; 'I' for Inactive)
REMARK    1  A    between atoms: C_1  and  O_2
REMARK    2  A    between atoms: O_2  and  C_3
REMARK    3  A    between atoms: C_6  and  C_7
REMARK    4  A    between atoms: C_7  and  N_8
REMARK    5  A    between atoms: N_8  and  C_9
REMARK    6  A    between atoms: N_8  and  S_19
REMARK    7  A    between atoms: C_9  and  C_10
REMARK    8  A    between atoms: C_9  and  C_14
REMARK    9  A    between atoms: C_10  and  C_11
REMARK   10  A    between atoms: C_11  and  C_12
REMARK   11  A    between atoms: C_11  and  C_13
REMARK   12  A    between atoms: N_16  and  C_17
REMARK   13  A    between atoms: N_16  and  C_18
REMARK   14  A    between atoms: S_19  and  C_22
REMARK                            x       y       z     vdW  Elec       q    Type
REMARK                         _______ _______ _______ _____ _____    ______ ____
ROOT
ATOM      1  N   UNL     1       3.984   6.008  18.828  0.00  0.00    +0.000 NA
ENDROOT
BRANCH   1   2
ATOM      2  S   UNL     1       5.678   5.942  18.295  0.00  0.00    +0.000 S 
ATOM      3  O   UNL     1       6.176   7.285  18.161  0.00  0.00    +0.000 OA
ATOM      4  O   UNL     1       6.359   4.938  19.085  0.00  0.00    +0.000 OA
BRANCH   2   5
ATOM      5  C   UNL     1       5.653   5.240  16.636  0.00  0.00    +0.000 A 
ATOM      6  C   UNL     1       5.437   6.041  15.512  0.00  0.00    +0.000 A 
ATOM      7  C   UNL     1       5.492   5.464  14.236  0.00  0.00    +0.000 A 
ATOM      8  C   UNL     1       5.790   4.105  14.087  0.00  0.00    +0.000 A 
ATOM      9 CL   UNL     1       5.794   3.385  12.525  0.00  0.00    +0.000 Cl
ATOM     10  C   UNL     1       6.088   3.326  15.203  0.00  0.00    +0.000 A 
ATOM     11  C   UNL     1       6.035   3.896  16.475  0.00  0.00    +0.000 A 
ENDBRANCH   2   5
ENDBRANCH   1   2
BRANCH   1  12
ATOM     12  C   UNL     1       3.212   6.968  17.969  0.00  0.00    +0.000 C 
BRANCH  12  16
ATOM     13  C   UNL     1       0.372   9.785  19.708  0.00  0.00    +0.000 A 
ATOM     14  C   UNL     1       0.684   9.899  18.354  0.00  0.00    +0.000 A 
ATOM     15  C   UNL     1       1.632   9.031  17.760  0.00  0.00    +0.000 A 
ATOM     16  C   UNL     1       2.312   8.076  18.516  0.00  0.00    +0.000 A 
ATOM     17  C   UNL     1       2.008   8.009  19.891  0.00  0.00    +0.000 A 
ATOM     18  C   UNL     1       1.055   8.848  20.476  0.00  0.00    +0.000 A 
BRANCH  13  20
ATOM     19  C   UNL     1      -1.292  11.497  19.685  0.00  0.00    +0.000 C 
ATOM     20  O   UNL     1      -0.570  10.500  20.397  0.00  0.00    +0.000 OA
ENDBRANCH  13  20
ENDBRANCH  12  16
ENDBRANCH   1  12
BRANCH   1  21
ATOM     21  C   UNL     1       3.317   4.631  18.953  0.00  0.00    +0.000 C 
BRANCH  21  22
ATOM     22  C   UNL     1       2.626   4.306  20.310  0.00  0.00    +0.000 C 
ATOM     23  O   UNL     1       1.771   5.068  20.771  0.00  0.00    +0.000 OA
ATOM     24  N   UNL     1       2.859   3.085  20.949  0.00  0.00    +0.000 N 
ATOM     25  C   UNL     1       2.143   2.858  22.201  0.00  0.00    +0.000 C 
ATOM     26  C   UNL     1       4.053   2.280  20.762  0.00  0.00    +0.000 C 
ENDBRANCH  21  22
BRANCH  21  27
ATOM     27  C   UNL     1       2.225   4.349  17.884  0.00  0.00    +0.000 C 
BRANCH  27  28
ATOM     28  C   UNL     1       1.877   2.903  17.483  0.00  0.00    +0.000 C 
ATOM     29  C   UNL     1       3.064   1.944  17.484  0.00  0.00    +0.000 C 
ATOM     30  C   UNL     1       0.798   2.380  18.448  0.00  0.00    +0.000 C 
ENDBRANCH  27  28
ENDBRANCH  21  27
ENDBRANCH   1  21
TORSDOF 9
ENDMDL
MODEL 3
REMARK VINA RESULT:      -6.7      5.169      8.488
REMARK  Name = 
REMARK  14 active torsions:
REMARK  status: ('A' for Active; 'I' for Inactive)
REMARK    1  A    between atoms: C_1  and  O_2
REMARK    2  A    between atoms: O_2  and  C_3
REMARK    3  A    between atoms: C_6  and  C_7
REMARK    4  A    between atoms: C_7  and  N_8
REMARK    5  A    between atoms: N_8  and  C_9
REMARK    6  A    between atoms: N_8  and  S_19
REMARK    7  A    between atoms: C_9  and  C_10
REMARK    8  A    between atoms: C_9  and  C_14
REMARK    9  A    between atoms: C_10  and  C_11
REMARK   10  A    between atoms: C_11  and  C_12
REMARK   11  A    between atoms: C_11  and  C_13
REMARK   12  A    between atoms: N_16  and  C_17
REMARK   13  A    between atoms: N_16  and  C_18
REMARK   14  A    between atoms: S_19  and  C_22
REMARK                            x       y       z     vdW  Elec       q    Type
REMARK                         _______ _______ _______ _____ _____    ______ ____
ROOT
ATOM      1  N   UNL     1      -0.438  10.930  19.891  0.00  0.00    +0.000 NA
ENDROOT
BRANCH   1   2
ATOM      2  S   UNL     1       0.409   9.842  21.011  0.00  0.00    +0.000 S 
ATOM      3  O   UNL     1       1.318  10.617  21.814  0.00  0.00    +0.000 OA
ATOM      4  O   UNL     1      -0.567   8.945  21.592  0.00  0.00    +0.000 OA
BRANCH   2   5
ATOM      5  C   UNL     1       1.427   8.765  19.987  0.00  0.00    +0.000 A 
ATOM      6  C   UNL     1       1.831   7.505  20.436  0.00  0.00    +0.000 A 
ATOM      7  C   UNL     1       2.566   6.673  19.580  0.00  0.00    +0.000 A 
ATOM      8  C   UNL     1       2.866   7.087  18.278  0.00  0.00    +0.000 A 
ATOM      9 CL   UNL     1       3.823   6.092  17.252  0.00  0.00    +0.000 Cl
ATOM     10  C   UNL     1       2.391   8.307  17.803  0.00  0.00    +0.000 A 
ATOM     11  C   UNL     1       1.659   9.138  18.651  0.00  0.00    +0.000 A 
ENDBRANCH   2   5
ENDBRANCH   1   2
BRANCH   1  12
ATOM     12  C   UNL     1      -1.824  10.416  19.624  0.00  0.00    +0.000 C 
BRANCH  12  16
ATOM     13  C   UNL     1      -3.407  10.809  15.579  0.00  0.00    +0.000 A 
ATOM     14  C   UNL     1      -4.060  11.466  16.620  0.00  0.00    +0.000 A 
ATOM     15  C   UNL     1      -3.603  11.331  17.953  0.00  0.00    +0.000 A 
ATOM     16  C   UNL     1      -2.525  10.504  18.268  0.00  0.00    +0.000 A 
ATOM     17  C   UNL     1      -1.908   9.818  17.203  0.00  0.00    +0.000 A 
ATOM     18  C   UNL     1      -2.341   9.969  15.882  0.00  0.00    +0.000 A 
BRANCH  13  20
ATOM     19  C   UNL     1      -3.416   9.769  13.430  0.00  0.00    +0.000 C 
ATOM     20  O   UNL     1      -3.688  10.903  14.243  0.00  0.00    +0.000 OA
ENDBRANCH  13  20
ENDBRANCH  12  16
ENDBRANCH   1  12
BRANCH   1  21
ATOM     21  C   UNL     1      -0.409  12.406  20.316  0.00  0.00    +0.000 C 
BRANCH  21  22
ATOM     22  C   UNL     1       0.178  13.419  19.289  0.00  0.00    +0.000 C 
ATOM     23  O   UNL     1      -0.378  13.595  18.201  0.00  0.00    +0.000 OA
ATOM     24  N   UNL     1       1.250  14.243  19.642  0.00  0.00    +0.000 N 
ATOM     25  C   UNL     1       1.711  15.183  18.625  0.00  0.00    +0.000 C 
ATOM     26  C   UNL     1       2.216  13.928  20.679  0.00  0.00    +0.000 C 
ENDBRANCH  21  22
BRANCH  21  27
ATOM     27  C   UNL     1      -1.799  12.992  20.691  0.00  0.00    +0.000 C 
BRANCH  27  28
ATOM     28  C   UNL     1      -2.137  13.326  22.157  0.00  0.00    +0.000 C 
ATOM     29  C   UNL     1      -3.014  12.291  22.855  0.00  0.00    +0.000 C 
ATOM     30  C   UNL     1      -0.817  13.485  22.933  0.00  0.00    +0.000 C 
ENDBRANCH  27  28
ENDBRANCH  21  27
ENDBRANCH   1  21
TORSDOF 9
ENDMDL
MODEL 4
REMARK VINA RESULT:      -6.7      5.198      8.292
REMARK  Name = 
REMARK  14 active torsions:
REMARK  status: ('A' for Active; 'I' for Inactive)
REMARK    1  A    between atoms: C_1  and  O_2
REMARK    2  A    between atoms: O_2  and  C_3
REMARK    3  A    between atoms: C_6  and  C_7
REMARK    4  A    between atoms: C_7  and  N_8
REMARK    5  A    between atoms: N_8  and  C_9
REMARK    6  A    between atoms: N_8  and  S_19
REMARK    7  A    between atoms: C_9  and  C_10
REMARK    8  A    between atoms: C_9  and  C_14
REMARK    9  A    between atoms: C_10  and  C_11
REMARK   10  A    between atoms: C_11  and  C_12
REMARK   11  A    between atoms: C_11  and  C_13
REMARK   12  A    between atoms: N_16  and  C_17
REMARK   13  A    between atoms: N_16  and  C_18
REMARK   14  A    between atoms: S_19  and  C_22
REMARK                            x       y       z     vdW  Elec       q    Type
REMARK                         _______ _______ _______ _____ _____    ______ ____
ROOT
ATOM      1  N   UNL     1      -0.137  11.282  19.988  0.00  0.00    +0.000 NA
ENDROOT
BRANCH   1   2
ATOM      2  S   UNL     1       0.384   9.905  20.982  0.00  0.00    +0.000 S 
ATOM      3  O   UNL     1       1.322  10.372  21.969  0.00  0.00    +0.000 OA
ATOM      4  O   UNL     1      -0.789   9.133  21.332  0.00  0.00    +0.000 OA
BRANCH   2   5
ATOM      5  C   UNL     1       1.304   8.814  19.882  0.00  0.00    +0.000 A 
ATOM      6  C   UNL     1       1.704   9.234  18.611  0.00  0.00    +0.000 A 
ATOM      7  C   UNL     1       2.475   8.376  17.815  0.00  0.00    +0.000 A 
ATOM      8  C   UNL     1       2.868   7.124  18.301  0.00  0.00    +0.000 A 
ATOM      9 CL   UNL     1       3.760   6.047  17.298  0.00  0.00    +0.000 Cl
ATOM     10  C   UNL     1       2.541   6.741  19.599  0.00  0.00    +0.000 A 
ATOM     11  C   UNL     1       1.774   7.592  20.395  0.00  0.00    +0.000 A 
ENDBRANCH   2   5
ENDBRANCH   1   2
BRANCH   1  12
ATOM     12  C   UNL     1      -1.636  11.321  19.908  0.00  0.00    +0.000 C 
BRANCH  12  16
ATOM     13  C   UNL     1      -3.545  10.668  16.041  0.00  0.00    +0.000 A 
ATOM     14  C   UNL     1      -4.233  11.392  17.013  0.00  0.00    +0.000 A 
ATOM     15  C   UNL     1      -3.667  11.590  18.296  0.00  0.00    +0.000 A 
ATOM     16  C   UNL     1      -2.435  11.032  18.637  0.00  0.00    +0.000 A 
ATOM     17  C   UNL     1      -1.778  10.271  17.650  0.00  0.00    +0.000 A 
ATOM     18  C   UNL     1      -2.323  10.093  16.374  0.00  0.00    +0.000 A 
BRANCH  13  20
ATOM     19  C   UNL     1      -2.996   9.843  13.869  0.00  0.00    +0.000 C 
ATOM     20  O   UNL     1      -3.932  10.459  14.745  0.00  0.00    +0.000 OA
ENDBRANCH  13  20
ENDBRANCH  12  16
ENDBRANCH   1  12
BRANCH   1  21
ATOM     21  C   UNL     1       0.485  12.622  20.408  0.00  0.00    +0.000 C 
BRANCH  21  22
ATOM     22  C   UNL     1       1.145  13.473  19.282  0.00  0.00    +0.000 C 
ATOM     23  O   UNL     1       0.614  13.553  18.170  0.00  0.00    +0.000 OA
ATOM     24  N   UNL     1       2.261  14.267  19.557  0.00  0.00    +0.000 N 
ATOM     25  C   UNL     1       2.791  15.053  18.447  0.00  0.00    +0.000 C 
ATOM     26  C   UNL     1       3.193  14.018  20.641  0.00  0.00    +0.000 C 
ENDBRANCH  21  22
BRANCH  21  27
ATOM     27  C   UNL     1      -0.506  13.598  21.102  0.00  0.00    +0.000 C 
BRANCH  27  28
ATOM     28  C   UNL     1      -0.179  14.189  22.487  0.00  0.00    +0.000 C 
ATOM     29  C   UNL     1       0.207  15.666  22.469  0.00  0.00    +0.000 C 
ATOM     30  C   UNL     1      -1.405  13.994  23.398  0.00  0.00    +0.000 C 
ENDBRANCH  27  28
ENDBRANCH  21  27
ENDBRANCH   1  21
TORSDOF 9
ENDMDL
MODEL 5
REMARK VINA RESULT:      -6.7      5.264      8.669
REMARK  Name = 
REMARK  14 active torsions:
REMARK  status: ('A' for Active; 'I' for Inactive)
REMARK    1  A    between atoms: C_1  and  O_2
REMARK    2  A    between atoms: O_2  and  C_3
REMARK    3  A    between atoms: C_6  and  C_7
REMARK    4  A    between atoms: C_7  and  N_8
REMARK    5  A    between atoms: N_8  and  C_9
REMARK    6  A    between atoms: N_8  and  S_19
REMARK    7  A    between atoms: C_9  and  C_10
REMARK    8  A    between atoms: C_9  and  C_14
REMARK    9  A    between atoms: C_10  and  C_11
REMARK   10  A    between atoms: C_11  and  C_12
REMARK   11  A    between atoms: C_11  and  C_13
REMARK   12  A    between atoms: N_16  and  C_17
REMARK   13  A    between atoms: N_16  and  C_18
REMARK   14  A    between atoms: S_19  and  C_22
REMARK                            x       y       z     vdW  Elec       q    Type
REMARK                         _______ _______ _______ _____ _____    ______ ____
ROOT
ATOM      1  N   UNL     1      -0.326  11.327  19.846  0.00  0.00    +0.000 NA
ENDROOT
BRANCH   1   2
ATOM      2  S   UNL     1       0.333  10.068  20.912  0.00  0.00    +0.000 S 
ATOM      3  O   UNL     1       1.300  10.665  21.794  0.00  0.00    +0.000 OA
ATOM      4  O   UNL     1      -0.771   9.268  21.399  0.00  0.00    +0.000 OA
BRANCH   2   5
ATOM      5  C   UNL     1       1.246   8.938  19.846  0.00  0.00    +0.000 A 
ATOM      6  C   UNL     1       1.616   9.303  18.549  0.00  0.00    +0.000 A 
ATOM      7  C   UNL     1       2.383   8.418  17.778  0.00  0.00    +0.000 A 
ATOM      8  C   UNL     1       2.801   7.195  18.314  0.00  0.00    +0.000 A 
ATOM      9 CL   UNL     1       3.687   6.084  17.345  0.00  0.00    +0.000 Cl
ATOM     10  C   UNL     1       2.503   6.869  19.634  0.00  0.00    +0.000 A 
ATOM     11  C   UNL     1       1.741   7.747  20.405  0.00  0.00    +0.000 A 
ENDBRANCH   2   5
ENDBRANCH   1   2
BRANCH   1  12
ATOM     12  C   UNL     1      -1.740  10.991  19.465  0.00  0.00    +0.000 C 
BRANCH  12  16
ATOM     13  C   UNL     1      -3.525  10.344  15.538  0.00  0.00    +0.000 A 
ATOM     14  C   UNL     1      -2.313   9.721  15.833  0.00  0.00    +0.000 A 
ATOM     15  C   UNL     1      -1.680   9.938  17.081  0.00  0.00    +0.000 A 
ATOM     16  C   UNL     1      -2.220  10.812  18.024  0.00  0.00    +0.000 A 
ATOM     17  C   UNL     1      -3.423  11.461  17.685  0.00  0.00    +0.000 A 
ATOM     18  C   UNL     1      -4.065  11.231  16.463  0.00  0.00    +0.000 A 
BRANCH  13  20
ATOM     19  C   UNL     1      -3.607   9.843  13.205  0.00  0.00    +0.000 C 
ATOM     20  O   UNL     1      -4.283  10.173  14.412  0.00  0.00    +0.000 OA
ENDBRANCH  13  20
ENDBRANCH  12  16
ENDBRANCH   1  12
BRANCH   1  21
ATOM     21  C   UNL     1      -0.168  12.753  20.396  0.00  0.00    +0.000 C 
BRANCH  21  22
ATOM     22  C   UNL     1       0.703  13.735  19.558  0.00  0.00    +0.000 C 
ATOM     23  O   UNL     1       0.704  13.669  18.325  0.00  0.00    +0.000 OA
ATOM     24  N   UNL     1       1.378  14.788  20.179  0.00  0.00    +0.000 N 
ATOM     25  C   UNL     1       2.144  15.675  19.308  0.00  0.00    +0.000 C 
ATOM     26  C   UNL     1       1.779  14.792  21.574  0.00  0.00    +0.000 C 
ENDBRANCH  21  22
BRANCH  21  27
ATOM     27  C   UNL     1      -1.509  13.509  20.611  0.00  0.00    +0.000 C 
BRANCH  27  28
ATOM     28  C   UNL     1      -2.140  13.598  22.014  0.00  0.00    +0.000 C 
ATOM     29  C   UNL     1      -3.516  12.949  22.131  0.00  0.00    +0.000 C 
ATOM     30  C   UNL     1      -1.178  12.940  23.019  0.00  0.00    +0.000 C 
ENDBRANCH  27  28
ENDBRANCH  21  27
ENDBRANCH   1  21
TORSDOF 9
ENDMDL
MODEL 6
REMARK VINA RESULT:      -6.6      3.045      5.664
REMARK  Name = 
REMARK  14 active torsions:
REMARK  status: ('A' for Active; 'I' for Inactive)
REMARK    1  A    between atoms: C_1  and  O_2
REMARK    2  A    between atoms: O_2  and  C_3
REMARK    3  A    between atoms: C_6  and  C_7
REMARK    4  A    between atoms: C_7  and  N_8
REMARK    5  A    between atoms: N_8  and  C_9
REMARK    6  A    between atoms: N_8  and  S_19
REMARK    7  A    between atoms: C_9  and  C_10
REMARK    8  A    between atoms: C_9  and  C_14
REMARK    9  A    between atoms: C_10  and  C_11
REMARK   10  A    between atoms: C_11  and  C_12
REMARK   11  A    between atoms: C_11  and  C_13
REMARK   12  A    between atoms: N_16  and  C_17
REMARK   13  A    between atoms: N_16  and  C_18
REMARK   14  A    between atoms: S_19  and  C_22
REMARK                            x       y       z     vdW  Elec       q    Type
REMARK                         _______ _______ _______ _____ _____    ______ ____
ROOT
ATOM      1  N   UNL     1       4.243   5.819  18.944  0.00  0.00    +0.000 NA
ENDROOT
BRANCH   1   2
ATOM      2  S   UNL     1       5.956   5.601  18.529  0.00  0.00    +0.000 S 
ATOM      3  O   UNL     1       6.586   6.893  18.461  0.00  0.00    +0.000 OA
ATOM      4  O   UNL     1       6.482   4.524  19.340  0.00  0.00    +0.000 OA
BRANCH   2   5
ATOM      5  C   UNL     1       5.984   4.933  16.856  0.00  0.00    +0.000 A 
ATOM      6  C   UNL     1       5.494   3.655  16.576  0.00  0.00    +0.000 A 
ATOM      7  C   UNL     1       5.474   3.201  15.250  0.00  0.00    +0.000 A 
ATOM      8  C   UNL     1       5.912   4.032  14.213  0.00  0.00    +0.000 A 
ATOM      9 CL   UNL     1       5.946   3.451  12.594  0.00  0.00    +0.000 Cl
ATOM     10  C   UNL     1       6.321   5.336  14.483  0.00  0.00    +0.000 A 
ATOM     11  C   UNL     1       6.342   5.791  15.801  0.00  0.00    +0.000 A 
ENDBRANCH   2   5
ENDBRANCH   1   2
BRANCH   1  12
ATOM     12  C   UNL     1       3.626   6.860  18.054  0.00  0.00    +0.000 C 
BRANCH  12  16
ATOM     13  C   UNL     1       0.832   9.992  19.241  0.00  0.00    +0.000 A 
ATOM     14  C   UNL     1       1.087   8.950  20.132  0.00  0.00    +0.000 A 
ATOM     15  C   UNL     1       1.956   7.893  19.769  0.00  0.00    +0.000 A 
ATOM     16  C   UNL     1       2.538   7.836  18.502  0.00  0.00    +0.000 A 
ATOM     17  C   UNL     1       2.231   8.880  17.606  0.00  0.00    +0.000 A 
ATOM     18  C   UNL     1       1.393   9.939  17.970  0.00  0.00    +0.000 A 
BRANCH  13  20
ATOM     19  C   UNL     1      -1.047  11.337  18.640  0.00  0.00    +0.000 C 
ATOM     20  O   UNL     1       0.078  11.110  19.479  0.00  0.00    +0.000 OA
ENDBRANCH  13  20
ENDBRANCH  12  16
ENDBRANCH   1  12
BRANCH   1  21
ATOM     21  C   UNL     1       3.442   4.510  18.992  0.00  0.00    +0.000 C 
BRANCH  21  22
ATOM     22  C   UNL     1       2.772   4.147  20.350  0.00  0.00    +0.000 C 
ATOM     23  O   UNL     1       1.940   4.906  20.856  0.00  0.00    +0.000 OA
ATOM     24  N   UNL     1       2.992   2.898  20.937  0.00  0.00    +0.000 N 
ATOM     25  C   UNL     1       2.296   2.636  22.193  0.00  0.00    +0.000 C 
ATOM     26  C   UNL     1       4.165   2.078  20.696  0.00  0.00    +0.000 C 
ENDBRANCH  21  22
BRANCH  21  27
ATOM     27  C   UNL     1       2.289   4.425  17.953  0.00  0.00    +0.000 C 
BRANCH  27  28
ATOM     28  C   UNL     1       1.697   3.061  17.552  0.00  0.00    +0.000 C 
ATOM     29  C   UNL     1       2.709   1.919  17.513  0.00  0.00    +0.000 C 
ATOM     30  C   UNL     1       0.572   2.712  18.542  0.00  0.00    +0.000 C 
ENDBRANCH  27  28
ENDBRANCH  21  27
ENDBRANCH   1  21
TORSDOF 9
ENDMDL
MODEL 7
REMARK VINA RESULT:      -6.6      1.344      2.919
REMARK  Name = 
REMARK  14 active torsions:
REMARK  status: ('A' for Active; 'I' for Inactive)
REMARK    1  A    between atoms: C_1  and  O_2
REMARK    2  A    between atoms: O_2  and  C_3
REMARK    3  A    between atoms: C_6  and  C_7
REMARK    4  A    between atoms: C_7  and  N_8
REMARK    5  A    between atoms: N_8  and  C_9
REMARK    6  A    between atoms: N_8  and  S_19
REMARK    7  A    between atoms: C_9  and  C_10
REMARK    8  A    between atoms: C_9  and  C_14
REMARK    9  A    between atoms: C_10  and  C_11
REMARK   10  A    between atoms: C_11  and  C_12
REMARK   11  A    between atoms: C_11  and  C_13
REMARK   12  A    between atoms: N_16  and  C_17
REMARK   13  A    between atoms: N_16  and  C_18
REMARK   14  A    between atoms: S_19  and  C_22
REMARK                            x       y       z     vdW  Elec       q    Type
REMARK                         _______ _______ _______ _____ _____    ______ ____
ROOT
ATOM      1  N   UNL     1       3.752   5.152  17.302  0.00  0.00    +0.000 NA
ENDROOT
BRANCH   1   2
ATOM      2  S   UNL     1       3.239   3.451  17.258  0.00  0.00    +0.000 S 
ATOM      3  O   UNL     1       2.144   3.320  16.334  0.00  0.00    +0.000 OA
ATOM      4  O   UNL     1       4.426   2.626  17.178  0.00  0.00    +0.000 OA
BRANCH   2   5
ATOM      5  C   UNL     1       2.573   3.088  18.892  0.00  0.00    +0.000 A 
ATOM      6  C   UNL     1       3.405   2.701  19.946  0.00  0.00    +0.000 A 
ATOM      7  C   UNL     1       2.852   2.493  21.217  0.00  0.00    +0.000 A 
ATOM      8  C   UNL     1       1.486   2.701  21.436  0.00  0.00    +0.000 A 
ATOM      9 CL   UNL     1       0.798   2.383  22.981  0.00  0.00    +0.000 Cl
ATOM     10  C   UNL     1       0.673   3.167  20.406  0.00  0.00    +0.000 A 
ATOM     11  C   UNL     1       1.219   3.376  19.140  0.00  0.00    +0.000 A 
ENDBRANCH   2   5
ENDBRANCH   1   2
BRANCH   1  12
ATOM     12  C   UNL     1       3.400   5.762  18.629  0.00  0.00    +0.000 C 
BRANCH  12  16
ATOM     13  C   UNL     1       1.130   9.438  19.227  0.00  0.00    +0.000 A 
ATOM     14  C   UNL     1       1.786   9.247  18.012  0.00  0.00    +0.000 A 
ATOM     15  C   UNL     1       2.568   8.087  17.793  0.00  0.00    +0.000 A 
ATOM     16  C   UNL     1       2.743   7.132  18.796  0.00  0.00    +0.000 A 
ATOM     17  C   UNL     1       2.102   7.369  20.028  0.00  0.00    +0.000 A 
ATOM     18  C   UNL     1       1.310   8.502  20.240  0.00  0.00    +0.000 A 
BRANCH  13  20
ATOM     19  C   UNL     1      -0.337  10.428  20.830  0.00  0.00    +0.000 C 
ATOM     20  O   UNL     1       0.288  10.467  19.553  0.00  0.00    +0.000 OA
ENDBRANCH  13  20
ENDBRANCH  12  16
ENDBRANCH   1  12
BRANCH   1  21
ATOM     21  C   UNL     1       5.219   5.370  16.903  0.00  0.00    +0.000 C 
BRANCH  21  22
ATOM     22  C   UNL     1       6.271   5.335  18.051  0.00  0.00    +0.000 C 
ATOM     23  O   UNL     1       6.291   4.391  18.847  0.00  0.00    +0.000 OA
ATOM     24  N   UNL     1       7.290   6.289  18.107  0.00  0.00    +0.000 N 
ATOM     25  C   UNL     1       8.247   6.156  19.201  0.00  0.00    +0.000 C 
ATOM     26  C   UNL     1       7.203   7.612  17.516  0.00  0.00    +0.000 C 
ENDBRANCH  21  22
BRANCH  21  27
ATOM     27  C   UNL     1       5.754   4.357  15.853  0.00  0.00    +0.000 C 
BRANCH  27  28
ATOM     28  C   UNL     1       6.052   4.810  14.410  0.00  0.00    +0.000 C 
ATOM     29  C   UNL     1       7.513   5.167  14.149  0.00  0.00    +0.000 C 
ATOM     30  C   UNL     1       5.622   3.686  13.451  0.00  0.00    +0.000 C 
ENDBRANCH  27  28
ENDBRANCH  21  27
ENDBRANCH   1  21
TORSDOF 9
ENDMDL
MODEL 8
REMARK VINA RESULT:      -6.6      1.287      2.592
REMARK  Name = 
REMARK  14 active torsions:
REMARK  status: ('A' for Active; 'I' for Inactive)
REMARK    1  A    between atoms: C_1  and  O_2
REMARK    2  A    between atoms: O_2  and  C_3
REMARK    3  A    between atoms: C_6  and  C_7
REMARK    4  A    between atoms: C_7  and  N_8
REMARK    5  A    between atoms: N_8  and  C_9
REMARK    6  A    between atoms: N_8  and  S_19
REMARK    7  A    between atoms: C_9  and  C_10
REMARK    8  A    between atoms: C_9  and  C_14
REMARK    9  A    between atoms: C_10  and  C_11
REMARK   10  A    between atoms: C_11  and  C_12
REMARK   11  A    between atoms: C_11  and  C_13
REMARK   12  A    between atoms: N_16  and  C_17
REMARK   13  A    between atoms: N_16  and  C_18
REMARK   14  A    between atoms: S_19  and  C_22
REMARK                            x       y       z     vdW  Elec       q    Type
REMARK                         _______ _______ _______ _____ _____    ______ ____
ROOT
ATOM      1  N   UNL     1       3.793   5.252  17.288  0.00  0.00    +0.000 NA
ENDROOT
BRANCH   1   2
ATOM      2  S   UNL     1       3.204   3.576  17.282  0.00  0.00    +0.000 S 
ATOM      3  O   UNL     1       2.119   3.468  16.343  0.00  0.00    +0.000 OA
ATOM      4  O   UNL     1       4.352   2.695  17.244  0.00  0.00    +0.000 OA
BRANCH   2   5
ATOM      5  C   UNL     1       2.496   3.289  18.913  0.00  0.00    +0.000 A 
ATOM      6  C   UNL     1       1.123   3.417  19.142  0.00  0.00    +0.000 A 
ATOM      7  C   UNL     1       0.607   3.120  20.410  0.00  0.00    +0.000 A 
ATOM      8  C   UNL     1       1.453   2.669  21.430  0.00  0.00    +0.000 A 
ATOM      9 CL   UNL     1       0.827   2.366  23.003  0.00  0.00    +0.000 Cl
ATOM     10  C   UNL     1       2.806   2.462  21.177  0.00  0.00    +0.000 A 
ATOM     11  C   UNL     1       3.324   2.756  19.916  0.00  0.00    +0.000 A 
ENDBRANCH   2   5
ENDBRANCH   1   2
BRANCH   1  12
ATOM     12  C   UNL     1       3.549   5.878  18.631  0.00  0.00    +0.000 C 
BRANCH  12  16
ATOM     13  C   UNL     1       1.144   9.477  19.171  0.00  0.00    +0.000 A 
ATOM     14  C   UNL     1       1.281   8.597  20.243  0.00  0.00    +0.000 A 
ATOM     15  C   UNL     1       2.019   7.397  20.097  0.00  0.00    +0.000 A 
ATOM     16  C   UNL     1       2.584   7.040  18.872  0.00  0.00    +0.000 A 
ATOM     17  C   UNL     1       2.396   7.927  17.794  0.00  0.00    +0.000 A 
ATOM     18  C   UNL     1       1.689   9.125  17.941  0.00  0.00    +0.000 A 
BRANCH  13  20
ATOM     19  C   UNL     1       0.148  11.232  20.447  0.00  0.00    +0.000 C 
ATOM     20  O   UNL     1       0.527  10.699  19.184  0.00  0.00    +0.000 OA
ENDBRANCH  13  20
ENDBRANCH  12  16
ENDBRANCH   1  12
BRANCH   1  21
ATOM     21  C   UNL     1       5.242   5.404  16.801  0.00  0.00    +0.000 C 
BRANCH  21  22
ATOM     22  C   UNL     1       6.356   5.352  17.887  0.00  0.00    +0.000 C 
ATOM     23  O   UNL     1       6.496   4.345  18.589  0.00  0.00    +0.000 OA
ATOM     24  N   UNL     1       7.299   6.379  17.985  0.00  0.00    +0.000 N 
ATOM     25  C   UNL     1       8.324   6.228  19.013  0.00  0.00    +0.000 C 
ATOM     26  C   UNL     1       7.075   7.738  17.527  0.00  0.00    +0.000 C 
ENDBRANCH  21  22
BRANCH  21  27
ATOM     27  C   UNL     1       5.677   4.348  15.746  0.00  0.00    +0.000 C 
BRANCH  27  28
ATOM     28  C   UNL     1       6.099   4.785  14.330  0.00  0.00    +0.000 C 
ATOM     29  C   UNL     1       7.557   5.218  14.210  0.00  0.00    +0.000 C 
ATOM     30  C   UNL     1       5.832   3.617  13.364  0.00  0.00    +0.000 C 
ENDBRANCH  27  28
ENDBRANCH  21  27
ENDBRANCH   1  21
TORSDOF 9
ENDMDL
MODEL 9
REMARK VINA RESULT:      -6.6      0.508      1.214
REMARK  Name = 
REMARK  14 active torsions:
REMARK  status: ('A' for Active; 'I' for Inactive)
REMARK    1  A    between atoms: C_1  and  O_2
REMARK    2  A    between atoms: O_2  and  C_3
REMARK    3  A    between atoms: C_6  and  C_7
REMARK    4  A    between atoms: C_7  and  N_8
REMARK    5  A    between atoms: N_8  and  C_9
REMARK    6  A    between atoms: N_8  and  S_19
REMARK    7  A    between atoms: C_9  and  C_10
REMARK    8  A    between atoms: C_9  and  C_14
REMARK    9  A    between atoms: C_10  and  C_11
REMARK   10  A    between atoms: C_11  and  C_12
REMARK   11  A    between atoms: C_11  and  C_13
REMARK   12  A    between atoms: N_16  and  C_17
REMARK   13  A    between atoms: N_16  and  C_18
REMARK   14  A    between atoms: S_19  and  C_22
REMARK                            x       y       z     vdW  Elec       q    Type
REMARK                         _______ _______ _______ _____ _____    ______ ____
ROOT
ATOM      1  N   UNL     1       3.713   5.290  17.435  0.00  0.00    +0.000 NA
ENDROOT
BRANCH   1   2
ATOM      2  S   UNL     1       3.162   3.605  17.317  0.00  0.00    +0.000 S 
ATOM      3  O   UNL     1       2.049   3.542  16.407  0.00  0.00    +0.000 OA
ATOM      4  O   UNL     1       4.328   2.759  17.176  0.00  0.00    +0.000 OA
BRANCH   2   5
ATOM      5  C   UNL     1       2.515   3.176  18.943  0.00  0.00    +0.000 A 
ATOM      6  C   UNL     1       3.362   2.779  19.981  0.00  0.00    +0.000 A 
ATOM      7  C   UNL     1       2.823   2.519  21.248  0.00  0.00    +0.000 A 
ATOM      8  C   UNL     1       1.453   2.685  21.480  0.00  0.00    +0.000 A 
ATOM      9 CL   UNL     1       0.783   2.304  23.018  0.00  0.00    +0.000 Cl
ATOM     10  C   UNL     1       0.622   3.161  20.468  0.00  0.00    +0.000 A 
ATOM     11  C   UNL     1       1.156   3.422  19.206  0.00  0.00    +0.000 A 
ENDBRANCH   2   5
ENDBRANCH   1   2
BRANCH   1  12
ATOM     12  C   UNL     1       3.331   5.864  18.769  0.00  0.00    +0.000 C 
BRANCH  12  16
ATOM     13  C   UNL     1       1.170   9.636  19.129  0.00  0.00    +0.000 A 
ATOM     14  C   UNL     1       1.237   8.795  20.238  0.00  0.00    +0.000 A 
ATOM     15  C   UNL     1       1.892   7.543  20.151  0.00  0.00    +0.000 A 
ATOM     16  C   UNL     1       2.445   7.097  18.950  0.00  0.00    +0.000 A 
ATOM     17  C   UNL     1       2.328   7.948  17.833  0.00  0.00    +0.000 A 
ATOM     18  C   UNL     1       1.702   9.196  17.921  0.00  0.00    +0.000 A 
BRANCH  13  20
ATOM     19  C   UNL     1       0.476  11.588  20.316  0.00  0.00    +0.000 C 
ATOM     20  O   UNL     1       0.637  10.896  19.084  0.00  0.00    +0.000 OA
ENDBRANCH  13  20
ENDBRANCH  12  16
ENDBRANCH   1  12
BRANCH   1  21
ATOM     21  C   UNL     1       5.197   5.484  17.092  0.00  0.00    +0.000 C 
BRANCH  21  22
ATOM     22  C   UNL     1       5.541   5.765  15.599  0.00  0.00    +0.000 C 
ATOM     23  O   UNL     1       5.217   6.835  15.076  0.00  0.00    +0.000 OA
ATOM     24  N   UNL     1       6.343   4.875  14.879  0.00  0.00    +0.000 N 
ATOM     25  C   UNL     1       6.638   5.238  13.496  0.00  0.00    +0.000 C 
ATOM     26  C   UNL     1       6.487   3.466  15.194  0.00  0.00    +0.000 C 
ENDBRANCH  21  22
BRANCH  21  27
ATOM     27  C   UNL     1       5.889   6.636  17.874  0.00  0.00    +0.000 C 
BRANCH  27  28
ATOM     28  C   UNL     1       7.232   6.396  18.592  0.00  0.00    +0.000 C 
ATOM     29  C   UNL     1       7.879   5.048  18.290  0.00  0.00    +0.000 C 
ATOM     30  C   UNL     1       8.199   7.527  18.197  0.00  0.00    +0.000 C 
ENDBRANCH  27  28
ENDBRANCH  21  27
ENDBRANCH   1  21
TORSDOF 9
ENDMDL
