MODEL 1
REMARK VINA RESULT:      -7.2      0.000      0.000
REMARK  Name = 
REMARK  2 active torsions:
REMARK  status: ('A' for Active; 'I' for Inactive)
REMARK    1  A    between atoms: C_1  and  C_2
REMARK    2  A    between atoms: N_10  and  C_11
REMARK                            x       y       z     vdW  Elec       q    Type
REMARK                         _______ _______ _______ _____ _____    ______ ____
ROOT
ATOM      1  C   UNL     1       6.311   4.003  13.690  0.00  0.00    +0.000 C 
ATOM      2  C   UNL     1       6.477   4.391  15.105  0.00  0.00    +0.000 A 
ATOM      3  N   UNL     1       7.661   4.814  15.553  0.00  0.00    +0.000 NA
ATOM      4  O   UNL     1       7.474   5.041  16.908  0.00  0.00    +0.000 OA
ATOM      5  N   UNL     1       6.169   4.761  17.286  0.00  0.00    +0.000 NA
ATOM      6  C   UNL     1       5.552   4.350  16.174  0.00  0.00    +0.000 A 
ATOM      7  N   UNL     1       4.235   3.944  16.107  0.00  0.00    +0.000 N 
ATOM      8  C   UNL     1       3.404   3.637  17.147  0.00  0.00    +0.000 C 
ATOM      9  O   UNL     1       2.305   3.144  16.892  0.00  0.00    +0.000 OA
ATOM     10  N   UNL     1       3.859   3.907  18.406  0.00  0.00    +0.000 N 
ATOM     11  H   UNL     1       3.845   3.720  15.201  0.00  0.00    +0.000 HD
ATOM     12  H   UNL     1       4.563   4.635  18.468  0.00  0.00    +0.000 HD
ENDROOT
BRANCH  10  13
ATOM     13  C   UNL     1       3.251   3.484  19.597  0.00  0.00    +0.000 A 
ATOM     14  C   UNL     1       2.069   4.108  19.994  0.00  0.00    +0.000 A 
ATOM     15  C   UNL     1       1.449   3.710  21.176  0.00  0.00    +0.000 A 
ATOM     16  C   UNL     1       2.062   2.736  21.947  0.00  0.00    +0.000 A 
ATOM     17  N   UNL     1       3.227   2.140  21.616  0.00  0.00    +0.000 NA
ATOM     18  C   UNL     1       3.789   2.518  20.439  0.00  0.00    +0.000 A 
ENDBRANCH  10  13
TORSDOF 1
ENDMDL
MODEL 2
REMARK VINA RESULT:      -7.2      1.634      6.358
REMARK  Name = 
REMARK  2 active torsions:
REMARK  status: ('A' for Active; 'I' for Inactive)
REMARK    1  A    between atoms: C_1  and  C_2
REMARK    2  A    between atoms: N_10  and  C_11
REMARK                            x       y       z     vdW  Elec       q    Type
REMARK                         _______ _______ _______ _____ _____    ______ ____
ROOT
ATOM      1  C   UNL     1       1.915   2.513  21.574  0.00  0.00    +0.000 C 
ATOM      2  C   UNL     1       1.757   2.964  20.177  0.00  0.00    +0.000 A 
ATOM      3  N   UNL     1       0.615   2.740  19.522  0.00  0.00    +0.000 NA
ATOM      4  O   UNL     1       0.827   3.241  18.246  0.00  0.00    +0.000 OA
ATOM      5  N   UNL     1       2.099   3.779  18.126  0.00  0.00    +0.000 NA
ATOM      6  C   UNL     1       2.680   3.601  19.316  0.00  0.00    +0.000 A 
ATOM      7  N   UNL     1       3.973   3.972  19.627  0.00  0.00    +0.000 N 
ATOM      8  C   UNL     1       4.966   4.333  18.762  0.00  0.00    +0.000 C 
ATOM      9  O   UNL     1       6.104   4.484  19.207  0.00  0.00    +0.000 OA
ATOM     10  N   UNL     1       4.617   4.506  17.453  0.00  0.00    +0.000 N 
ATOM     11  H   UNL     1       4.291   3.857  20.580  0.00  0.00    +0.000 HD
ATOM     12  H   UNL     1       3.642   4.733  17.288  0.00  0.00    +0.000 HD
ENDROOT
BRANCH  10  13
ATOM     13  C   UNL     1       5.515   4.675  16.388  0.00  0.00    +0.000 A 
ATOM     14  C   UNL     1       5.430   3.802  15.306  0.00  0.00    +0.000 A 
ATOM     15  C   UNL     1       6.314   3.944  14.240  0.00  0.00    +0.000 A 
ATOM     16  C   UNL     1       7.289   4.926  14.318  0.00  0.00    +0.000 A 
ATOM     17  N   UNL     1       7.429   5.763  15.369  0.00  0.00    +0.000 NA
ATOM     18  C   UNL     1       6.528   5.627  16.375  0.00  0.00    +0.000 A 
ENDBRANCH  10  13
TORSDOF 1
ENDMDL
MODEL 3
REMARK VINA RESULT:      -6.8      0.786      1.231
REMARK  Name = 
REMARK  2 active torsions:
REMARK  status: ('A' for Active; 'I' for Inactive)
REMARK    1  A    between atoms: C_1  and  C_2
REMARK    2  A    between atoms: N_10  and  C_11
REMARK                            x       y       z     vdW  Elec       q    Type
REMARK                         _______ _______ _______ _____ _____    ______ ____
ROOT
ATOM      1  C   UNL     1       6.502   3.978  13.803  0.00  0.00    +0.000 C 
ATOM      2  C   UNL     1       6.590   4.385  15.220  0.00  0.00    +0.000 A 
ATOM      3  N   UNL     1       7.760   4.766  15.739  0.00  0.00    +0.000 NA
ATOM      4  O   UNL     1       7.493   5.026  17.075  0.00  0.00    +0.000 OA
ATOM      5  N   UNL     1       6.155   4.811  17.368  0.00  0.00    +0.000 NA
ATOM      6  C   UNL     1       5.596   4.405  16.224  0.00  0.00    +0.000 A 
ATOM      7  N   UNL     1       4.269   4.055  16.075  0.00  0.00    +0.000 N 
ATOM      8  C   UNL     1       3.358   3.804  17.061  0.00  0.00    +0.000 C 
ATOM      9  O   UNL     1       2.258   3.354  16.742  0.00  0.00    +0.000 OA
ATOM     10  N   UNL     1       3.740   4.079  18.343  0.00  0.00    +0.000 N 
ATOM     11  H   UNL     1       3.931   3.831  15.149  0.00  0.00    +0.000 HD
ATOM     12  H   UNL     1       4.470   4.776  18.442  0.00  0.00    +0.000 HD
ENDROOT
BRANCH  10  13
ATOM     13  C   UNL     1       3.035   3.705  19.498  0.00  0.00    +0.000 A 
ATOM     14  C   UNL     1       3.560   2.689  20.294  0.00  0.00    +0.000 A 
ATOM     15  C   UNL     1       2.877   2.296  21.442  0.00  0.00    +0.000 A 
ATOM     16  C   UNL     1       1.663   2.899  21.726  0.00  0.00    +0.000 A 
ATOM     17  N   UNL     1       1.103   3.857  20.956  0.00  0.00    +0.000 NA
ATOM     18  C   UNL     1       1.811   4.250  19.866  0.00  0.00    +0.000 A 
ENDBRANCH  10  13
TORSDOF 1
ENDMDL
MODEL 4
REMARK VINA RESULT:      -6.7      1.728      6.101
REMARK  Name = 
REMARK  2 active torsions:
REMARK  status: ('A' for Active; 'I' for Inactive)
REMARK    1  A    between atoms: C_1  and  C_2
REMARK    2  A    between atoms: N_10  and  C_11
REMARK                            x       y       z     vdW  Elec       q    Type
REMARK                         _______ _______ _______ _____ _____    ______ ____
ROOT
ATOM      1  C   UNL     1       2.100   3.016  21.802  0.00  0.00    +0.000 C 
ATOM      2  C   UNL     1       3.288   2.511  21.084  0.00  0.00    +0.000 A 
ATOM      3  N   UNL     1       4.140   1.682  21.692  0.00  0.00    +0.000 NA
ATOM      4  O   UNL     1       5.144   1.452  20.762  0.00  0.00    +0.000 OA
ATOM      5  N   UNL     1       4.898   2.138  19.583  0.00  0.00    +0.000 NA
ATOM      6  C   UNL     1       3.755   2.801  19.782  0.00  0.00    +0.000 A 
ATOM      7  N   UNL     1       3.156   3.637  18.861  0.00  0.00    +0.000 N 
ATOM      8  C   UNL     1       3.706   4.147  17.719  0.00  0.00    +0.000 C 
ATOM      9  O   UNL     1       3.074   5.000  17.096  0.00  0.00    +0.000 OA
ATOM     10  N   UNL     1       4.928   3.662  17.348  0.00  0.00    +0.000 N 
ATOM     11  H   UNL     1       2.254   4.034  19.085  0.00  0.00    +0.000 HD
ATOM     12  H   UNL     1       5.153   2.736  17.693  0.00  0.00    +0.000 HD
ENDROOT
BRANCH  10  13
ATOM     13  C   UNL     1       5.739   4.196  16.334  0.00  0.00    +0.000 A 
ATOM     14  C   UNL     1       5.626   3.669  15.050  0.00  0.00    +0.000 A 
ATOM     15  C   UNL     1       6.424   4.177  14.028  0.00  0.00    +0.000 A 
ATOM     16  C   UNL     1       7.347   5.162  14.340  0.00  0.00    +0.000 A 
ATOM     17  N   UNL     1       7.514   5.668  15.581  0.00  0.00    +0.000 NA
ATOM     18  C   UNL     1       6.694   5.183  16.549  0.00  0.00    +0.000 A 
ENDBRANCH  10  13
TORSDOF 1
ENDMDL
MODEL 5
REMARK VINA RESULT:      -6.5      2.816      5.972
REMARK  Name = 
REMARK  2 active torsions:
REMARK  status: ('A' for Active; 'I' for Inactive)
REMARK    1  A    between atoms: C_1  and  C_2
REMARK    2  A    between atoms: N_10  and  C_11
REMARK                            x       y       z     vdW  Elec       q    Type
REMARK                         _______ _______ _______ _____ _____    ______ ____
ROOT
ATOM      1  C   UNL     1       0.524   2.022  18.852  0.00  0.00    +0.000 C 
ATOM      2  C   UNL     1       1.412   2.892  19.650  0.00  0.00    +0.000 A 
ATOM      3  N   UNL     1       1.025   3.328  20.851  0.00  0.00    +0.000 NA
ATOM      4  O   UNL     1       2.058   4.143  21.288  0.00  0.00    +0.000 OA
ATOM      5  N   UNL     1       3.081   4.197  20.354  0.00  0.00    +0.000 NA
ATOM      6  C   UNL     1       2.680   3.431  19.335  0.00  0.00    +0.000 A 
ATOM      7  N   UNL     1       3.395   3.227  18.172  0.00  0.00    +0.000 N 
ATOM      8  C   UNL     1       4.475   3.932  17.724  0.00  0.00    +0.000 C 
ATOM      9  O   UNL     1       4.891   3.707  16.587  0.00  0.00    +0.000 OA
ATOM     10  N   UNL     1       5.021   4.843  18.582  0.00  0.00    +0.000 N 
ATOM     11  H   UNL     1       3.033   2.571  17.493  0.00  0.00    +0.000 HD
ATOM     12  H   UNL     1       4.857   4.667  19.567  0.00  0.00    +0.000 HD
ENDROOT
BRANCH  10  13
ATOM     13  C   UNL     1       5.992   5.798  18.243  0.00  0.00    +0.000 A 
ATOM     14  C   UNL     1       7.177   5.827  18.977  0.00  0.00    +0.000 A 
ATOM     15  C   UNL     1       8.154   6.768  18.664  0.00  0.00    +0.000 A 
ATOM     16  C   UNL     1       7.889   7.684  17.659  0.00  0.00    +0.000 A 
ATOM     17  N   UNL     1       6.737   7.714  16.955  0.00  0.00    +0.000 NA
ATOM     18  C   UNL     1       5.819   6.759  17.254  0.00  0.00    +0.000 A 
ENDBRANCH  10  13
TORSDOF 1
ENDMDL
MODEL 6
REMARK VINA RESULT:      -6.5      1.612      6.673
REMARK  Name = 
REMARK  2 active torsions:
REMARK  status: ('A' for Active; 'I' for Inactive)
REMARK    1  A    between atoms: C_1  and  C_2
REMARK    2  A    between atoms: N_10  and  C_11
REMARK                            x       y       z     vdW  Elec       q    Type
REMARK                         _______ _______ _______ _____ _____    ______ ____
ROOT
ATOM      1  C   UNL     1       3.671   2.491  20.469  0.00  0.00    +0.000 C 
ATOM      2  C   UNL     1       3.228   2.886  19.116  0.00  0.00    +0.000 A 
ATOM      3  N   UNL     1       1.977   2.641  18.719  0.00  0.00    +0.000 NA
ATOM      4  O   UNL     1       1.921   3.088  17.408  0.00  0.00    +0.000 OA
ATOM      5  N   UNL     1       3.140   3.613  17.007  0.00  0.00    +0.000 NA
ATOM      6  C   UNL     1       3.954   3.481  18.059  0.00  0.00    +0.000 A 
ATOM      7  N   UNL     1       5.281   3.856  18.083  0.00  0.00    +0.000 N 
ATOM      8  C   UNL     1       6.075   4.176  17.018  0.00  0.00    +0.000 C 
ATOM      9  O   UNL     1       7.279   4.338  17.213  0.00  0.00    +0.000 OA
ATOM     10  N   UNL     1       5.464   4.297  15.802  0.00  0.00    +0.000 N 
ATOM     11  H   UNL     1       5.789   3.779  18.953  0.00  0.00    +0.000 HD
ATOM     12  H   UNL     1       4.476   4.523  15.831  0.00  0.00    +0.000 HD
ENDROOT
BRANCH  10  13
ATOM     13  C   UNL     1       6.125   4.416  14.570  0.00  0.00    +0.000 A 
ATOM     14  C   UNL     1       5.745   3.569  13.531  0.00  0.00    +0.000 A 
ATOM     15  C   UNL     1       6.389   3.664  12.300  0.00  0.00    +0.000 A 
ATOM     16  C   UNL     1       7.429   4.569  12.167  0.00  0.00    +0.000 A 
ATOM     17  N   UNL     1       7.853   5.377  13.164  0.00  0.00    +0.000 NA
ATOM     18  C   UNL     1       7.180   5.292  14.340  0.00  0.00    +0.000 A 
ENDBRANCH  10  13
TORSDOF 1
ENDMDL
MODEL 7
REMARK VINA RESULT:      -6.4      2.188      3.336
REMARK  Name = 
REMARK  2 active torsions:
REMARK  status: ('A' for Active; 'I' for Inactive)
REMARK    1  A    between atoms: C_1  and  C_2
REMARK    2  A    between atoms: N_10  and  C_11
REMARK                            x       y       z     vdW  Elec       q    Type
REMARK                         _______ _______ _______ _____ _____    ______ ____
ROOT
ATOM      1  C   UNL     1       8.572   5.900  12.580  0.00  0.00    +0.000 C 
ATOM      2  C   UNL     1       7.532   4.952  13.030  0.00  0.00    +0.000 A 
ATOM      3  N   UNL     1       6.962   4.116  12.159  0.00  0.00    +0.000 NA
ATOM      4  O   UNL     1       6.016   3.419  12.896  0.00  0.00    +0.000 OA
ATOM      5  N   UNL     1       6.016   3.827  14.222  0.00  0.00    +0.000 NA
ATOM      6  C   UNL     1       6.947   4.782  14.306  0.00  0.00    +0.000 A 
ATOM      7  N   UNL     1       7.258   5.482  15.453  0.00  0.00    +0.000 N 
ATOM      8  C   UNL     1       6.542   5.537  16.615  0.00  0.00    +0.000 C 
ATOM      9  O   UNL     1       6.893   6.338  17.482  0.00  0.00    +0.000 OA
ATOM     10  N   UNL     1       5.479   4.687  16.730  0.00  0.00    +0.000 N 
ATOM     11  H   UNL     1       8.029   6.135  15.425  0.00  0.00    +0.000 HD
ATOM     12  H   UNL     1       5.526   3.850  16.159  0.00  0.00    +0.000 HD
ENDROOT
BRANCH  10  13
ATOM     13  C   UNL     1       4.510   4.731  17.744  0.00  0.00    +0.000 A 
ATOM     14  C   UNL     1       3.530   5.720  17.680  0.00  0.00    +0.000 A 
ATOM     15  C   UNL     1       2.561   5.789  18.677  0.00  0.00    +0.000 A 
ATOM     16  C   UNL     1       2.637   4.896  19.734  0.00  0.00    +0.000 A 
ATOM     17  N   UNL     1       3.596   3.952  19.852  0.00  0.00    +0.000 NA
ATOM     18  C   UNL     1       4.504   3.882  18.844  0.00  0.00    +0.000 A 
ENDBRANCH  10  13
TORSDOF 1
ENDMDL
MODEL 8
REMARK VINA RESULT:      -6.4      1.602      6.345
REMARK  Name = 
REMARK  2 active torsions:
REMARK  status: ('A' for Active; 'I' for Inactive)
REMARK    1  A    between atoms: C_1  and  C_2
REMARK    2  A    between atoms: N_10  and  C_11
REMARK                            x       y       z     vdW  Elec       q    Type
REMARK                         _______ _______ _______ _____ _____    ______ ____
ROOT
ATOM      1  C   UNL     1       2.140   4.376  21.050  0.00  0.00    +0.000 C 
ATOM      2  C   UNL     1       2.599   3.510  19.945  0.00  0.00    +0.000 A 
ATOM      3  N   UNL     1       2.552   2.182  20.068  0.00  0.00    +0.000 NA
ATOM      4  O   UNL     1       3.094   1.692  18.888  0.00  0.00    +0.000 OA
ATOM      5  N   UNL     1       3.465   2.726  18.043  0.00  0.00    +0.000 NA
ATOM      6  C   UNL     1       3.169   3.852  18.697  0.00  0.00    +0.000 A 
ATOM      7  N   UNL     1       3.402   5.127  18.222  0.00  0.00    +0.000 N 
ATOM      8  C   UNL     1       4.184   5.490  17.163  0.00  0.00    +0.000 C 
ATOM      9  O   UNL     1       4.399   6.688  16.977  0.00  0.00    +0.000 OA
ATOM     10  N   UNL     1       4.670   4.485  16.377  0.00  0.00    +0.000 N 
ATOM     11  H   UNL     1       3.073   5.912  18.767  0.00  0.00    +0.000 HD
ATOM     12  H   UNL     1       4.134   3.624  16.387  0.00  0.00    +0.000 HD
ENDROOT
BRANCH  10  13
ATOM     13  C   UNL     1       5.644   4.634  15.377  0.00  0.00    +0.000 A 
ATOM     14  C   UNL     1       5.433   4.009  14.150  0.00  0.00    +0.000 A 
ATOM     15  C   UNL     1       6.386   4.138  13.143  0.00  0.00    +0.000 A 
ATOM     16  C   UNL     1       7.545   4.846  13.418  0.00  0.00    +0.000 A 
ATOM     17  N   UNL     1       7.802   5.430  14.608  0.00  0.00    +0.000 NA
ATOM     18  C   UNL     1       6.837   5.323  15.558  0.00  0.00    +0.000 A 
ENDBRANCH  10  13
TORSDOF 1
ENDMDL
MODEL 9
REMARK VINA RESULT:      -6.3      1.741      6.387
REMARK  Name = 
REMARK  2 active torsions:
REMARK  status: ('A' for Active; 'I' for Inactive)
REMARK    1  A    between atoms: C_1  and  C_2
REMARK    2  A    between atoms: N_10  and  C_11
REMARK                            x       y       z     vdW  Elec       q    Type
REMARK                         _______ _______ _______ _____ _____    ______ ____
ROOT
ATOM      1  C   UNL     1       1.363   3.825  20.985  0.00  0.00    +0.000 C 
ATOM      2  C   UNL     1       1.525   3.410  19.577  0.00  0.00    +0.000 A 
ATOM      3  N   UNL     1       0.850   2.360  19.103  0.00  0.00    +0.000 NA
ATOM      4  O   UNL     1       1.271   2.225  17.788  0.00  0.00    +0.000 OA
ATOM      5  N   UNL     1       2.199   3.201  17.458  0.00  0.00    +0.000 NA
ATOM      6  C   UNL     1       2.365   3.930  18.566  0.00  0.00    +0.000 A 
ATOM      7  N   UNL     1       3.230   4.999  18.685  0.00  0.00    +0.000 N 
ATOM      8  C   UNL     1       4.237   5.354  17.833  0.00  0.00    +0.000 C 
ATOM      9  O   UNL     1       5.008   6.249  18.178  0.00  0.00    +0.000 OA
ATOM     10  N   UNL     1       4.312   4.682  16.646  0.00  0.00    +0.000 N 
ATOM     11  H   UNL     1       3.227   5.528  19.546  0.00  0.00    +0.000 HD
ATOM     12  H   UNL     1       3.443   4.274  16.320  0.00  0.00    +0.000 HD
ENDROOT
BRANCH  10  13
ATOM     13  C   UNL     1       5.379   4.756  15.737  0.00  0.00    +0.000 A 
ATOM     14  C   UNL     1       5.270   4.066  14.532  0.00  0.00    +0.000 A 
ATOM     15  C   UNL     1       6.318   4.118  13.616  0.00  0.00    +0.000 A 
ATOM     16  C   UNL     1       7.462   4.819  13.962  0.00  0.00    +0.000 A 
ATOM     17  N   UNL     1       7.620   5.465  15.137  0.00  0.00    +0.000 NA
ATOM     18  C   UNL     1       6.567   5.431  15.994  0.00  0.00    +0.000 A 
ENDBRANCH  10  13
TORSDOF 1
ENDMDL
