MODEL 1
REMARK VINA RESULT:      -7.1      0.000      0.000
REMARK  Name = 
REMARK  2 active torsions:
REMARK  status: ('A' for Active; 'I' for Inactive)
REMARK    1  A    between atoms: N_5  and  C_6
REMARK    2  A    between atoms: C_6  and  C_7
REMARK                            x       y       z     vdW  Elec       q    Type
REMARK                         _______ _______ _______ _____ _____    ______ ____
ROOT
ATOM      1  O   UNL     1       7.003   5.449  19.888  0.00  0.00    +0.000 OA
ATOM      2  C   UNL     1       5.979   5.198  19.263  0.00  0.00    +0.000 A 
ATOM      3  O   UNL     1       4.754   5.281  19.834  0.00  0.00    +0.000 OA
ATOM      4  C   UNL     1       3.665   4.882  19.142  0.00  0.00    +0.000 A 
ATOM      5  N   UNL     1       2.575   4.856  19.952  0.00  0.00    +0.000 N 
ATOM      6  N   UNL     1       3.645   4.538  17.897  0.00  0.00    +0.000 NA
ATOM      7  C   UNL     1       4.848   4.558  17.201  0.00  0.00    +0.000 A 
ATOM      8  C   UNL     1       4.858   4.268  15.836  0.00  0.00    +0.000 A 
ATOM      9  C   UNL     1       6.068   4.194  15.148  0.00  0.00    +0.000 A 
ATOM     10 CL   UNL     1       6.075   3.825  13.468  0.00  0.00    +0.000 Cl
ATOM     11  C   UNL     1       7.276   4.407  15.814  0.00  0.00    +0.000 A 
ATOM     12  C   UNL     1       7.267   4.728  17.171  0.00  0.00    +0.000 A 
ATOM     13  C   UNL     1       6.047   4.816  17.847  0.00  0.00    +0.000 A 
ATOM     14  H   UNL     1       2.625   5.366  20.827  0.00  0.00    +0.000 HD
ENDROOT
BRANCH   5  15
ATOM     15  C   UNL     1       1.330   4.199  19.614  0.00  0.00    +0.000 C 
BRANCH  15  16
ATOM     16  C   UNL     1       1.348   2.734  20.049  0.00  0.00    +0.000 C 
ATOM     17 CL   UNL     1       1.555   2.587  21.814  0.00  0.00    +0.000 Cl
ENDBRANCH  15  16
ENDBRANCH   5  15
TORSDOF 2
ENDMDL
MODEL 2
REMARK VINA RESULT:      -6.8      2.388      5.550
REMARK  Name = 
REMARK  2 active torsions:
REMARK  status: ('A' for Active; 'I' for Inactive)
REMARK    1  A    between atoms: N_5  and  C_6
REMARK    2  A    between atoms: C_6  and  C_7
REMARK                            x       y       z     vdW  Elec       q    Type
REMARK                         _______ _______ _______ _____ _____    ______ ____
ROOT
ATOM      1  O   UNL     1       8.018   4.763  18.770  0.00  0.00    +0.000 OA
ATOM      2  C   UNL     1       7.286   4.620  17.798  0.00  0.00    +0.000 A 
ATOM      3  O   UNL     1       7.777   4.547  16.537  0.00  0.00    +0.000 OA
ATOM      4  C   UNL     1       6.926   4.507  15.489  0.00  0.00    +0.000 A 
ATOM      5  N   UNL     1       7.609   4.637  14.323  0.00  0.00    +0.000 N 
ATOM      6  N   UNL     1       5.641   4.397  15.563  0.00  0.00    +0.000 NA
ATOM      7  C   UNL     1       5.070   4.328  16.827  0.00  0.00    +0.000 A 
ATOM      8  C   UNL     1       3.693   4.131  16.950  0.00  0.00    +0.000 A 
ATOM      9  C   UNL     1       3.095   4.153  18.210  0.00  0.00    +0.000 A 
ATOM     10 CL   UNL     1       1.397   3.921  18.354  0.00  0.00    +0.000 Cl
ATOM     11  C   UNL     1       3.863   4.374  19.354  0.00  0.00    +0.000 A 
ATOM     12  C   UNL     1       5.242   4.540  19.237  0.00  0.00    +0.000 A 
ATOM     13  C   UNL     1       5.834   4.499  17.971  0.00  0.00    +0.000 A 
ATOM     14  H   UNL     1       8.610   4.473  14.340  0.00  0.00    +0.000 HD
ENDROOT
BRANCH   5  15
ATOM     15  C   UNL     1       6.988   4.935  13.049  0.00  0.00    +0.000 C 
BRANCH  15  16
ATOM     16  C   UNL     1       6.763   3.658  12.238  0.00  0.00    +0.000 C 
ATOM     17 CL   UNL     1       5.024   3.322  12.030  0.00  0.00    +0.000 Cl
ENDBRANCH  15  16
ENDBRANCH   5  15
TORSDOF 2
ENDMDL
MODEL 3
REMARK VINA RESULT:      -6.6      2.389      5.883
REMARK  Name = 
REMARK  2 active torsions:
REMARK  status: ('A' for Active; 'I' for Inactive)
REMARK    1  A    between atoms: N_5  and  C_6
REMARK    2  A    between atoms: C_6  and  C_7
REMARK                            x       y       z     vdW  Elec       q    Type
REMARK                         _______ _______ _______ _____ _____    ______ ____
ROOT
ATOM      1  O   UNL     1       2.845   1.562  18.875  0.00  0.00    +0.000 OA
ATOM      2  C   UNL     1       3.324   2.622  18.488  0.00  0.00    +0.000 A 
ATOM      3  O   UNL     1       4.234   2.672  17.486  0.00  0.00    +0.000 OA
ATOM      4  C   UNL     1       4.819   3.848  17.173  0.00  0.00    +0.000 A 
ATOM      5  N   UNL     1       5.832   3.650  16.291  0.00  0.00    +0.000 N 
ATOM      6  N   UNL     1       4.501   5.003  17.657  0.00  0.00    +0.000 NA
ATOM      7  C   UNL     1       3.478   5.051  18.596  0.00  0.00    +0.000 A 
ATOM      8  C   UNL     1       3.051   6.287  19.085  0.00  0.00    +0.000 A 
ATOM      9  C   UNL     1       2.090   6.343  20.095  0.00  0.00    +0.000 A 
ATOM     10 CL   UNL     1       1.576   7.868  20.702  0.00  0.00    +0.000 Cl
ATOM     11  C   UNL     1       1.551   5.170  20.624  0.00  0.00    +0.000 A 
ATOM     12  C   UNL     1       1.952   3.935  20.115  0.00  0.00    +0.000 A 
ATOM     13  C   UNL     1       2.903   3.892  19.091  0.00  0.00    +0.000 A 
ATOM     14  H   UNL     1       5.854   2.771  15.786  0.00  0.00    +0.000 HD
ENDROOT
BRANCH   5  15
ATOM     15  C   UNL     1       6.845   4.640  15.985  0.00  0.00    +0.000 C 
BRANCH  15  16
ATOM     16  C   UNL     1       7.001   4.813  14.474  0.00  0.00    +0.000 C 
ATOM     17 CL   UNL     1       5.805   3.834  13.584  0.00  0.00    +0.000 Cl
ENDBRANCH  15  16
ENDBRANCH   5  15
TORSDOF 2
ENDMDL
MODEL 4
REMARK VINA RESULT:      -6.6      2.751      5.760
REMARK  Name = 
REMARK  2 active torsions:
REMARK  status: ('A' for Active; 'I' for Inactive)
REMARK    1  A    between atoms: N_5  and  C_6
REMARK    2  A    between atoms: C_6  and  C_7
REMARK                            x       y       z     vdW  Elec       q    Type
REMARK                         _______ _______ _______ _____ _____    ______ ____
ROOT
ATOM      1  O   UNL     1       2.459   1.573  18.667  0.00  0.00    +0.000 OA
ATOM      2  C   UNL     1       3.032   2.628  18.422  0.00  0.00    +0.000 A 
ATOM      3  O   UNL     1       4.025   2.706  17.503  0.00  0.00    +0.000 OA
ATOM      4  C   UNL     1       4.705   3.863  17.351  0.00  0.00    +0.000 A 
ATOM      5  N   UNL     1       5.775   3.676  16.536  0.00  0.00    +0.000 N 
ATOM      6  N   UNL     1       4.419   4.988  17.916  0.00  0.00    +0.000 NA
ATOM      7  C   UNL     1       3.325   5.022  18.773  0.00  0.00    +0.000 A 
ATOM      8  C   UNL     1       2.935   6.234  19.344  0.00  0.00    +0.000 A 
ATOM      9  C   UNL     1       1.898   6.265  20.276  0.00  0.00    +0.000 A 
ATOM     10 CL   UNL     1       1.429   7.760  20.984  0.00  0.00    +0.000 Cl
ATOM     11  C   UNL     1       1.245   5.089  20.647  0.00  0.00    +0.000 A 
ATOM     12  C   UNL     1       1.612   3.880  20.055  0.00  0.00    +0.000 A 
ATOM     13  C   UNL     1       2.641   3.864  19.109  0.00  0.00    +0.000 A 
ATOM     14  H   UNL     1       5.786   2.847  15.952  0.00  0.00    +0.000 HD
ENDROOT
BRANCH   5  15
ATOM     15  C   UNL     1       6.869   4.617  16.405  0.00  0.00    +0.000 C 
BRANCH  15  16
ATOM     16  C   UNL     1       7.744   4.616  17.658  0.00  0.00    +0.000 C 
ATOM     17 CL   UNL     1       7.735   6.212  18.455  0.00  0.00    +0.000 Cl
ENDBRANCH  15  16
ENDBRANCH   5  15
TORSDOF 2
ENDMDL
MODEL 5
REMARK VINA RESULT:      -6.4      3.764      5.905
REMARK  Name = 
REMARK  2 active torsions:
REMARK  status: ('A' for Active; 'I' for Inactive)
REMARK    1  A    between atoms: N_5  and  C_6
REMARK    2  A    between atoms: C_6  and  C_7
REMARK                            x       y       z     vdW  Elec       q    Type
REMARK                         _______ _______ _______ _____ _____    ______ ____
ROOT
ATOM      1  O   UNL     1       5.293   4.647  14.610  0.00  0.00    +0.000 OA
ATOM      2  C   UNL     1       5.477   5.163  15.707  0.00  0.00    +0.000 A 
ATOM      3  O   UNL     1       6.286   6.239  15.864  0.00  0.00    +0.000 OA
ATOM      4  C   UNL     1       6.550   6.700  17.106  0.00  0.00    +0.000 A 
ATOM      5  N   UNL     1       7.525   7.644  17.060  0.00  0.00    +0.000 N 
ATOM      6  N   UNL     1       5.993   6.293  18.198  0.00  0.00    +0.000 NA
ATOM      7  C   UNL     1       5.048   5.279  18.103  0.00  0.00    +0.000 A 
ATOM      8  C   UNL     1       4.367   4.864  19.248  0.00  0.00    +0.000 A 
ATOM      9  C   UNL     1       3.485   3.786  19.182  0.00  0.00    +0.000 A 
ATOM     10 CL   UNL     1       2.656   3.271  20.600  0.00  0.00    +0.000 Cl
ATOM     11  C   UNL     1       3.277   3.113  17.977  0.00  0.00    +0.000 A 
ATOM     12  C   UNL     1       3.932   3.546  16.825  0.00  0.00    +0.000 A 
ATOM     13  C   UNL     1       4.801   4.639  16.899  0.00  0.00    +0.000 A 
ATOM     14  H   UNL     1       7.727   8.071  16.163  0.00  0.00    +0.000 HD
ENDROOT
BRANCH   5  15
ATOM     15  C   UNL     1       8.249   8.119  18.221  0.00  0.00    +0.000 C 
BRANCH  15  16
ATOM     16  C   UNL     1       8.476   9.628  18.145  0.00  0.00    +0.000 C 
ATOM     17 CL   UNL     1       9.422  10.211  19.541  0.00  0.00    +0.000 Cl
ENDBRANCH  15  16
ENDBRANCH   5  15
TORSDOF 2
ENDMDL
MODEL 6
REMARK VINA RESULT:      -6.4      2.133      5.777
REMARK  Name = 
REMARK  2 active torsions:
REMARK  status: ('A' for Active; 'I' for Inactive)
REMARK    1  A    between atoms: N_5  and  C_6
REMARK    2  A    between atoms: C_6  and  C_7
REMARK                            x       y       z     vdW  Elec       q    Type
REMARK                         _______ _______ _______ _____ _____    ______ ____
ROOT
ATOM      1  O   UNL     1       2.901   8.237  17.816  0.00  0.00    +0.000 OA
ATOM      2  C   UNL     1       3.556   7.204  17.738  0.00  0.00    +0.000 A 
ATOM      3  O   UNL     1       4.564   7.062  16.844  0.00  0.00    +0.000 OA
ATOM      4  C   UNL     1       5.179   5.867  16.715  0.00  0.00    +0.000 A 
ATOM      5  N   UNL     1       6.011   5.879  15.642  0.00  0.00    +0.000 N 
ATOM      6  N   UNL     1       4.994   4.836  17.471  0.00  0.00    +0.000 NA
ATOM      7  C   UNL     1       4.070   4.948  18.502  0.00  0.00    +0.000 A 
ATOM      8  C   UNL     1       3.896   3.885  19.390  0.00  0.00    +0.000 A 
ATOM      9  C   UNL     1       2.907   3.949  20.371  0.00  0.00    +0.000 A 
ATOM     10 CL   UNL     1       2.690   2.631  21.454  0.00  0.00    +0.000 Cl
ATOM     11  C   UNL     1       2.084   5.071  20.473  0.00  0.00    +0.000 A 
ATOM     12  C   UNL     1       2.276   6.148  19.608  0.00  0.00    +0.000 A 
ATOM     13  C   UNL     1       3.281   6.080  18.640  0.00  0.00    +0.000 A 
ATOM     14  H   UNL     1       6.278   6.780  15.261  0.00  0.00    +0.000 HD
ENDROOT
BRANCH   5  15
ATOM     15  C   UNL     1       6.585   4.688  15.049  0.00  0.00    +0.000 C 
BRANCH  15  16
ATOM     16  C   UNL     1       5.623   4.059  14.042  0.00  0.00    +0.000 C 
ATOM     17 CL   UNL     1       6.466   3.611  12.535  0.00  0.00    +0.000 Cl
ENDBRANCH  15  16
ENDBRANCH   5  15
TORSDOF 2
ENDMDL
MODEL 7
REMARK VINA RESULT:      -6.3      1.409      1.520
REMARK  Name = 
REMARK  2 active torsions:
REMARK  status: ('A' for Active; 'I' for Inactive)
REMARK    1  A    between atoms: N_5  and  C_6
REMARK    2  A    between atoms: C_6  and  C_7
REMARK                            x       y       z     vdW  Elec       q    Type
REMARK                         _______ _______ _______ _____ _____    ______ ____
ROOT
ATOM      1  O   UNL     1       7.604   5.806  18.730  0.00  0.00    +0.000 OA
ATOM      2  C   UNL     1       6.639   5.128  18.395  0.00  0.00    +0.000 A 
ATOM      3  O   UNL     1       5.707   4.719  19.289  0.00  0.00    +0.000 OA
ATOM      4  C   UNL     1       4.728   3.877  18.895  0.00  0.00    +0.000 A 
ATOM      5  N   UNL     1       4.026   3.435  19.971  0.00  0.00    +0.000 N 
ATOM      6  N   UNL     1       4.494   3.503  17.681  0.00  0.00    +0.000 NA
ATOM      7  C   UNL     1       5.329   3.991  16.683  0.00  0.00    +0.000 A 
ATOM      8  C   UNL     1       5.065   3.675  15.350  0.00  0.00    +0.000 A 
ATOM      9  C   UNL     1       5.947   4.081  14.348  0.00  0.00    +0.000 A 
ATOM     10 CL   UNL     1       5.622   3.678  12.708  0.00  0.00    +0.000 Cl
ATOM     11  C   UNL     1       7.097   4.802  14.669  0.00  0.00    +0.000 A 
ATOM     12  C   UNL     1       7.347   5.147  15.996  0.00  0.00    +0.000 A 
ATOM     13  C   UNL     1       6.448   4.750  16.990  0.00  0.00    +0.000 A 
ATOM     14  H   UNL     1       4.112   3.956  20.837  0.00  0.00    +0.000 HD
ENDROOT
BRANCH   5  15
ATOM     15  C   UNL     1       3.118   2.307  19.939  0.00  0.00    +0.000 C 
BRANCH  15  16
ATOM     16  C   UNL     1       1.676   2.759  20.168  0.00  0.00    +0.000 C 
ATOM     17 CL   UNL     1       0.669   2.465  18.725  0.00  0.00    +0.000 Cl
ENDBRANCH  15  16
ENDBRANCH   5  15
TORSDOF 2
ENDMDL
MODEL 8
REMARK VINA RESULT:      -6.3      2.676      5.836
REMARK  Name = 
REMARK  2 active torsions:
REMARK  status: ('A' for Active; 'I' for Inactive)
REMARK    1  A    between atoms: N_5  and  C_6
REMARK    2  A    between atoms: C_6  and  C_7
REMARK                            x       y       z     vdW  Elec       q    Type
REMARK                         _______ _______ _______ _____ _____    ______ ____
ROOT
ATOM      1  O   UNL     1       7.959   5.482  17.364  0.00  0.00    +0.000 OA
ATOM      2  C   UNL     1       7.042   4.959  16.740  0.00  0.00    +0.000 A 
ATOM      3  O   UNL     1       7.219   4.454  15.496  0.00  0.00    +0.000 OA
ATOM      4  C   UNL     1       6.155   3.994  14.803  0.00  0.00    +0.000 A 
ATOM      5  N   UNL     1       6.510   3.721  13.521  0.00  0.00    +0.000 N 
ATOM      6  N   UNL     1       4.956   3.857  15.263  0.00  0.00    +0.000 NA
ATOM      7  C   UNL     1       4.723   4.229  16.581  0.00  0.00    +0.000 A 
ATOM      8  C   UNL     1       3.460   4.025  17.140  0.00  0.00    +0.000 A 
ATOM      9  C   UNL     1       3.187   4.478  18.431  0.00  0.00    +0.000 A 
ATOM     10 CL   UNL     1       1.626   4.234  19.111  0.00  0.00    +0.000 Cl
ATOM     11  C   UNL     1       4.168   5.137  19.172  0.00  0.00    +0.000 A 
ATOM     12  C   UNL     1       5.440   5.314  18.628  0.00  0.00    +0.000 A 
ATOM     13  C   UNL     1       5.708   4.841  17.340  0.00  0.00    +0.000 A 
ATOM     14  H   UNL     1       7.498   3.622  13.315  0.00  0.00    +0.000 HD
ENDROOT
BRANCH   5  15
ATOM     15  C   UNL     1       5.563   3.503  12.447  0.00  0.00    +0.000 C 
BRANCH  15  16
ATOM     16  C   UNL     1       5.810   2.158  11.764  0.00  0.00    +0.000 C 
ATOM     17 CL   UNL     1       7.461   2.067  11.095  0.00  0.00    +0.000 Cl
ENDBRANCH  15  16
ENDBRANCH   5  15
TORSDOF 2
ENDMDL
MODEL 9
REMARK VINA RESULT:      -6.3      1.985      5.422
REMARK  Name = 
REMARK  2 active torsions:
REMARK  status: ('A' for Active; 'I' for Inactive)
REMARK    1  A    between atoms: N_5  and  C_6
REMARK    2  A    between atoms: C_6  and  C_7
REMARK                            x       y       z     vdW  Elec       q    Type
REMARK                         _______ _______ _______ _____ _____    ______ ____
ROOT
ATOM      1  O   UNL     1       6.987   5.315  19.861  0.00  0.00    +0.000 OA
ATOM      2  C   UNL     1       6.474   4.967  18.803  0.00  0.00    +0.000 A 
ATOM      3  O   UNL     1       7.174   4.944  17.643  0.00  0.00    +0.000 OA
ATOM      4  C   UNL     1       6.538   4.666  16.485  0.00  0.00    +0.000 A 
ATOM      5  N   UNL     1       7.363   4.888  15.430  0.00  0.00    +0.000 N 
ATOM      6  N   UNL     1       5.312   4.276  16.370  0.00  0.00    +0.000 NA
ATOM      7  C   UNL     1       4.564   4.143  17.534  0.00  0.00    +0.000 A 
ATOM      8  C   UNL     1       3.260   3.651  17.461  0.00  0.00    +0.000 A 
ATOM      9  C   UNL     1       2.469   3.600  18.609  0.00  0.00    +0.000 A 
ATOM     10 CL   UNL     1       0.859   3.003  18.511  0.00  0.00    +0.000 Cl
ATOM     11  C   UNL     1       2.970   4.041  19.834  0.00  0.00    +0.000 A 
ATOM     12  C   UNL     1       4.283   4.504  19.915  0.00  0.00    +0.000 A 
ATOM     13  C   UNL     1       5.073   4.534  18.762  0.00  0.00    +0.000 A 
ATOM     14  H   UNL     1       8.359   4.952  15.613  0.00  0.00    +0.000 HD
ENDROOT
BRANCH   5  15
ATOM     15  C   UNL     1       6.915   4.978  14.055  0.00  0.00    +0.000 C 
BRANCH  15  16
ATOM     16  C   UNL     1       6.363   3.638  13.571  0.00  0.00    +0.000 C 
ATOM     17 CL   UNL     1       6.745   3.365  11.850  0.00  0.00    +0.000 Cl
ENDBRANCH  15  16
ENDBRANCH   5  15
TORSDOF 2
ENDMDL
