MODEL 1
REMARK VINA RESULT:      -8.2      0.000      0.000
REMARK  Name = 
REMARK  7 active torsions:
REMARK  status: ('A' for Active; 'I' for Inactive)
REMARK    1  A    between atoms: C_2  and  C_20
REMARK    2  A    between atoms: N_3  and  C_4
REMARK    3  A    between atoms: C_8  and  C_9
REMARK    4  A    between atoms: C_11  and  O_12
REMARK    5  A    between atoms: C_13  and  O_14
REMARK    6  A    between atoms: C_15  and  C_16
REMARK    7  A    between atoms: C_16  and  O_18
REMARK                            x       y       z     vdW  Elec       q    Type
REMARK                         _______ _______ _______ _____ _____    ______ ____
ROOT
ATOM      1  C   UNK A   0       2.296   4.081  18.613  0.00  0.00    +0.000 A 
ATOM      2  C   UNK A   0       1.430   3.040  19.062  0.00  0.00    +0.000 A 
ATOM      3  C   UNK A   0       2.015   1.799  18.966  0.00  0.00    +0.000 A 
ATOM      4  S   UNK A   0       3.608   1.891  18.363  0.00  0.00    +0.000 S 
ATOM      5  C   UNK A   0       3.535   3.606  18.203  0.00  0.00    +0.000 A 
ENDROOT
BRANCH   5   6
ATOM      6  C   UNK A   0       4.715   4.366  17.762  0.00  0.00    +0.000 A 
ATOM      7  N   UNK A   1       4.751   4.719  16.459  0.00  0.00    +0.000 NA
ATOM      8  C   UNK A   1       5.803   5.465  16.104  0.00  0.00    +0.000 A 
ATOM      9  C   UNK A   1       6.821   5.876  16.930  0.00  0.00    +0.000 A 
ATOM     10  C   UNK A   1       6.681   5.459  18.232  0.00  0.00    +0.000 A 
ATOM     11  N   UNK A   1       5.636   4.702  18.680  0.00  0.00    +0.000 NA
BRANCH   8  12
ATOM     12  O   UNK A   1       5.821   5.848  14.793  0.00  0.00    +0.000 OA
ATOM     13  H   UNK A   1       6.267   6.713  14.831  0.00  0.00    +0.000 HD
ENDBRANCH   8  12
BRANCH   9  14
ATOM     14  O   UNK A   1       7.839   6.638  16.458  0.00  0.00    +0.000 OA
ATOM     15  H   UNK A   1       8.577   6.567  17.097  0.00  0.00    +0.000 HD
ENDBRANCH   9  14
BRANCH  10  16
ATOM     16  C   UNK A   1       7.667   5.805  19.309  0.00  0.00    +0.000 C 
ATOM     17  O   UNK A   1       7.867   5.197  20.345  0.00  0.00    +0.000 OA
BRANCH  16  18
ATOM     18  O   UNK A   1       8.335   6.942  18.982  0.00  0.00    +0.000 OA
ATOM     19  H   UNK A   1       8.396   7.018  18.003  0.00  0.00    +0.000 HD
ENDBRANCH  16  18
ENDBRANCH  10  16
ENDBRANCH   5   6
BRANCH   1  22
ATOM     20  O   UNK A   0       2.508   5.945  20.777  0.00  0.00    +0.000 OA
ATOM     21  C   UNK A   0       2.102   6.264  19.667  0.00  0.00    +0.000 C 
ATOM     22  N   UNK A   0       1.975   5.435  18.570  0.00  0.00    +0.000 N 
ATOM     23  H   UNK A   0       2.085   5.874  17.661  0.00  0.00    +0.000 HD
BRANCH  21  24
ATOM     24  C   UNK A   0       1.815   7.691  19.368  0.00  0.00    +0.000 A 
ATOM     25  C   UNK A   0       2.163   8.216  18.119  0.00  0.00    +0.000 A 
ATOM     26  C   UNK A   0       1.897   9.556  17.834  0.00  0.00    +0.000 A 
ATOM     27  C   UNK A   0       1.296  10.370  18.796  0.00  0.00    +0.000 A 
ATOM     28  C   UNK A   0       0.955   9.848  20.044  0.00  0.00    +0.000 A 
ATOM     29  C   UNK A   0       1.211   8.507  20.332  0.00  0.00    +0.000 A 
ENDBRANCH  21  24
ENDBRANCH   1  22
TORSDOF 7
ENDMDL
MODEL 2
REMARK VINA RESULT:      -8.2      0.440      1.240
REMARK  Name = 
REMARK  7 active torsions:
REMARK  status: ('A' for Active; 'I' for Inactive)
REMARK    1  A    between atoms: C_2  and  C_20
REMARK    2  A    between atoms: N_3  and  C_4
REMARK    3  A    between atoms: C_8  and  C_9
REMARK    4  A    between atoms: C_11  and  O_12
REMARK    5  A    between atoms: C_13  and  O_14
REMARK    6  A    between atoms: C_15  and  C_16
REMARK    7  A    between atoms: C_16  and  O_18
REMARK                            x       y       z     vdW  Elec       q    Type
REMARK                         _______ _______ _______ _____ _____    ______ ____
ROOT
ATOM      1  C   UNK A   0       2.262   3.989  18.725  0.00  0.00    +0.000 A 
ATOM      2  C   UNK A   0       1.396   3.020  19.313  0.00  0.00    +0.000 A 
ATOM      3  C   UNK A   0       1.912   1.748  19.239  0.00  0.00    +0.000 A 
ATOM      4  S   UNK A   0       3.444   1.724  18.489  0.00  0.00    +0.000 S 
ATOM      5  C   UNK A   0       3.435   3.429  18.233  0.00  0.00    +0.000 A 
ENDROOT
BRANCH   5   6
ATOM      6  C   UNK A   0       4.601   4.102  17.641  0.00  0.00    +0.000 A 
ATOM      7  N   UNK A   1       4.672   4.111  16.293  0.00  0.00    +0.000 NA
ATOM      8  C   UNK A   1       5.708   4.788  15.785  0.00  0.00    +0.000 A 
ATOM      9  C   UNK A   1       6.680   5.441  16.503  0.00  0.00    +0.000 A 
ATOM     10  C   UNK A   1       6.508   5.365  17.865  0.00  0.00    +0.000 A 
ATOM     11  N   UNK A   1       5.475   4.702  18.465  0.00  0.00    +0.000 NA
BRANCH   8  12
ATOM     12  O   UNK A   1       5.759   4.822  14.421  0.00  0.00    +0.000 OA
ATOM     13  H   UNK A   1       5.035   4.224  14.166  0.00  0.00    +0.000 HD
ENDBRANCH   8  12
BRANCH   9  14
ATOM     14  O   UNK A   1       7.686   6.101  15.877  0.00  0.00    +0.000 OA
ATOM     15  H   UNK A   1       8.480   6.028  16.444  0.00  0.00    +0.000 HD
ENDBRANCH   9  14
BRANCH  10  16
ATOM     16  C   UNK A   1       7.441   6.019  18.841  0.00  0.00    +0.000 C 
ATOM     17  O   UNK A   1       8.173   6.969  18.633  0.00  0.00    +0.000 OA
BRANCH  16  18
ATOM     18  O   UNK A   1       7.378   5.387  20.042  0.00  0.00    +0.000 OA
ATOM     19  H   UNK A   1       8.114   4.737  20.111  0.00  0.00    +0.000 HD
ENDBRANCH  16  18
ENDBRANCH  10  16
ENDBRANCH   5   6
BRANCH   1  22
ATOM     20  O   UNK A   0       2.397   5.896  20.857  0.00  0.00    +0.000 OA
ATOM     21  C   UNK A   0       2.084   6.203  19.714  0.00  0.00    +0.000 C 
ATOM     22  N   UNK A   0       2.001   5.352  18.630  0.00  0.00    +0.000 N 
ATOM     23  H   UNK A   0       2.192   5.765  17.721  0.00  0.00    +0.000 HD
BRANCH  21  24
ATOM     24  C   UNK A   0       1.877   7.633  19.364  0.00  0.00    +0.000 A 
ATOM     25  C   UNK A   0       1.278   8.489  20.294  0.00  0.00    +0.000 A 
ATOM     26  C   UNK A   0       1.079   9.831  19.969  0.00  0.00    +0.000 A 
ATOM     27  C   UNK A   0       1.469  10.314  18.718  0.00  0.00    +0.000 A 
ATOM     28  C   UNK A   0       2.061   9.458  17.788  0.00  0.00    +0.000 A 
ATOM     29  C   UNK A   0       2.268   8.116  18.109  0.00  0.00    +0.000 A 
ENDBRANCH  21  24
ENDBRANCH   1  22
TORSDOF 7
ENDMDL
MODEL 3
REMARK VINA RESULT:      -8.1      1.348      1.771
REMARK  Name = 
REMARK  7 active torsions:
REMARK  status: ('A' for Active; 'I' for Inactive)
REMARK    1  A    between atoms: C_2  and  C_20
REMARK    2  A    between atoms: N_3  and  C_4
REMARK    3  A    between atoms: C_8  and  C_9
REMARK    4  A    between atoms: C_11  and  O_12
REMARK    5  A    between atoms: C_13  and  O_14
REMARK    6  A    between atoms: C_15  and  C_16
REMARK    7  A    between atoms: C_16  and  O_18
REMARK                            x       y       z     vdW  Elec       q    Type
REMARK                         _______ _______ _______ _____ _____    ______ ____
ROOT
ATOM      1  C   UNK A   0       2.901   4.555  20.405  0.00  0.00    +0.000 A 
ATOM      2  C   UNK A   0       2.166   3.754  21.328  0.00  0.00    +0.000 A 
ATOM      3  C   UNK A   0       2.593   2.447  21.337  0.00  0.00    +0.000 A 
ATOM      4  S   UNK A   0       3.890   2.192  20.259  0.00  0.00    +0.000 S 
ATOM      5  C   UNK A   0       3.891   3.838  19.745  0.00  0.00    +0.000 A 
ENDROOT
BRANCH   5   6
ATOM      6  C   UNK A   0       4.903   4.323  18.793  0.00  0.00    +0.000 A 
ATOM      7  N   UNK A   1       4.674   4.067  17.487  0.00  0.00    +0.000 NA
ATOM      8  C   UNK A   1       5.577   4.578  16.644  0.00  0.00    +0.000 A 
ATOM      9  C   UNK A   1       6.689   5.307  16.990  0.00  0.00    +0.000 A 
ATOM     10  C   UNK A   1       6.822   5.505  18.344  0.00  0.00    +0.000 A 
ATOM     11  N   UNK A   1       5.942   5.025  19.273  0.00  0.00    +0.000 NA
BRANCH   8  12
ATOM     12  O   UNK A   1       5.326   4.346  15.321  0.00  0.00    +0.000 OA
ATOM     13  H   UNK A   1       4.367   4.502  15.257  0.00  0.00    +0.000 HD
ENDBRANCH   8  12
BRANCH   9  14
ATOM     14  O   UNK A   1       7.536   5.780  16.043  0.00  0.00    +0.000 OA
ATOM     15  H   UNK A   1       7.302   5.345  15.199  0.00  0.00    +0.000 HD
ENDBRANCH   9  14
BRANCH  10  16
ATOM     16  C   UNK A   1       7.953   6.286  18.946  0.00  0.00    +0.000 C 
ATOM     17  O   UNK A   1       8.368   7.372  18.585  0.00  0.00    +0.000 OA
BRANCH  16  18
ATOM     18  O   UNK A   1       8.493   5.599  19.986  0.00  0.00    +0.000 OA
ATOM     19  H   UNK A   1       9.463   5.505  19.850  0.00  0.00    +0.000 HD
ENDBRANCH  16  18
ENDBRANCH  10  16
ENDBRANCH   5   6
BRANCH   1  22
ATOM     20  O   UNK A   0       1.874   5.696  17.987  0.00  0.00    +0.000 OA
ATOM     21  C   UNK A   0       2.189   6.374  18.956  0.00  0.00    +0.000 C 
ATOM     22  N   UNK A   0       2.683   5.907  20.158  0.00  0.00    +0.000 N 
ATOM     23  H   UNK A   0       2.466   6.465  20.979  0.00  0.00    +0.000 HD
BRANCH  21  24
ATOM     24  C   UNK A   0       1.927   7.837  18.950  0.00  0.00    +0.000 A 
ATOM     25  C   UNK A   0       1.361   8.440  20.079  0.00  0.00    +0.000 A 
ATOM     26  C   UNK A   0       1.112   9.813  20.077  0.00  0.00    +0.000 A 
ATOM     27  C   UNK A   0       1.417  10.578  18.950  0.00  0.00    +0.000 A 
ATOM     28  C   UNK A   0       1.977   9.976  17.822  0.00  0.00    +0.000 A 
ATOM     29  C   UNK A   0       2.235   8.605  17.820  0.00  0.00    +0.000 A 
ENDBRANCH  21  24
ENDBRANCH   1  22
TORSDOF 7
ENDMDL
MODEL 4
REMARK VINA RESULT:      -7.9      1.267      1.511
REMARK  Name = 
REMARK  7 active torsions:
REMARK  status: ('A' for Active; 'I' for Inactive)
REMARK    1  A    between atoms: C_2  and  C_20
REMARK    2  A    between atoms: N_3  and  C_4
REMARK    3  A    between atoms: C_8  and  C_9
REMARK    4  A    between atoms: C_11  and  O_12
REMARK    5  A    between atoms: C_13  and  O_14
REMARK    6  A    between atoms: C_15  and  C_16
REMARK    7  A    between atoms: C_16  and  O_18
REMARK                            x       y       z     vdW  Elec       q    Type
REMARK                         _______ _______ _______ _____ _____    ______ ____
ROOT
ATOM      1  C   UNK A   0       3.144   4.541  19.710  0.00  0.00    +0.000 A 
ATOM      2  C   UNK A   0       2.491   3.787  20.730  0.00  0.00    +0.000 A 
ATOM      3  C   UNK A   0       3.058   2.547  20.905  0.00  0.00    +0.000 A 
ATOM      4  S   UNK A   0       4.388   2.301  19.865  0.00  0.00    +0.000 S 
ATOM      5  C   UNK A   0       4.215   3.858  19.145  0.00  0.00    +0.000 A 
ENDROOT
BRANCH   5   6
ATOM      6  C   UNK A   0       5.179   4.327  18.137  0.00  0.00    +0.000 A 
ATOM      7  N   UNK A   1       5.197   3.658  16.964  0.00  0.00    +0.000 NA
ATOM      8  C   UNK A   1       6.036   4.149  16.046  0.00  0.00    +0.000 A 
ATOM      9  C   UNK A   1       6.862   5.236  16.201  0.00  0.00    +0.000 A 
ATOM     10  C   UNK A   1       6.761   5.838  17.433  0.00  0.00    +0.000 A 
ATOM     11  N   UNK A   1       5.925   5.406  18.423  0.00  0.00    +0.000 NA
BRANCH   8  12
ATOM     12  O   UNK A   1       6.030   3.491  14.849  0.00  0.00    +0.000 OA
ATOM     13  H   UNK A   1       6.857   2.977  14.886  0.00  0.00    +0.000 HD
ENDBRANCH   8  12
BRANCH   9  14
ATOM     14  O   UNK A   1       7.671   5.648  15.193  0.00  0.00    +0.000 OA
ATOM     15  H   UNK A   1       7.823   4.878  14.608  0.00  0.00    +0.000 HD
ENDBRANCH   9  14
BRANCH  10  16
ATOM     16  C   UNK A   1       7.557   7.050  17.815  0.00  0.00    +0.000 C 
ATOM     17  O   UNK A   1       7.624   8.105  17.211  0.00  0.00    +0.000 OA
BRANCH  16  18
ATOM     18  O   UNK A   1       8.239   6.817  18.967  0.00  0.00    +0.000 OA
ATOM     19  H   UNK A   1       9.076   7.336  18.965  0.00  0.00    +0.000 HD
ENDBRANCH  16  18
ENDBRANCH  10  16
ENDBRANCH   5   6
BRANCH   1  22
ATOM     20  O   UNK A   0       1.472   6.380  21.132  0.00  0.00    +0.000 OA
ATOM     21  C   UNK A   0       1.964   6.640  20.041  0.00  0.00    +0.000 C 
ATOM     22  N   UNK A   0       2.783   5.818  19.293  0.00  0.00    +0.000 N 
ATOM     23  H   UNK A   0       3.460   6.283  18.696  0.00  0.00    +0.000 HD
BRANCH  21  24
ATOM     24  C   UNK A   0       1.801   8.000  19.464  0.00  0.00    +0.000 A 
ATOM     25  C   UNK A   0       2.344   8.283  18.206  0.00  0.00    +0.000 A 
ATOM     26  C   UNK A   0       2.196   9.559  17.660  0.00  0.00    +0.000 A 
ATOM     27  C   UNK A   0       1.518  10.550  18.372  0.00  0.00    +0.000 A 
ATOM     28  C   UNK A   0       0.981  10.269  19.630  0.00  0.00    +0.000 A 
ATOM     29  C   UNK A   0       1.120   8.994  20.177  0.00  0.00    +0.000 A 
ENDBRANCH  21  24
ENDBRANCH   1  22
TORSDOF 7
ENDMDL
MODEL 5
REMARK VINA RESULT:      -7.8      0.793      2.576
REMARK  Name = 
REMARK  7 active torsions:
REMARK  status: ('A' for Active; 'I' for Inactive)
REMARK    1  A    between atoms: C_2  and  C_20
REMARK    2  A    between atoms: N_3  and  C_4
REMARK    3  A    between atoms: C_8  and  C_9
REMARK    4  A    between atoms: C_11  and  O_12
REMARK    5  A    between atoms: C_13  and  O_14
REMARK    6  A    between atoms: C_15  and  C_16
REMARK    7  A    between atoms: C_16  and  O_18
REMARK                            x       y       z     vdW  Elec       q    Type
REMARK                         _______ _______ _______ _____ _____    ______ ____
ROOT
ATOM      1  C   UNK A   0       2.064   3.929  18.625  0.00  0.00    +0.000 A 
ATOM      2  C   UNK A   0       1.093   2.932  18.937  0.00  0.00    +0.000 A 
ATOM      3  C   UNK A   0       1.614   1.661  18.873  0.00  0.00    +0.000 A 
ATOM      4  S   UNK A   0       3.271   1.670  18.466  0.00  0.00    +0.000 S 
ATOM      5  C   UNK A   0       3.315   3.390  18.350  0.00  0.00    +0.000 A 
ENDROOT
BRANCH   5   6
ATOM      6  C   UNK A   0       4.580   4.088  18.074  0.00  0.00    +0.000 A 
ATOM      7  N   UNK A   1       5.255   4.559  19.145  0.00  0.00    +0.000 NA
ATOM      8  C   UNK A   1       6.432   5.129  18.866  0.00  0.00    +0.000 A 
ATOM      9  C   UNK A   1       6.984   5.280  17.617  0.00  0.00    +0.000 A 
ATOM     10  C   UNK A   1       6.210   4.767  16.603  0.00  0.00    +0.000 A 
ATOM     11  N   UNK A   1       5.001   4.162  16.801  0.00  0.00    +0.000 NA
BRANCH   8  12
ATOM     12  O   UNK A   1       7.128   5.575  19.953  0.00  0.00    +0.000 OA
ATOM     13  H   UNK A   1       7.337   4.749  20.425  0.00  0.00    +0.000 HD
ENDBRANCH   8  12
BRANCH   9  14
ATOM     14  O   UNK A   1       8.193   5.874  17.455  0.00  0.00    +0.000 OA
ATOM     15  H   UNK A   1       8.212   6.659  18.038  0.00  0.00    +0.000 HD
ENDBRANCH   9  14
BRANCH  10  16
ATOM     16  C   UNK A   1       6.625   4.807  15.162  0.00  0.00    +0.000 C 
ATOM     17  O   UNK A   1       7.581   5.393  14.689  0.00  0.00    +0.000 OA
BRANCH  16  18
ATOM     18  O   UNK A   1       5.756   4.086  14.406  0.00  0.00    +0.000 OA
ATOM     19  H   UNK A   1       6.038   4.114  13.463  0.00  0.00    +0.000 HD
ENDBRANCH  16  18
ENDBRANCH  10  16
ENDBRANCH   5   6
BRANCH   1  22
ATOM     20  O   UNK A   0       2.413   5.775  20.786  0.00  0.00    +0.000 OA
ATOM     21  C   UNK A   0       2.018   6.119  19.680  0.00  0.00    +0.000 C 
ATOM     22  N   UNK A   0       1.828   5.300  18.585  0.00  0.00    +0.000 N 
ATOM     23  H   UNK A   0       1.955   5.732  17.674  0.00  0.00    +0.000 HD
BRANCH  21  24
ATOM     24  C   UNK A   0       1.817   7.562  19.384  0.00  0.00    +0.000 A 
ATOM     25  C   UNK A   0       1.266   8.395  20.363  0.00  0.00    +0.000 A 
ATOM     26  C   UNK A   0       1.073   9.750  20.088  0.00  0.00    +0.000 A 
ATOM     27  C   UNK A   0       1.420  10.267  18.839  0.00  0.00    +0.000 A 
ATOM     28  C   UNK A   0       1.964   9.434  17.860  0.00  0.00    +0.000 A 
ATOM     29  C   UNK A   0       2.166   8.081  18.130  0.00  0.00    +0.000 A 
ENDBRANCH  21  24
ENDBRANCH   1  22
TORSDOF 7
ENDMDL
MODEL 6
REMARK VINA RESULT:      -7.7      1.358      2.649
REMARK  Name = 
REMARK  7 active torsions:
REMARK  status: ('A' for Active; 'I' for Inactive)
REMARK    1  A    between atoms: C_2  and  C_20
REMARK    2  A    between atoms: N_3  and  C_4
REMARK    3  A    between atoms: C_8  and  C_9
REMARK    4  A    between atoms: C_11  and  O_12
REMARK    5  A    between atoms: C_13  and  O_14
REMARK    6  A    between atoms: C_15  and  C_16
REMARK    7  A    between atoms: C_16  and  O_18
REMARK                            x       y       z     vdW  Elec       q    Type
REMARK                         _______ _______ _______ _____ _____    ______ ____
ROOT
ATOM      1  C   UNK A   0       2.988   4.702  20.410  0.00  0.00    +0.000 A 
ATOM      2  C   UNK A   0       2.301   3.734  21.201  0.00  0.00    +0.000 A 
ATOM      3  C   UNK A   0       2.851   2.479  21.080  0.00  0.00    +0.000 A 
ATOM      4  S   UNK A   0       4.205   2.473  20.041  0.00  0.00    +0.000 S 
ATOM      5  C   UNK A   0       4.065   4.161  19.719  0.00  0.00    +0.000 A 
ENDROOT
BRANCH   5   6
ATOM      6  C   UNK A   0       5.058   4.845  18.877  0.00  0.00    +0.000 A 
ATOM      7  N   UNK A   1       6.175   5.283  19.497  0.00  0.00    +0.000 NA
ATOM      8  C   UNK A   1       7.087   5.840  18.693  0.00  0.00    +0.000 A 
ATOM      9  C   UNK A   1       6.976   6.009  17.334  0.00  0.00    +0.000 A 
ATOM     10  C   UNK A   1       5.799   5.529  16.811  0.00  0.00    +0.000 A 
ATOM     11  N   UNK A   1       4.819   4.939  17.558  0.00  0.00    +0.000 NA
BRANCH   8  12
ATOM     12  O   UNK A   1       8.229   6.253  19.317  0.00  0.00    +0.000 OA
ATOM     13  H   UNK A   1       8.094   5.946  20.231  0.00  0.00    +0.000 HD
ENDBRANCH   8  12
BRANCH   9  14
ATOM     14  O   UNK A   1       7.972   6.587  16.618  0.00  0.00    +0.000 OA
ATOM     15  H   UNK A   1       7.631   6.736  15.713  0.00  0.00    +0.000 HD
ENDBRANCH   9  14
BRANCH  10  16
ATOM     16  C   UNK A   1       5.471   5.592  15.348  0.00  0.00    +0.000 C 
ATOM     17  O   UNK A   1       5.422   4.661  14.565  0.00  0.00    +0.000 OA
BRANCH  16  18
ATOM     18  O   UNK A   1       5.237   6.879  14.978  0.00  0.00    +0.000 OA
ATOM     19  H   UNK A   1       5.517   7.486  15.700  0.00  0.00    +0.000 HD
ENDBRANCH  16  18
ENDBRANCH  10  16
ENDBRANCH   5   6
BRANCH   1  22
ATOM     20  O   UNK A   0       1.896   6.011  18.109  0.00  0.00    +0.000 OA
ATOM     21  C   UNK A   0       2.132   6.601  19.155  0.00  0.00    +0.000 C 
ATOM     22  N   UNK A   0       2.650   6.048  20.310  0.00  0.00    +0.000 N 
ATOM     23  H   UNK A   0       2.370   6.488  21.181  0.00  0.00    +0.000 HD
BRANCH  21  24
ATOM     24  C   UNK A   0       1.737   8.026  19.305  0.00  0.00    +0.000 A 
ATOM     25  C   UNK A   0       1.852   8.890  18.211  0.00  0.00    +0.000 A 
ATOM     26  C   UNK A   0       1.484  10.230  18.348  0.00  0.00    +0.000 A 
ATOM     27  C   UNK A   0       1.013  10.705  19.573  0.00  0.00    +0.000 A 
ATOM     28  C   UNK A   0       0.904   9.843  20.666  0.00  0.00    +0.000 A 
ATOM     29  C   UNK A   0       1.264   8.502  20.534  0.00  0.00    +0.000 A 
ENDBRANCH  21  24
ENDBRANCH   1  22
TORSDOF 7
ENDMDL
MODEL 7
REMARK VINA RESULT:      -7.7      0.961      1.155
REMARK  Name = 
REMARK  7 active torsions:
REMARK  status: ('A' for Active; 'I' for Inactive)
REMARK    1  A    between atoms: C_2  and  C_20
REMARK    2  A    between atoms: N_3  and  C_4
REMARK    3  A    between atoms: C_8  and  C_9
REMARK    4  A    between atoms: C_11  and  O_12
REMARK    5  A    between atoms: C_13  and  O_14
REMARK    6  A    between atoms: C_15  and  C_16
REMARK    7  A    between atoms: C_16  and  O_18
REMARK                            x       y       z     vdW  Elec       q    Type
REMARK                         _______ _______ _______ _____ _____    ______ ____
ROOT
ATOM      1  C   UNK A   0       2.544   3.938  18.580  0.00  0.00    +0.000 A 
ATOM      2  C   UNK A   0       1.712   3.038  19.309  0.00  0.00    +0.000 A 
ATOM      3  C   UNK A   0       2.185   1.747  19.274  0.00  0.00    +0.000 A 
ATOM      4  S   UNK A   0       3.640   1.625  18.391  0.00  0.00    +0.000 S 
ATOM      5  C   UNK A   0       3.651   3.310  18.022  0.00  0.00    +0.000 A 
ENDROOT
BRANCH   5   6
ATOM      6  C   UNK A   0       4.774   3.905  17.282  0.00  0.00    +0.000 A 
ATOM      7  N   UNK A   1       4.993   3.432  16.036  0.00  0.00    +0.000 NA
ATOM      8  C   UNK A   1       5.978   4.040  15.366  0.00  0.00    +0.000 A 
ATOM      9  C   UNK A   1       6.766   5.064  15.833  0.00  0.00    +0.000 A 
ATOM     10  C   UNK A   1       6.456   5.463  17.111  0.00  0.00    +0.000 A 
ATOM     11  N   UNK A   1       5.461   4.902  17.863  0.00  0.00    +0.000 NA
BRANCH   8  12
ATOM     12  O   UNK A   1       6.177   3.582  14.095  0.00  0.00    +0.000 OA
ATOM     13  H   UNK A   1       5.994   4.371  13.554  0.00  0.00    +0.000 HD
ENDBRANCH   8  12
BRANCH   9  14
ATOM     14  O   UNK A   1       7.737   5.608  15.058  0.00  0.00    +0.000 OA
ATOM     15  H   UNK A   1       8.057   4.905  14.456  0.00  0.00    +0.000 HD
ENDBRANCH   9  14
BRANCH  10  16
ATOM     16  C   UNK A   1       7.176   6.575  17.815  0.00  0.00    +0.000 C 
ATOM     17  O   UNK A   1       7.792   6.503  18.863  0.00  0.00    +0.000 OA
BRANCH  16  18
ATOM     18  O   UNK A   1       7.044   7.733  17.116  0.00  0.00    +0.000 OA
ATOM     19  H   UNK A   1       7.024   8.493  17.741  0.00  0.00    +0.000 HD
ENDBRANCH  16  18
ENDBRANCH  10  16
ENDBRANCH   5   6
BRANCH   1  22
ATOM     20  O   UNK A   0       2.286   5.878  20.670  0.00  0.00    +0.000 OA
ATOM     21  C   UNK A   0       2.193   6.167  19.485  0.00  0.00    +0.000 C 
ATOM     22  N   UNK A   0       2.311   5.300  18.417  0.00  0.00    +0.000 N 
ATOM     23  H   UNK A   0       2.670   5.698  17.554  0.00  0.00    +0.000 HD
BRANCH  21  24
ATOM     24  C   UNK A   0       2.061   7.592  19.080  0.00  0.00    +0.000 A 
ATOM     25  C   UNK A   0       2.641   8.024  17.883  0.00  0.00    +0.000 A 
ATOM     26  C   UNK A   0       2.521   9.360  17.500  0.00  0.00    +0.000 A 
ATOM     27  C   UNK A   0       1.834  10.263  18.314  0.00  0.00    +0.000 A 
ATOM     28  C   UNK A   0       1.261   9.833  19.512  0.00  0.00    +0.000 A 
ATOM     29  C   UNK A   0       1.371   8.497  19.896  0.00  0.00    +0.000 A 
ENDBRANCH  21  24
ENDBRANCH   1  22
TORSDOF 7
ENDMDL
MODEL 8
REMARK VINA RESULT:      -7.6      1.372      2.869
REMARK  Name = 
REMARK  7 active torsions:
REMARK  status: ('A' for Active; 'I' for Inactive)
REMARK    1  A    between atoms: C_2  and  C_20
REMARK    2  A    between atoms: N_3  and  C_4
REMARK    3  A    between atoms: C_8  and  C_9
REMARK    4  A    between atoms: C_11  and  O_12
REMARK    5  A    between atoms: C_13  and  O_14
REMARK    6  A    between atoms: C_15  and  C_16
REMARK    7  A    between atoms: C_16  and  O_18
REMARK                            x       y       z     vdW  Elec       q    Type
REMARK                         _______ _______ _______ _____ _____    ______ ____
ROOT
ATOM      1  C   UNK A   0       2.958   4.704  20.448  0.00  0.00    +0.000 A 
ATOM      2  C   UNK A   0       2.266   3.717  21.209  0.00  0.00    +0.000 A 
ATOM      3  C   UNK A   0       2.819   2.466  21.066  0.00  0.00    +0.000 A 
ATOM      4  S   UNK A   0       4.183   2.486  20.040  0.00  0.00    +0.000 S 
ATOM      5  C   UNK A   0       4.043   4.181  19.756  0.00  0.00    +0.000 A 
ENDROOT
BRANCH   5   6
ATOM      6  C   UNK A   0       5.044   4.886  18.940  0.00  0.00    +0.000 A 
ATOM      7  N   UNK A   1       6.183   5.252  19.566  0.00  0.00    +0.000 NA
ATOM      8  C   UNK A   1       7.099   5.830  18.782  0.00  0.00    +0.000 A 
ATOM      9  C   UNK A   1       6.972   6.086  17.438  0.00  0.00    +0.000 A 
ATOM     10  C   UNK A   1       5.773   5.673  16.907  0.00  0.00    +0.000 A 
ATOM     11  N   UNK A   1       4.787   5.067  17.634  0.00  0.00    +0.000 NA
BRANCH   8  12
ATOM     12  O   UNK A   1       8.263   6.171  19.410  0.00  0.00    +0.000 OA
ATOM     13  H   UNK A   1       8.932   5.690  18.891  0.00  0.00    +0.000 HD
ENDBRANCH   8  12
BRANCH   9  14
ATOM     14  O   UNK A   1       7.973   6.677  16.741  0.00  0.00    +0.000 OA
ATOM     15  H   UNK A   1       8.502   7.200  17.377  0.00  0.00    +0.000 HD
ENDBRANCH   9  14
BRANCH  10  16
ATOM     16  C   UNK A   1       5.425   5.836  15.456  0.00  0.00    +0.000 C 
ATOM     17  O   UNK A   1       5.221   6.879  14.863  0.00  0.00    +0.000 OA
BRANCH  16  18
ATOM     18  O   UNK A   1       5.348   4.620  14.855  0.00  0.00    +0.000 OA
ATOM     19  H   UNK A   1       6.160   4.465  14.321  0.00  0.00    +0.000 HD
ENDBRANCH  16  18
ENDBRANCH  10  16
ENDBRANCH   5   6
BRANCH   1  22
ATOM     20  O   UNK A   0       1.876   6.061  18.171  0.00  0.00    +0.000 OA
ATOM     21  C   UNK A   0       2.106   6.629  19.231  0.00  0.00    +0.000 C 
ATOM     22  N   UNK A   0       2.619   6.052  20.376  0.00  0.00    +0.000 N 
ATOM     23  H   UNK A   0       2.335   6.472  21.256  0.00  0.00    +0.000 HD
BRANCH  21  24
ATOM     24  C   UNK A   0       1.708   8.050  19.410  0.00  0.00    +0.000 A 
ATOM     25  C   UNK A   0       1.259   8.486  20.661  0.00  0.00    +0.000 A 
ATOM     26  C   UNK A   0       0.882   9.818  20.833  0.00  0.00    +0.000 A 
ATOM     27  C   UNK A   0       0.944  10.708  19.759  0.00  0.00    +0.000 A 
ATOM     28  C   UNK A   0       1.387  10.271  18.510  0.00  0.00    +0.000 A 
ATOM     29  C   UNK A   0       1.772   8.942  18.333  0.00  0.00    +0.000 A 
ENDBRANCH  21  24
ENDBRANCH   1  22
TORSDOF 7
ENDMDL
MODEL 9
REMARK VINA RESULT:      -7.6      0.730      2.328
REMARK  Name = 
REMARK  7 active torsions:
REMARK  status: ('A' for Active; 'I' for Inactive)
REMARK    1  A    between atoms: C_2  and  C_20
REMARK    2  A    between atoms: N_3  and  C_4
REMARK    3  A    between atoms: C_8  and  C_9
REMARK    4  A    between atoms: C_11  and  O_12
REMARK    5  A    between atoms: C_13  and  O_14
REMARK    6  A    between atoms: C_15  and  C_16
REMARK    7  A    between atoms: C_16  and  O_18
REMARK                            x       y       z     vdW  Elec       q    Type
REMARK                         _______ _______ _______ _____ _____    ______ ____
ROOT
ATOM      1  C   UNK A   0       2.271   4.257  19.074  0.00  0.00    +0.000 A 
ATOM      2  C   UNK A   0       1.341   3.237  19.432  0.00  0.00    +0.000 A 
ATOM      3  C   UNK A   0       1.931   1.997  19.504  0.00  0.00    +0.000 A 
ATOM      4  S   UNK A   0       3.602   2.065  19.167  0.00  0.00    +0.000 S 
ATOM      5  C   UNK A   0       3.560   3.768  18.900  0.00  0.00    +0.000 A 
ENDROOT
BRANCH   5   6
ATOM      6  C   UNK A   0       4.798   4.511  18.616  0.00  0.00    +0.000 A 
ATOM      7  N   UNK A   1       5.627   4.723  19.661  0.00  0.00    +0.000 NA
ATOM      8  C   UNK A   1       6.773   5.341  19.356  0.00  0.00    +0.000 A 
ATOM      9  C   UNK A   1       7.155   5.775  18.110  0.00  0.00    +0.000 A 
ATOM     10  C   UNK A   1       6.234   5.508  17.125  0.00  0.00    +0.000 A 
ATOM     11  N   UNK A   1       5.044   4.874  17.347  0.00  0.00    +0.000 NA
BRANCH   8  12
ATOM     12  O   UNK A   1       7.624   5.526  20.409  0.00  0.00    +0.000 OA
ATOM     13  H   UNK A   1       8.452   5.789  19.968  0.00  0.00    +0.000 HD
ENDBRANCH   8  12
BRANCH   9  14
ATOM     14  O   UNK A   1       8.348   6.390  17.920  0.00  0.00    +0.000 OA
ATOM     15  H   UNK A   1       8.439   7.072  18.615  0.00  0.00    +0.000 HD
ENDBRANCH   9  14
BRANCH  10  16
ATOM     16  C   UNK A   1       6.450   5.878  15.687  0.00  0.00    +0.000 C 
ATOM     17  O   UNK A   1       7.448   5.679  15.019  0.00  0.00    +0.000 OA
BRANCH  16  18
ATOM     18  O   UNK A   1       5.348   6.502  15.195  0.00  0.00    +0.000 OA
ATOM     19  H   UNK A   1       4.548   5.966  15.396  0.00  0.00    +0.000 HD
ENDBRANCH  16  18
ENDBRANCH  10  16
ENDBRANCH   5   6
BRANCH   1  22
ATOM     20  O   UNK A   0       2.203   6.256  21.122  0.00  0.00    +0.000 OA
ATOM     21  C   UNK A   0       1.950   6.502  19.950  0.00  0.00    +0.000 C 
ATOM     22  N   UNK A   0       1.965   5.603  18.902  0.00  0.00    +0.000 N 
ATOM     23  H   UNK A   0       2.195   5.984  17.989  0.00  0.00    +0.000 HD
BRANCH  21  24
ATOM     24  C   UNK A   0       1.710   7.906  19.525  0.00  0.00    +0.000 A 
ATOM     25  C   UNK A   0       2.120   8.319  18.253  0.00  0.00    +0.000 A 
ATOM     26  C   UNK A   0       1.900   9.636  17.850  0.00  0.00    +0.000 A 
ATOM     27  C   UNK A   0       1.282  10.539  18.717  0.00  0.00    +0.000 A 
ATOM     28  C   UNK A   0       0.878  10.129  19.989  0.00  0.00    +0.000 A 
ATOM     29  C   UNK A   0       1.089   8.811  20.394  0.00  0.00    +0.000 A 
ENDBRANCH  21  24
ENDBRANCH   1  22
TORSDOF 7
ENDMDL
