MODEL 1
REMARK VINA RESULT:      -7.6      0.000      0.000
REMARK  Name = 
REMARK  10 active torsions:
REMARK  status: ('A' for Active; 'I' for Inactive)
REMARK    1  A    between atoms: C_1  and  C_2
REMARK    2  A    between atoms: C_2  and  C_3
REMARK    3  A    between atoms: C_3  and  C_4
REMARK    4  A    between atoms: C_4  and  C_5
REMARK    5  A    between atoms: C_5  and  C_6
REMARK    6  A    between atoms: C_6  and  C_7
REMARK    7  A    between atoms: C_7  and  C_8
REMARK    8  A    between atoms: C_11  and  C_12
REMARK    9  A    between atoms: C_13  and  C_14
REMARK   10  A    between atoms: C_16  and  C_17
REMARK                            x       y       z     vdW  Elec       q    Type
REMARK                         _______ _______ _______ _____ _____    ______ ____
ROOT
ATOM      1  C   UNL     1       6.443   4.754  14.542  0.00  0.00    +0.000 A 
ATOM      2  C   UNL     1       5.580   5.769  14.937  0.00  0.00    +0.000 A 
ATOM      3  C   UNL     1       4.775   5.568  16.052  0.00  0.00    +0.000 A 
ATOM      4  C   UNL     1       4.847   4.354  16.738  0.00  0.00    +0.000 A 
ATOM      5  C   UNL     1       5.723   3.388  16.260  0.00  0.00    +0.000 A 
ATOM      6  N   UNL     1       6.535   3.570  15.197  0.00  0.00    +0.000 NA
ENDROOT
BRANCH   4   7
ATOM      7  C   UNL     1       4.067   4.122  17.952  0.00  0.00    +0.000 A 
ATOM      8  C   UNL     1       4.502   4.502  19.175  0.00  0.00    +0.000 A 
ATOM      9  C   UNL     1       5.805   5.230  19.422  0.00  0.00    +0.000 C 
ATOM     10  N   UNL     1       3.751   4.240  20.304  0.00  0.00    +0.000 N 
ATOM     11  C   UNL     1       2.534   3.586  20.284  0.00  0.00    +0.000 A 
ATOM     12  C   UNL     1       1.859   3.361  21.611  0.00  0.00    +0.000 C 
ATOM     13  C   UNL     1       1.989   3.173  19.123  0.00  0.00    +0.000 A 
ATOM     14 CL   UNL     1       0.470   2.367  19.009  0.00  0.00    +0.000 Cl
ATOM     15  C   UNL     1       2.737   3.424  17.851  0.00  0.00    +0.000 A 
ATOM     16  O   UNL     1       2.293   3.079  16.758  0.00  0.00    +0.000 OA
ATOM     17  H   UNL     1       4.127   4.531  21.205  0.00  0.00    +0.000 HD
ENDBRANCH   4   7
BRANCH   1  18
ATOM     18  C   UNL     1       7.329   4.926  13.339  0.00  0.00    +0.000 C 
BRANCH  18  19
ATOM     19  C   UNL     1       6.866   4.018  12.202  0.00  0.00    +0.000 C 
BRANCH  19  20
ATOM     20  C   UNL     1       5.378   3.716  12.318  0.00  0.00    +0.000 C 
BRANCH  20  21
ATOM     21  C   UNL     1       5.009   2.504  11.468  0.00  0.00    +0.000 C 
BRANCH  21  22
ATOM     22  C   UNL     1       3.665   2.721  10.783  0.00  0.00    +0.000 C 
BRANCH  22  24
ATOM     23  C   UNL     1       2.726   4.395   9.170  0.00  0.00    +0.000 C 
ATOM     24  C   UNL     1       3.419   4.200  10.508  0.00  0.00    +0.000 C 
ENDBRANCH  22  24
ENDBRANCH  21  22
ENDBRANCH  20  21
ENDBRANCH  19  20
ENDBRANCH  18  19
ENDBRANCH   1  18
TORSDOF 7
ENDMDL
MODEL 2
REMARK VINA RESULT:      -7.5      3.359      3.586
REMARK  Name = 
REMARK  10 active torsions:
REMARK  status: ('A' for Active; 'I' for Inactive)
REMARK    1  A    between atoms: C_1  and  C_2
REMARK    2  A    between atoms: C_2  and  C_3
REMARK    3  A    between atoms: C_3  and  C_4
REMARK    4  A    between atoms: C_4  and  C_5
REMARK    5  A    between atoms: C_5  and  C_6
REMARK    6  A    between atoms: C_6  and  C_7
REMARK    7  A    between atoms: C_7  and  C_8
REMARK    8  A    between atoms: C_11  and  C_12
REMARK    9  A    between atoms: C_13  and  C_14
REMARK   10  A    between atoms: C_16  and  C_17
REMARK                            x       y       z     vdW  Elec       q    Type
REMARK                         _______ _______ _______ _____ _____    ______ ____
ROOT
ATOM      1  C   UNL     1       5.107   4.804  15.887  0.00  0.00    +0.000 A 
ATOM      2  C   UNL     1       5.459   6.117  16.178  0.00  0.00    +0.000 A 
ATOM      3  C   UNL     1       4.691   6.831  17.090  0.00  0.00    +0.000 A 
ATOM      4  C   UNL     1       3.586   6.217  17.682  0.00  0.00    +0.000 A 
ATOM      5  C   UNL     1       3.295   4.908  17.317  0.00  0.00    +0.000 A 
ATOM      6  N   UNL     1       4.041   4.186  16.456  0.00  0.00    +0.000 NA
ENDROOT
BRANCH   4   7
ATOM      7  C   UNL     1       2.788   6.907  18.694  0.00  0.00    +0.000 A 
ATOM      8  C   UNL     1       2.511   6.355  19.897  0.00  0.00    +0.000 A 
ATOM      9  C   UNL     1       3.014   5.000  20.343  0.00  0.00    +0.000 C 
ATOM     10  N   UNL     1       1.729   7.024  20.817  0.00  0.00    +0.000 N 
ATOM     11  C   UNL     1       1.177   8.271  20.596  0.00  0.00    +0.000 A 
ATOM     12  C   UNL     1       0.328   8.847  21.699  0.00  0.00    +0.000 C 
ATOM     13  C   UNL     1       1.396   8.930  19.441  0.00  0.00    +0.000 A 
ATOM     14 CL   UNL     1       0.759  10.493  19.093  0.00  0.00    +0.000 Cl
ATOM     15  C   UNL     1       2.239   8.276  18.392  0.00  0.00    +0.000 A 
ATOM     16  O   UNL     1       2.482   8.825  17.319  0.00  0.00    +0.000 OA
ATOM     17  H   UNL     1       1.534   6.561  21.704  0.00  0.00    +0.000 HD
ENDBRANCH   4   7
BRANCH   1  18
ATOM     18  C   UNL     1       5.905   3.995  14.903  0.00  0.00    +0.000 C 
BRANCH  18  19
ATOM     19  C   UNL     1       5.348   4.170  13.492  0.00  0.00    +0.000 C 
BRANCH  19  20
ATOM     20  C   UNL     1       6.109   3.307  12.496  0.00  0.00    +0.000 C 
BRANCH  20  21
ATOM     21  C   UNL     1       5.144   2.615  11.539  0.00  0.00    +0.000 C 
BRANCH  21  22
ATOM     22  C   UNL     1       3.907   3.476  11.312  0.00  0.00    +0.000 C 
BRANCH  22  24
ATOM     23  C   UNL     1       2.564   4.551   9.488  0.00  0.00    +0.000 C 
ATOM     24  C   UNL     1       3.398   3.344   9.880  0.00  0.00    +0.000 C 
ENDBRANCH  22  24
ENDBRANCH  21  22
ENDBRANCH  20  21
ENDBRANCH  19  20
ENDBRANCH  18  19
ENDBRANCH   1  18
TORSDOF 7
ENDMDL
MODEL 3
REMARK VINA RESULT:      -7.5      2.942      6.853
REMARK  Name = 
REMARK  10 active torsions:
REMARK  status: ('A' for Active; 'I' for Inactive)
REMARK    1  A    between atoms: C_1  and  C_2
REMARK    2  A    between atoms: C_2  and  C_3
REMARK    3  A    between atoms: C_3  and  C_4
REMARK    4  A    between atoms: C_4  and  C_5
REMARK    5  A    between atoms: C_5  and  C_6
REMARK    6  A    between atoms: C_6  and  C_7
REMARK    7  A    between atoms: C_7  and  C_8
REMARK    8  A    between atoms: C_11  and  C_12
REMARK    9  A    between atoms: C_13  and  C_14
REMARK   10  A    between atoms: C_16  and  C_17
REMARK                            x       y       z     vdW  Elec       q    Type
REMARK                         _______ _______ _______ _____ _____    ______ ____
ROOT
ATOM      1  C   UNL     1       3.292   5.056  19.789  0.00  0.00    +0.000 A 
ATOM      2  C   UNL     1       2.807   5.691  18.651  0.00  0.00    +0.000 A 
ATOM      3  C   UNL     1       3.619   5.759  17.524  0.00  0.00    +0.000 A 
ATOM      4  C   UNL     1       4.896   5.199  17.567  0.00  0.00    +0.000 A 
ATOM      5  C   UNL     1       5.306   4.602  18.752  0.00  0.00    +0.000 A 
ATOM      6  N   UNL     1       4.527   4.499  19.850  0.00  0.00    +0.000 NA
ENDROOT
BRANCH   4   7
ATOM      7  C   UNL     1       5.759   5.190  16.386  0.00  0.00    +0.000 A 
ATOM      8  C   UNL     1       6.880   5.942  16.305  0.00  0.00    +0.000 A 
ATOM      9  C   UNL     1       7.384   6.834  17.418  0.00  0.00    +0.000 C 
ATOM     10  N   UNL     1       7.656   5.931  15.163  0.00  0.00    +0.000 N 
ATOM     11  C   UNL     1       7.362   5.181  14.040  0.00  0.00    +0.000 A 
ATOM     12  C   UNL     1       8.303   5.306  12.871  0.00  0.00    +0.000 C 
ATOM     13  C   UNL     1       6.279   4.381  14.007  0.00  0.00    +0.000 A 
ATOM     14 CL   UNL     1       5.850   3.402  12.655  0.00  0.00    +0.000 Cl
ATOM     15  C   UNL     1       5.388   4.330  15.208  0.00  0.00    +0.000 A 
ATOM     16  O   UNL     1       4.388   3.615  15.246  0.00  0.00    +0.000 OA
ATOM     17  H   UNL     1       8.483   6.525  15.142  0.00  0.00    +0.000 HD
ENDBRANCH   4   7
BRANCH   1  18
ATOM     18  C   UNL     1       2.451   4.964  21.032  0.00  0.00    +0.000 C 
BRANCH  18  19
ATOM     19  C   UNL     1       1.153   4.213  20.743  0.00  0.00    +0.000 C 
BRANCH  19  20
ATOM     20  C   UNL     1       1.261   2.756  21.173  0.00  0.00    +0.000 C 
BRANCH  20  21
ATOM     21  C   UNL     1       1.643   1.876  19.988  0.00  0.00    +0.000 C 
BRANCH  21  22
ATOM     22  C   UNL     1       1.189   2.513  18.679  0.00  0.00    +0.000 C 
BRANCH  22  24
ATOM     23  C   UNL     1       3.482   1.662  18.127  0.00  0.00    +0.000 C 
ATOM     24  C   UNL     1       2.217   2.293  17.574  0.00  0.00    +0.000 C 
ENDBRANCH  22  24
ENDBRANCH  21  22
ENDBRANCH  20  21
ENDBRANCH  19  20
ENDBRANCH  18  19
ENDBRANCH   1  18
TORSDOF 7
ENDMDL
MODEL 4
REMARK VINA RESULT:      -7.3      3.008      7.027
REMARK  Name = 
REMARK  10 active torsions:
REMARK  status: ('A' for Active; 'I' for Inactive)
REMARK    1  A    between atoms: C_1  and  C_2
REMARK    2  A    between atoms: C_2  and  C_3
REMARK    3  A    between atoms: C_3  and  C_4
REMARK    4  A    between atoms: C_4  and  C_5
REMARK    5  A    between atoms: C_5  and  C_6
REMARK    6  A    between atoms: C_6  and  C_7
REMARK    7  A    between atoms: C_7  and  C_8
REMARK    8  A    between atoms: C_11  and  C_12
REMARK    9  A    between atoms: C_13  and  C_14
REMARK   10  A    between atoms: C_16  and  C_17
REMARK                            x       y       z     vdW  Elec       q    Type
REMARK                         _______ _______ _______ _____ _____    ______ ____
ROOT
ATOM      1  C   UNL     1       3.216   5.083  19.768  0.00  0.00    +0.000 A 
ATOM      2  C   UNL     1       4.372   4.312  19.816  0.00  0.00    +0.000 A 
ATOM      3  C   UNL     1       5.210   4.290  18.707  0.00  0.00    +0.000 A 
ATOM      4  C   UNL     1       4.868   5.034  17.577  0.00  0.00    +0.000 A 
ATOM      5  C   UNL     1       3.684   5.759  17.609  0.00  0.00    +0.000 A 
ATOM      6  N   UNL     1       2.868   5.818  18.682  0.00  0.00    +0.000 NA
ENDROOT
BRANCH   4   7
ATOM      7  C   UNL     1       5.751   5.092  16.413  0.00  0.00    +0.000 A 
ATOM      8  C   UNL     1       6.854   5.874  16.380  0.00  0.00    +0.000 A 
ATOM      9  C   UNL     1       7.316   6.736  17.535  0.00  0.00    +0.000 C 
ATOM     10  N   UNL     1       7.649   5.926  15.252  0.00  0.00    +0.000 N 
ATOM     11  C   UNL     1       7.393   5.212  14.097  0.00  0.00    +0.000 A 
ATOM     12  C   UNL     1       8.350   5.405  12.950  0.00  0.00    +0.000 C 
ATOM     13  C   UNL     1       6.332   4.386  14.014  0.00  0.00    +0.000 A 
ATOM     14 CL   UNL     1       5.953   3.449  12.619  0.00  0.00    +0.000 Cl
ATOM     15  C   UNL     1       5.423   4.267  15.197  0.00  0.00    +0.000 A 
ATOM     16  O   UNL     1       4.441   3.527  15.189  0.00  0.00    +0.000 OA
ATOM     17  H   UNL     1       8.461   6.541  15.269  0.00  0.00    +0.000 HD
ENDBRANCH   4   7
BRANCH   1  18
ATOM     18  C   UNL     1       2.277   5.132  20.941  0.00  0.00    +0.000 C 
BRANCH  18  19
ATOM     19  C   UNL     1       2.365   3.840  21.749  0.00  0.00    +0.000 C 
BRANCH  19  20
ATOM     20  C   UNL     1       1.358   2.815  21.246  0.00  0.00    +0.000 C 
BRANCH  20  21
ATOM     21  C   UNL     1       0.487   3.415  20.147  0.00  0.00    +0.000 C 
BRANCH  21  22
ATOM     22  C   UNL     1       0.584   2.583  18.873  0.00  0.00    +0.000 C 
BRANCH  22  24
ATOM     23  C   UNL     1       2.673   2.000  17.616  0.00  0.00    +0.000 C 
ATOM     24  C   UNL     1       1.851   1.734  18.865  0.00  0.00    +0.000 C 
ENDBRANCH  22  24
ENDBRANCH  21  22
ENDBRANCH  20  21
ENDBRANCH  19  20
ENDBRANCH  18  19
ENDBRANCH   1  18
TORSDOF 7
ENDMDL
MODEL 5
REMARK VINA RESULT:      -7.2      3.777      4.405
REMARK  Name = 
REMARK  10 active torsions:
REMARK  status: ('A' for Active; 'I' for Inactive)
REMARK    1  A    between atoms: C_1  and  C_2
REMARK    2  A    between atoms: C_2  and  C_3
REMARK    3  A    between atoms: C_3  and  C_4
REMARK    4  A    between atoms: C_4  and  C_5
REMARK    5  A    between atoms: C_5  and  C_6
REMARK    6  A    between atoms: C_6  and  C_7
REMARK    7  A    between atoms: C_7  and  C_8
REMARK    8  A    between atoms: C_11  and  C_12
REMARK    9  A    between atoms: C_13  and  C_14
REMARK   10  A    between atoms: C_16  and  C_17
REMARK                            x       y       z     vdW  Elec       q    Type
REMARK                         _______ _______ _______ _____ _____    ______ ____
ROOT
ATOM      1  C   UNL     1       4.649   4.559  16.828  0.00  0.00    +0.000 A 
ATOM      2  C   UNL     1       3.336   4.196  17.106  0.00  0.00    +0.000 A 
ATOM      3  C   UNL     1       2.553   5.050  17.874  0.00  0.00    +0.000 A 
ATOM      4  C   UNL     1       3.105   6.240  18.351  0.00  0.00    +0.000 A 
ATOM      5  C   UNL     1       4.432   6.512  18.041  0.00  0.00    +0.000 A 
ATOM      6  N   UNL     1       5.203   5.713  17.275  0.00  0.00    +0.000 NA
ENDROOT
BRANCH   4   7
ATOM      7  C   UNL     1       2.300   7.198  19.108  0.00  0.00    +0.000 A 
ATOM      8  C   UNL     1       1.815   6.921  20.339  0.00  0.00    +0.000 A 
ATOM      9  C   UNL     1       2.073   5.628  21.080  0.00  0.00    +0.000 C 
ATOM     10  N   UNL     1       1.034   7.840  21.013  0.00  0.00    +0.000 N 
ATOM     11  C   UNL     1       0.689   9.077  20.503  0.00  0.00    +0.000 A 
ATOM     12  C   UNL     1      -0.191   9.947  21.361  0.00  0.00    +0.000 C 
ATOM     13  C   UNL     1       1.125   9.472  19.291  0.00  0.00    +0.000 A 
ATOM     14 CL   UNL     1       0.755  11.003  18.591  0.00  0.00    +0.000 Cl
ATOM     15  C   UNL     1       1.983   8.538  18.498  0.00  0.00    +0.000 A 
ATOM     16  O   UNL     1       2.420   8.840  17.390  0.00  0.00    +0.000 OA
ATOM     17  H   UNL     1       0.678   7.580  21.931  0.00  0.00    +0.000 HD
ENDBRANCH   4   7
BRANCH   1  18
ATOM     18  C   UNL     1       5.534   3.663  16.006  0.00  0.00    +0.000 C 
BRANCH  18  19
ATOM     19  C   UNL     1       6.832   4.382  15.645  0.00  0.00    +0.000 C 
BRANCH  19  20
ATOM     20  C   UNL     1       6.942   4.584  14.140  0.00  0.00    +0.000 C 
BRANCH  20  21
ATOM     21  C   UNL     1       5.793   3.886  13.421  0.00  0.00    +0.000 C 
BRANCH  21  22
ATOM     22  C   UNL     1       6.256   3.342  12.074  0.00  0.00    +0.000 C 
BRANCH  22  24
ATOM     23  C   UNL     1       3.939   3.236  11.125  0.00  0.00    +0.000 C 
ATOM     24  C   UNL     1       5.194   2.446  11.447  0.00  0.00    +0.000 C 
ENDBRANCH  22  24
ENDBRANCH  21  22
ENDBRANCH  20  21
ENDBRANCH  19  20
ENDBRANCH  18  19
ENDBRANCH   1  18
TORSDOF 7
ENDMDL
MODEL 6
REMARK VINA RESULT:      -7.1      1.809      2.143
REMARK  Name = 
REMARK  10 active torsions:
REMARK  status: ('A' for Active; 'I' for Inactive)
REMARK    1  A    between atoms: C_1  and  C_2
REMARK    2  A    between atoms: C_2  and  C_3
REMARK    3  A    between atoms: C_3  and  C_4
REMARK    4  A    between atoms: C_4  and  C_5
REMARK    5  A    between atoms: C_5  and  C_6
REMARK    6  A    between atoms: C_6  and  C_7
REMARK    7  A    between atoms: C_7  and  C_8
REMARK    8  A    between atoms: C_11  and  C_12
REMARK    9  A    between atoms: C_13  and  C_14
REMARK   10  A    between atoms: C_16  and  C_17
REMARK                            x       y       z     vdW  Elec       q    Type
REMARK                         _______ _______ _______ _____ _____    ______ ____
ROOT
ATOM      1  C   UNL     1       6.720   4.618  14.474  0.00  0.00    +0.000 A 
ATOM      2  C   UNL     1       7.260   4.598  15.755  0.00  0.00    +0.000 A 
ATOM      3  C   UNL     1       6.399   4.565  16.845  0.00  0.00    +0.000 A 
ATOM      4  C   UNL     1       5.020   4.561  16.628  0.00  0.00    +0.000 A 
ATOM      5  C   UNL     1       4.568   4.603  15.315  0.00  0.00    +0.000 A 
ATOM      6  N   UNL     1       5.384   4.607  14.240  0.00  0.00    +0.000 NA
ENDROOT
BRANCH   4   7
ATOM      7  C   UNL     1       4.078   4.462  17.742  0.00  0.00    +0.000 A 
ATOM      8  C   UNL     1       3.635   3.274  18.212  0.00  0.00    +0.000 A 
ATOM      9  C   UNL     1       4.082   1.932  17.675  0.00  0.00    +0.000 C 
ATOM     10  N   UNL     1       2.723   3.220  19.246  0.00  0.00    +0.000 N 
ATOM     11  C   UNL     1       2.197   4.336  19.868  0.00  0.00    +0.000 A 
ATOM     12  C   UNL     1       1.193   4.097  20.964  0.00  0.00    +0.000 C 
ATOM     13  C   UNL     1       2.574   5.576  19.498  0.00  0.00    +0.000 A 
ATOM     14 CL   UNL     1       1.980   7.017  20.231  0.00  0.00    +0.000 Cl
ATOM     15  C   UNL     1       3.565   5.722  18.387  0.00  0.00    +0.000 A 
ATOM     16  O   UNL     1       3.955   6.824  18.006  0.00  0.00    +0.000 OA
ATOM     17  H   UNL     1       2.407   2.302  19.556  0.00  0.00    +0.000 HD
ENDBRANCH   4   7
BRANCH   1  18
ATOM     18  C   UNL     1       7.613   4.659  13.265  0.00  0.00    +0.000 C 
BRANCH  18  19
ATOM     19  C   UNL     1       6.830   4.279  12.011  0.00  0.00    +0.000 C 
BRANCH  19  20
ATOM     20  C   UNL     1       6.910   2.780  11.753  0.00  0.00    +0.000 C 
BRANCH  20  21
ATOM     21  C   UNL     1       5.544   2.233  11.353  0.00  0.00    +0.000 C 
BRANCH  21  22
ATOM     22  C   UNL     1       4.487   3.330  11.418  0.00  0.00    +0.000 C 
BRANCH  22  24
ATOM     23  C   UNL     1       2.938   4.270   9.687  0.00  0.00    +0.000 C 
ATOM     24  C   UNL     1       3.325   3.033  10.476  0.00  0.00    +0.000 C 
ENDBRANCH  22  24
ENDBRANCH  21  22
ENDBRANCH  20  21
ENDBRANCH  19  20
ENDBRANCH  18  19
ENDBRANCH   1  18
TORSDOF 7
ENDMDL
MODEL 7
REMARK VINA RESULT:      -7.0      3.752      4.319
REMARK  Name = 
REMARK  10 active torsions:
REMARK  status: ('A' for Active; 'I' for Inactive)
REMARK    1  A    between atoms: C_1  and  C_2
REMARK    2  A    between atoms: C_2  and  C_3
REMARK    3  A    between atoms: C_3  and  C_4
REMARK    4  A    between atoms: C_4  and  C_5
REMARK    5  A    between atoms: C_5  and  C_6
REMARK    6  A    between atoms: C_6  and  C_7
REMARK    7  A    between atoms: C_7  and  C_8
REMARK    8  A    between atoms: C_11  and  C_12
REMARK    9  A    between atoms: C_13  and  C_14
REMARK   10  A    between atoms: C_16  and  C_17
REMARK                            x       y       z     vdW  Elec       q    Type
REMARK                         _______ _______ _______ _____ _____    ______ ____
ROOT
ATOM      1  C   UNL     1       4.833   4.891  16.514  0.00  0.00    +0.000 A 
ATOM      2  C   UNL     1       5.241   6.197  16.759  0.00  0.00    +0.000 A 
ATOM      3  C   UNL     1       4.446   7.009  17.560  0.00  0.00    +0.000 A 
ATOM      4  C   UNL     1       3.260   6.497  18.088  0.00  0.00    +0.000 A 
ATOM      5  C   UNL     1       2.920   5.187  17.775  0.00  0.00    +0.000 A 
ATOM      6  N   UNL     1       3.688   4.371  17.023  0.00  0.00    +0.000 NA
ENDROOT
BRANCH   4   7
ATOM      7  C   UNL     1       2.426   7.293  18.987  0.00  0.00    +0.000 A 
ATOM      8  C   UNL     1       2.084   6.867  20.224  0.00  0.00    +0.000 A 
ATOM      9  C   UNL     1       2.545   5.558  20.826  0.00  0.00    +0.000 C 
ATOM     10  N   UNL     1       1.269   7.632  21.035  0.00  0.00    +0.000 N 
ATOM     11  C   UNL     1       0.747   8.857  20.664  0.00  0.00    +0.000 A 
ATOM     12  C   UNL     1      -0.144   9.549  21.662  0.00  0.00    +0.000 C 
ATOM     13  C   UNL     1       1.030   9.394  19.461  0.00  0.00    +0.000 A 
ATOM     14 CL   UNL     1       0.434  10.921  18.929  0.00  0.00    +0.000 Cl
ATOM     15  C   UNL     1       1.912   8.630  18.525  0.00  0.00    +0.000 A 
ATOM     16  O   UNL     1       2.213   9.067  17.416  0.00  0.00    +0.000 OA
ATOM     17  H   UNL     1       1.026   7.263  21.952  0.00  0.00    +0.000 HD
ENDBRANCH   4   7
BRANCH   1  18
ATOM     18  C   UNL     1       5.658   3.979  15.650  0.00  0.00    +0.000 C 
BRANCH  18  19
ATOM     19  C   UNL     1       5.446   4.307  14.174  0.00  0.00    +0.000 C 
BRANCH  19  20
ATOM     20  C   UNL     1       6.777   4.507  13.464  0.00  0.00    +0.000 C 
BRANCH  20  21
ATOM     21  C   UNL     1       6.843   3.658  12.199  0.00  0.00    +0.000 C 
BRANCH  21  22
ATOM     22  C   UNL     1       5.472   3.077  11.873  0.00  0.00    +0.000 C 
BRANCH  22  24
ATOM     23  C   UNL     1       7.047   1.321  11.023  0.00  0.00    +0.000 C 
ATOM     24  C   UNL     1       5.594   1.675  11.284  0.00  0.00    +0.000 C 
ENDBRANCH  22  24
ENDBRANCH  21  22
ENDBRANCH  20  21
ENDBRANCH  19  20
ENDBRANCH  18  19
ENDBRANCH   1  18
TORSDOF 7
ENDMDL
MODEL 8
REMARK VINA RESULT:      -7.0      3.326      3.881
REMARK  Name = 
REMARK  10 active torsions:
REMARK  status: ('A' for Active; 'I' for Inactive)
REMARK    1  A    between atoms: C_1  and  C_2
REMARK    2  A    between atoms: C_2  and  C_3
REMARK    3  A    between atoms: C_3  and  C_4
REMARK    4  A    between atoms: C_4  and  C_5
REMARK    5  A    between atoms: C_5  and  C_6
REMARK    6  A    between atoms: C_6  and  C_7
REMARK    7  A    between atoms: C_7  and  C_8
REMARK    8  A    between atoms: C_11  and  C_12
REMARK    9  A    between atoms: C_13  and  C_14
REMARK   10  A    between atoms: C_16  and  C_17
REMARK                            x       y       z     vdW  Elec       q    Type
REMARK                         _______ _______ _______ _____ _____    ______ ____
ROOT
ATOM      1  C   UNL     1       5.588   5.337  15.605  0.00  0.00    +0.000 A 
ATOM      2  C   UNL     1       4.565   4.520  16.074  0.00  0.00    +0.000 A 
ATOM      3  C   UNL     1       3.731   4.999  17.077  0.00  0.00    +0.000 A 
ATOM      4  C   UNL     1       3.944   6.278  17.591  0.00  0.00    +0.000 A 
ATOM      5  C   UNL     1       5.003   7.018  17.078  0.00  0.00    +0.000 A 
ATOM      6  N   UNL     1       5.809   6.586  16.086  0.00  0.00    +0.000 NA
ENDROOT
BRANCH   4   7
ATOM      7  C   UNL     1       3.053   6.847  18.601  0.00  0.00    +0.000 A 
ATOM      8  C   UNL     1       2.791   6.220  19.771  0.00  0.00    +0.000 A 
ATOM      9  C   UNL     1       3.407   4.900  20.180  0.00  0.00    +0.000 C 
ATOM     10  N   UNL     1       1.921   6.774  20.689  0.00  0.00    +0.000 N 
ATOM     11  C   UNL     1       1.261   7.973  20.497  0.00  0.00    +0.000 A 
ATOM     12  C   UNL     1       0.327   8.419  21.591  0.00  0.00    +0.000 C 
ATOM     13  C   UNL     1       1.452   8.697  19.378  0.00  0.00    +0.000 A 
ATOM     14 CL   UNL     1       0.682  10.207  19.069  0.00  0.00    +0.000 Cl
ATOM     15  C   UNL     1       2.386   8.170  18.334  0.00  0.00    +0.000 A 
ATOM     16  O   UNL     1       2.610   8.785  17.293  0.00  0.00    +0.000 OA
ATOM     17  H   UNL     1       1.744   6.258  21.549  0.00  0.00    +0.000 HD
ENDBRANCH   4   7
BRANCH   1  18
ATOM     18  C   UNL     1       6.517   4.859  14.525  0.00  0.00    +0.000 C 
BRANCH  18  19
ATOM     19  C   UNL     1       6.109   3.468  14.047  0.00  0.00    +0.000 C 
BRANCH  19  20
ATOM     20  C   UNL     1       5.771   3.480  12.563  0.00  0.00    +0.000 C 
BRANCH  20  21
ATOM     21  C   UNL     1       7.041   3.385  11.723  0.00  0.00    +0.000 C 
BRANCH  21  22
ATOM     22  C   UNL     1       7.249   1.959  11.227  0.00  0.00    +0.000 C 
BRANCH  22  24
ATOM     23  C   UNL     1       6.156  -0.295  11.318  0.00  0.00    +0.000 C 
ATOM     24  C   UNL     1       5.929   1.198  11.167  0.00  0.00    +0.000 C 
ENDBRANCH  22  24
ENDBRANCH  21  22
ENDBRANCH  20  21
ENDBRANCH  19  20
ENDBRANCH  18  19
ENDBRANCH   1  18
TORSDOF 7
ENDMDL
MODEL 9
REMARK VINA RESULT:      -7.0      6.998      8.954
REMARK  Name = 
REMARK  10 active torsions:
REMARK  status: ('A' for Active; 'I' for Inactive)
REMARK    1  A    between atoms: C_1  and  C_2
REMARK    2  A    between atoms: C_2  and  C_3
REMARK    3  A    between atoms: C_3  and  C_4
REMARK    4  A    between atoms: C_4  and  C_5
REMARK    5  A    between atoms: C_5  and  C_6
REMARK    6  A    between atoms: C_6  and  C_7
REMARK    7  A    between atoms: C_7  and  C_8
REMARK    8  A    between atoms: C_11  and  C_12
REMARK    9  A    between atoms: C_13  and  C_14
REMARK   10  A    between atoms: C_16  and  C_17
REMARK                            x       y       z     vdW  Elec       q    Type
REMARK                         _______ _______ _______ _____ _____    ______ ____
ROOT
ATOM      1  C   UNL     1       2.499   7.777  18.455  0.00  0.00    +0.000 A 
ATOM      2  C   UNL     1       1.945   7.680  19.726  0.00  0.00    +0.000 A 
ATOM      3  C   UNL     1       1.103   8.693  20.171  0.00  0.00    +0.000 A 
ATOM      4  C   UNL     1       0.843   9.781  19.336  0.00  0.00    +0.000 A 
ATOM      5  C   UNL     1       1.456   9.806  18.090  0.00  0.00    +0.000 A 
ATOM      6  N   UNL     1       2.255   8.822  17.625  0.00  0.00    +0.000 NA
ENDROOT
BRANCH   4   7
ATOM      7  C   UNL     1      -0.086  10.837  19.736  0.00  0.00    +0.000 A 
ATOM      8  C   UNL     1      -1.291  11.002  19.145  0.00  0.00    +0.000 A 
ATOM      9  C   UNL     1      -1.825  10.108  18.048  0.00  0.00    +0.000 C 
ATOM     10  N   UNL     1      -2.130  12.029  19.528  0.00  0.00    +0.000 N 
ATOM     11  C   UNL     1      -1.820  12.949  20.512  0.00  0.00    +0.000 A 
ATOM     12  C   UNL     1      -2.841  14.021  20.789  0.00  0.00    +0.000 C 
ATOM     13  C   UNL     1      -0.655  12.879  21.183  0.00  0.00    +0.000 A 
ATOM     14 CL   UNL     1      -0.200  13.974  22.433  0.00  0.00    +0.000 Cl
ATOM     15  C   UNL     1       0.310  11.790  20.833  0.00  0.00    +0.000 A 
ATOM     16  O   UNL     1       1.387  11.665  21.411  0.00  0.00    +0.000 OA
ATOM     17  H   UNL     1      -3.021  12.123  19.044  0.00  0.00    +0.000 HD
ENDBRANCH   4   7
BRANCH   1  18
ATOM     18  C   UNL     1       3.419   6.708  17.935  0.00  0.00    +0.000 C 
BRANCH  18  19
ATOM     19  C   UNL     1       3.120   5.372  18.612  0.00  0.00    +0.000 C 
BRANCH  19  20
ATOM     20  C   UNL     1       2.402   4.428  17.657  0.00  0.00    +0.000 C 
BRANCH  20  21
ATOM     21  C   UNL     1       1.514   3.459  18.430  0.00  0.00    +0.000 C 
BRANCH  21  22
ATOM     22  C   UNL     1       1.107   4.059  19.771  0.00  0.00    +0.000 C 
BRANCH  22  24
ATOM     23  C   UNL     1       2.261   3.050  21.755  0.00  0.00    +0.000 C 
ATOM     24  C   UNL     1       1.040   2.989  20.855  0.00  0.00    +0.000 C 
ENDBRANCH  22  24
ENDBRANCH  21  22
ENDBRANCH  20  21
ENDBRANCH  19  20
ENDBRANCH  18  19
ENDBRANCH   1  18
TORSDOF 7
ENDMDL
