MODEL 1
REMARK VINA RESULT:      -7.4      0.000      0.000
REMARK  Name = 
REMARK  9 active torsions:
REMARK  status: ('A' for Active; 'I' for Inactive)
REMARK    1  A    between atoms: C_1  and  O_2
REMARK    2  A    between atoms: O_2  and  C_3
REMARK    3  A    between atoms: C_6  and  C_7
REMARK    4  A    between atoms: C_7  and  C_9
REMARK    5  A    between atoms: C_9  and  S_10
REMARK    6  A    between atoms: S_10  and  C_11
REMARK    7  A    between atoms: C_14  and  C_15
REMARK    8  A    between atoms: N_21  and  C_22
REMARK    9  A    between atoms: C_22  and  C_23
REMARK                            x       y       z     vdW  Elec       q    Type
REMARK                         _______ _______ _______ _____ _____    ______ ____
ROOT
ATOM      1  C   UNL     1       2.346   7.731  18.942  0.00  0.00    +0.000 A 
ATOM      2  N   UNL     1       2.355   8.419  17.827  0.00  0.00    +0.000 NA
ATOM      3  N   UNL     1       3.299   7.865  17.002  0.00  0.00    +0.000 NA
ATOM      4  C   UNL     1       3.882   6.858  17.634  0.00  0.00    +0.000 A 
ATOM      5  N   UNL     1       3.267   6.715  18.868  0.00  0.00    +0.000 N 
ENDROOT
BRANCH   4   6
ATOM      6  C   UNL     1       4.973   6.050  17.094  0.00  0.00    +0.000 A 
ATOM      7  C   UNL     1       6.303   6.428  17.227  0.00  0.00    +0.000 A 
ATOM      8  N   UNL     1       7.335   5.682  16.750  0.00  0.00    +0.000 NA
ATOM      9  C   UNL     1       6.983   4.523  16.153  0.00  0.00    +0.000 A 
ATOM     10  C   UNL     1       5.662   4.130  16.031  0.00  0.00    +0.000 A 
ATOM     11  N   UNL     1       4.634   4.884  16.488  0.00  0.00    +0.000 NA
ENDBRANCH   4   6
BRANCH   1  12
ATOM     12  S   UNL     1       1.332   8.047  20.310  0.00  0.00    +0.000 S 
BRANCH  12  13
ATOM     13  C   UNL     1       1.126   9.866  20.208  0.00  0.00    +0.000 C 
BRANCH  13  14
ATOM     14  C   UNL     1      -0.341  10.282  20.313  0.00  0.00    +0.000 C 
ATOM     15  O   UNL     1      -0.909  10.492  21.386  0.00  0.00    +0.000 OA
BRANCH  14  19
ATOM     16  C   UNL     1      -2.689  10.901  16.727  0.00  0.00    +0.000 A 
ATOM     17  C   UNL     1      -2.926  11.638  17.885  0.00  0.00    +0.000 A 
ATOM     18  C   UNL     1      -2.156  11.424  19.035  0.00  0.00    +0.000 A 
ATOM     19  C   UNL     1      -1.143  10.452  19.051  0.00  0.00    +0.000 A 
ATOM     20  C   UNL     1      -0.929   9.691  17.896  0.00  0.00    +0.000 A 
ATOM     21  C   UNL     1      -1.699   9.915  16.739  0.00  0.00    +0.000 A 
BRANCH  16  23
ATOM     22  C   UNL     1      -3.651  10.185  14.684  0.00  0.00    +0.000 C 
ATOM     23  O   UNL     1      -3.502  11.201  15.669  0.00  0.00    +0.000 OA
ENDBRANCH  16  23
ENDBRANCH  14  19
ENDBRANCH  13  14
ENDBRANCH  12  13
ENDBRANCH   1  12
BRANCH   5  24
ATOM     24  C   UNL     1       3.479   5.635  19.818  0.00  0.00    +0.000 C 
BRANCH  24  25
ATOM     25  C   UNL     1       2.421   4.594  19.756  0.00  0.00    +0.000 A 
ATOM     26  C   UNL     1       1.335   4.257  20.541  0.00  0.00    +0.000 A 
ATOM     27  C   UNL     1       0.759   3.103  19.960  0.00  0.00    +0.000 A 
ATOM     28  C   UNL     1       1.515   2.815  18.848  0.00  0.00    +0.000 A 
ATOM     29  O   UNL     1       2.521   3.715  18.713  0.00  0.00    +0.000 OA
ENDBRANCH  24  25
ENDBRANCH   5  24
TORSDOF 8
ENDMDL
MODEL 2
REMARK VINA RESULT:      -7.4      2.550      2.990
REMARK  Name = 
REMARK  9 active torsions:
REMARK  status: ('A' for Active; 'I' for Inactive)
REMARK    1  A    between atoms: C_1  and  O_2
REMARK    2  A    between atoms: O_2  and  C_3
REMARK    3  A    between atoms: C_6  and  C_7
REMARK    4  A    between atoms: C_7  and  C_9
REMARK    5  A    between atoms: C_9  and  S_10
REMARK    6  A    between atoms: S_10  and  C_11
REMARK    7  A    between atoms: C_14  and  C_15
REMARK    8  A    between atoms: N_21  and  C_22
REMARK    9  A    between atoms: C_22  and  C_23
REMARK                            x       y       z     vdW  Elec       q    Type
REMARK                         _______ _______ _______ _____ _____    ______ ____
ROOT
ATOM      1  C   UNL     1       2.451   7.355  19.277  0.00  0.00    +0.000 A 
ATOM      2  N   UNL     1       2.493   8.186  18.265  0.00  0.00    +0.000 NA
ATOM      3  N   UNL     1       3.408   7.703  17.365  0.00  0.00    +0.000 NA
ATOM      4  C   UNL     1       3.941   6.593  17.850  0.00  0.00    +0.000 A 
ATOM      5  N   UNL     1       3.321   6.315  19.059  0.00  0.00    +0.000 N 
ENDROOT
BRANCH   4   6
ATOM      6  C   UNL     1       4.990   5.813  17.199  0.00  0.00    +0.000 A 
ATOM      7  C   UNL     1       6.334   6.146  17.315  0.00  0.00    +0.000 A 
ATOM      8  N   UNL     1       7.328   5.424  16.732  0.00  0.00    +0.000 NA
ATOM      9  C   UNL     1       6.924   4.333  16.046  0.00  0.00    +0.000 A 
ATOM     10  C   UNL     1       5.589   3.984  15.939  0.00  0.00    +0.000 A 
ATOM     11  N   UNL     1       4.598   4.716  16.502  0.00  0.00    +0.000 NA
ENDBRANCH   4   6
BRANCH   1  12
ATOM     12  S   UNL     1       1.455   7.531  20.682  0.00  0.00    +0.000 S 
BRANCH  12  13
ATOM     13  C   UNL     1       0.787   9.223  20.454  0.00  0.00    +0.000 C 
BRANCH  13  14
ATOM     14  C   UNL     1       0.543   9.926  21.790  0.00  0.00    +0.000 C 
ATOM     15  O   UNL     1       1.242   9.745  22.787  0.00  0.00    +0.000 OA
BRANCH  14  19
ATOM     16  C   UNL     1      -2.746  12.704  22.264  0.00  0.00    +0.000 A 
ATOM     17  C   UNL     1      -2.369  11.844  23.293  0.00  0.00    +0.000 A 
ATOM     18  C   UNL     1      -1.302  10.954  23.122  0.00  0.00    +0.000 A 
ATOM     19  C   UNL     1      -0.603  10.894  21.905  0.00  0.00    +0.000 A 
ATOM     20  C   UNL     1      -1.007  11.737  20.862  0.00  0.00    +0.000 A 
ATOM     21  C   UNL     1      -2.074  12.637  21.042  0.00  0.00    +0.000 A 
BRANCH  16  23
ATOM     22  C   UNL     1      -4.729  13.749  21.497  0.00  0.00    +0.000 C 
ATOM     23  O   UNL     1      -3.798  13.529  22.550  0.00  0.00    +0.000 OA
ENDBRANCH  16  23
ENDBRANCH  14  19
ENDBRANCH  13  14
ENDBRANCH  12  13
ENDBRANCH   1  12
BRANCH   5  24
ATOM     24  C   UNL     1       3.480   5.106  19.852  0.00  0.00    +0.000 C 
BRANCH  24  25
ATOM     25  C   UNL     1       2.524   4.034  19.471  0.00  0.00    +0.000 A 
ATOM     26  C   UNL     1       1.163   3.845  19.610  0.00  0.00    +0.000 A 
ATOM     27  C   UNL     1       0.878   2.560  19.087  0.00  0.00    +0.000 A 
ATOM     28  C   UNL     1       2.077   2.052  18.646  0.00  0.00    +0.000 A 
ATOM     29  O   UNL     1       3.079   2.939  18.870  0.00  0.00    +0.000 OA
ENDBRANCH  24  25
ENDBRANCH   5  24
TORSDOF 8
ENDMDL
MODEL 3
REMARK VINA RESULT:      -7.4      0.605      1.303
REMARK  Name = 
REMARK  9 active torsions:
REMARK  status: ('A' for Active; 'I' for Inactive)
REMARK    1  A    between atoms: C_1  and  O_2
REMARK    2  A    between atoms: O_2  and  C_3
REMARK    3  A    between atoms: C_6  and  C_7
REMARK    4  A    between atoms: C_7  and  C_9
REMARK    5  A    between atoms: C_9  and  S_10
REMARK    6  A    between atoms: S_10  and  C_11
REMARK    7  A    between atoms: C_14  and  C_15
REMARK    8  A    between atoms: N_21  and  C_22
REMARK    9  A    between atoms: C_22  and  C_23
REMARK                            x       y       z     vdW  Elec       q    Type
REMARK                         _______ _______ _______ _____ _____    ______ ____
ROOT
ATOM      1  C   UNL     1       2.259   7.789  19.048  0.00  0.00    +0.000 A 
ATOM      2  N   UNL     1       2.241   8.408  17.893  0.00  0.00    +0.000 NA
ATOM      3  N   UNL     1       3.140   7.780  17.069  0.00  0.00    +0.000 NA
ATOM      4  C   UNL     1       3.722   6.799  17.739  0.00  0.00    +0.000 A 
ATOM      5  N   UNL     1       3.152   6.747  19.002  0.00  0.00    +0.000 N 
ENDROOT
BRANCH   4   6
ATOM      6  C   UNL     1       4.773   5.932  17.211  0.00  0.00    +0.000 A 
ATOM      7  C   UNL     1       4.485   4.723  16.591  0.00  0.00    +0.000 A 
ATOM      8  N   UNL     1       5.445   3.909  16.075  0.00  0.00    +0.000 NA
ATOM      9  C   UNL     1       6.711   4.369  16.182  0.00  0.00    +0.000 A 
ATOM     10  C   UNL     1       7.005   5.580  16.784  0.00  0.00    +0.000 A 
ATOM     11  N   UNL     1       6.050   6.379  17.316  0.00  0.00    +0.000 NA
ENDBRANCH   4   6
BRANCH   1  12
ATOM     12  S   UNL     1       1.305   8.213  20.430  0.00  0.00    +0.000 S 
BRANCH  12  13
ATOM     13  C   UNL     1       1.094  10.019  20.196  0.00  0.00    +0.000 C 
BRANCH  13  14
ATOM     14  C   UNL     1      -0.351  10.461  20.431  0.00  0.00    +0.000 C 
ATOM     15  O   UNL     1      -0.826  10.650  21.551  0.00  0.00    +0.000 OA
BRANCH  14  19
ATOM     16  C   UNL     1      -2.888  10.980  16.960  0.00  0.00    +0.000 A 
ATOM     17  C   UNL     1      -1.814  10.094  16.947  0.00  0.00    +0.000 A 
ATOM     18  C   UNL     1      -1.005   9.938  18.079  0.00  0.00    +0.000 A 
ATOM     19  C   UNL     1      -1.247  10.685  19.243  0.00  0.00    +0.000 A 
ATOM     20  C   UNL     1      -2.307  11.599  19.242  0.00  0.00    +0.000 A 
ATOM     21  C   UNL     1      -3.124  11.746  18.104  0.00  0.00    +0.000 A 
BRANCH  16  23
ATOM     22  C   UNL     1      -3.161  10.202  14.740  0.00  0.00    +0.000 C 
ATOM     23  O   UNL     1      -3.606  11.043  15.798  0.00  0.00    +0.000 OA
ENDBRANCH  16  23
ENDBRANCH  14  19
ENDBRANCH  13  14
ENDBRANCH  12  13
ENDBRANCH   1  12
BRANCH   5  24
ATOM     24  C   UNL     1       3.375   5.721  20.008  0.00  0.00    +0.000 C 
BRANCH  24  25
ATOM     25  C   UNL     1       2.426   4.583  19.894  0.00  0.00    +0.000 A 
ATOM     26  C   UNL     1       1.102   4.379  20.228  0.00  0.00    +0.000 A 
ATOM     27  C   UNL     1       0.811   3.029  19.916  0.00  0.00    +0.000 A 
ATOM     28  C   UNL     1       1.967   2.498  19.396  0.00  0.00    +0.000 A 
ATOM     29  O   UNL     1       2.950   3.432  19.374  0.00  0.00    +0.000 OA
ENDBRANCH  24  25
ENDBRANCH   5  24
TORSDOF 8
ENDMDL
MODEL 4
REMARK VINA RESULT:      -7.3      2.508      3.208
REMARK  Name = 
REMARK  9 active torsions:
REMARK  status: ('A' for Active; 'I' for Inactive)
REMARK    1  A    between atoms: C_1  and  O_2
REMARK    2  A    between atoms: O_2  and  C_3
REMARK    3  A    between atoms: C_6  and  C_7
REMARK    4  A    between atoms: C_7  and  C_9
REMARK    5  A    between atoms: C_9  and  S_10
REMARK    6  A    between atoms: S_10  and  C_11
REMARK    7  A    between atoms: C_14  and  C_15
REMARK    8  A    between atoms: N_21  and  C_22
REMARK    9  A    between atoms: C_22  and  C_23
REMARK                            x       y       z     vdW  Elec       q    Type
REMARK                         _______ _______ _______ _____ _____    ______ ____
ROOT
ATOM      1  C   UNL     1       2.379   7.332  19.369  0.00  0.00    +0.000 A 
ATOM      2  N   UNL     1       2.430   8.149  18.345  0.00  0.00    +0.000 NA
ATOM      3  N   UNL     1       3.342   7.645  17.454  0.00  0.00    +0.000 NA
ATOM      4  C   UNL     1       3.863   6.536  17.955  0.00  0.00    +0.000 A 
ATOM      5  N   UNL     1       3.238   6.281  19.166  0.00  0.00    +0.000 N 
ENDROOT
BRANCH   4   6
ATOM      6  C   UNL     1       4.905   5.737  17.316  0.00  0.00    +0.000 A 
ATOM      7  C   UNL     1       4.604   4.672  16.476  0.00  0.00    +0.000 A 
ATOM      8  N   UNL     1       5.558   3.927  15.856  0.00  0.00    +0.000 NA
ATOM      9  C   UNL     1       6.833   4.308  16.090  0.00  0.00    +0.000 A 
ATOM     10  C   UNL     1       7.141   5.379  16.911  0.00  0.00    +0.000 A 
ATOM     11  N   UNL     1       6.191   6.107  17.545  0.00  0.00    +0.000 NA
ENDBRANCH   4   6
BRANCH   1  12
ATOM     12  S   UNL     1       1.382   7.538  20.770  0.00  0.00    +0.000 S 
BRANCH  12  13
ATOM     13  C   UNL     1       0.872   9.292  20.609  0.00  0.00    +0.000 C 
BRANCH  13  14
ATOM     14  C   UNL     1       0.481   9.899  21.957  0.00  0.00    +0.000 C 
ATOM     15  O   UNL     1       1.069   9.646  23.008  0.00  0.00    +0.000 OA
BRANCH  14  19
ATOM     16  C   UNL     1      -2.857  12.659  21.982  0.00  0.00    +0.000 A 
ATOM     17  C   UNL     1      -2.100  12.446  20.831  0.00  0.00    +0.000 A 
ATOM     18  C   UNL     1      -1.026  11.548  20.842  0.00  0.00    +0.000 A 
ATOM     19  C   UNL     1      -0.675  10.860  22.015  0.00  0.00    +0.000 A 
ATOM     20  C   UNL     1      -1.417  11.102  23.177  0.00  0.00    +0.000 A 
ATOM     21  C   UNL     1      -2.502  11.998  23.160  0.00  0.00    +0.000 A 
BRANCH  16  23
ATOM     22  C   UNL     1      -4.735  13.706  22.976  0.00  0.00    +0.000 C 
ATOM     23  O   UNL     1      -3.881  13.554  21.848  0.00  0.00    +0.000 OA
ENDBRANCH  16  23
ENDBRANCH  14  19
ENDBRANCH  13  14
ENDBRANCH  12  13
ENDBRANCH   1  12
BRANCH   5  24
ATOM     24  C   UNL     1       3.384   5.082  19.976  0.00  0.00    +0.000 C 
BRANCH  24  25
ATOM     25  C   UNL     1       2.450   3.997  19.578  0.00  0.00    +0.000 A 
ATOM     26  C   UNL     1       1.080   3.823  19.624  0.00  0.00    +0.000 A 
ATOM     27  C   UNL     1       0.824   2.515  19.145  0.00  0.00    +0.000 A 
ATOM     28  C   UNL     1       2.048   1.979  18.822  0.00  0.00    +0.000 A 
ATOM     29  O   UNL     1       3.038   2.870  19.076  0.00  0.00    +0.000 OA
ENDBRANCH  24  25
ENDBRANCH   5  24
TORSDOF 8
ENDMDL
MODEL 5
REMARK VINA RESULT:      -7.2      2.160      3.752
REMARK  Name = 
REMARK  9 active torsions:
REMARK  status: ('A' for Active; 'I' for Inactive)
REMARK    1  A    between atoms: C_1  and  O_2
REMARK    2  A    between atoms: O_2  and  C_3
REMARK    3  A    between atoms: C_6  and  C_7
REMARK    4  A    between atoms: C_7  and  C_9
REMARK    5  A    between atoms: C_9  and  S_10
REMARK    6  A    between atoms: S_10  and  C_11
REMARK    7  A    between atoms: C_14  and  C_15
REMARK    8  A    between atoms: N_21  and  C_22
REMARK    9  A    between atoms: C_22  and  C_23
REMARK                            x       y       z     vdW  Elec       q    Type
REMARK                         _______ _______ _______ _____ _____    ______ ____
ROOT
ATOM      1  C   UNL     1       2.586   7.474  18.864  0.00  0.00    +0.000 A 
ATOM      2  N   UNL     1       1.975   7.148  19.976  0.00  0.00    +0.000 NA
ATOM      3  N   UNL     1       2.142   5.800  20.165  0.00  0.00    +0.000 NA
ATOM      4  C   UNL     1       2.832   5.307  19.149  0.00  0.00    +0.000 A 
ATOM      5  N   UNL     1       3.171   6.359  18.312  0.00  0.00    +0.000 N 
ENDROOT
BRANCH   4   6
ATOM      6  C   UNL     1       3.170   3.897  18.971  0.00  0.00    +0.000 A 
ATOM      7  C   UNL     1       4.056   3.241  19.817  0.00  0.00    +0.000 A 
ATOM      8  N   UNL     1       4.370   1.925  19.682  0.00  0.00    +0.000 NA
ATOM      9  C   UNL     1       3.739   1.280  18.677  0.00  0.00    +0.000 A 
ATOM     10  C   UNL     1       2.842   1.921  17.841  0.00  0.00    +0.000 A 
ATOM     11  N   UNL     1       2.546   3.237  17.962  0.00  0.00    +0.000 NA
ENDBRANCH   4   6
BRANCH   1  12
ATOM     12  S   UNL     1       2.654   9.064  18.182  0.00  0.00    +0.000 S 
BRANCH  12  13
ATOM     13  C   UNL     1       0.949   9.264  17.537  0.00  0.00    +0.000 C 
BRANCH  13  14
ATOM     14  C   UNL     1       0.074  10.089  18.481  0.00  0.00    +0.000 C 
ATOM     15  O   UNL     1       0.464  10.507  19.572  0.00  0.00    +0.000 OA
BRANCH  14  19
ATOM     16  C   UNL     1      -3.973  11.160  17.369  0.00  0.00    +0.000 A 
ATOM     17  C   UNL     1      -3.366  11.696  18.503  0.00  0.00    +0.000 A 
ATOM     18  C   UNL     1      -2.056  11.339  18.846  0.00  0.00    +0.000 A 
ATOM     19  C   UNL     1      -1.334  10.420  18.067  0.00  0.00    +0.000 A 
ATOM     20  C   UNL     1      -1.959   9.859  16.947  0.00  0.00    +0.000 A 
ATOM     21  C   UNL     1      -3.272  10.228  16.601  0.00  0.00    +0.000 A 
BRANCH  16  23
ATOM     22  C   UNL     1      -6.223  11.214  18.105  0.00  0.00    +0.000 C 
ATOM     23  O   UNL     1      -5.250  11.586  17.136  0.00  0.00    +0.000 OA
ENDBRANCH  16  23
ENDBRANCH  14  19
ENDBRANCH  13  14
ENDBRANCH  12  13
ENDBRANCH   1  12
BRANCH   5  24
ATOM     24  C   UNL     1       4.064   6.298  17.166  0.00  0.00    +0.000 C 
BRANCH  24  25
ATOM     25  C   UNL     1       5.497   6.405  17.543  0.00  0.00    +0.000 A 
ATOM     26  C   UNL     1       6.331   5.730  18.413  0.00  0.00    +0.000 A 
ATOM     27  C   UNL     1       7.588   6.379  18.352  0.00  0.00    +0.000 A 
ATOM     28  C   UNL     1       7.450   7.397  17.439  0.00  0.00    +0.000 A 
ATOM     29  O   UNL     1       6.189   7.418  16.939  0.00  0.00    +0.000 OA
ENDBRANCH  24  25
ENDBRANCH   5  24
TORSDOF 8
ENDMDL
MODEL 6
REMARK VINA RESULT:      -7.2      2.847      3.221
REMARK  Name = 
REMARK  9 active torsions:
REMARK  status: ('A' for Active; 'I' for Inactive)
REMARK    1  A    between atoms: C_1  and  O_2
REMARK    2  A    between atoms: O_2  and  C_3
REMARK    3  A    between atoms: C_6  and  C_7
REMARK    4  A    between atoms: C_7  and  C_9
REMARK    5  A    between atoms: C_9  and  S_10
REMARK    6  A    between atoms: S_10  and  C_11
REMARK    7  A    between atoms: C_14  and  C_15
REMARK    8  A    between atoms: N_21  and  C_22
REMARK    9  A    between atoms: C_22  and  C_23
REMARK                            x       y       z     vdW  Elec       q    Type
REMARK                         _______ _______ _______ _____ _____    ______ ____
ROOT
ATOM      1  C   UNL     1       2.484   7.242  19.334  0.00  0.00    +0.000 A 
ATOM      2  N   UNL     1       2.397   8.129  18.374  0.00  0.00    +0.000 NA
ATOM      3  N   UNL     1       3.284   7.770  17.392  0.00  0.00    +0.000 NA
ATOM      4  C   UNL     1       3.929   6.680  17.775  0.00  0.00    +0.000 A 
ATOM      5  N   UNL     1       3.413   6.287  19.000  0.00  0.00    +0.000 N 
ENDROOT
BRANCH   4   6
ATOM      6  C   UNL     1       4.989   6.022  17.014  0.00  0.00    +0.000 A 
ATOM      7  C   UNL     1       6.275   6.542  16.945  0.00  0.00    +0.000 A 
ATOM      8  N   UNL     1       7.281   5.937  16.258  0.00  0.00    +0.000 NA
ATOM      9  C   UNL     1       6.954   4.771  15.661  0.00  0.00    +0.000 A 
ATOM     10  C   UNL     1       5.679   4.237  15.739  0.00  0.00    +0.000 A 
ATOM     11  N   UNL     1       4.673   4.851  16.405  0.00  0.00    +0.000 NA
ENDBRANCH   4   6
BRANCH   1  12
ATOM     12  S   UNL     1       1.572   7.260  20.806  0.00  0.00    +0.000 S 
BRANCH  12  13
ATOM     13  C   UNL     1       0.672   8.852  20.666  0.00  0.00    +0.000 C 
BRANCH  13  14
ATOM     14  C   UNL     1       0.811   9.700  21.930  0.00  0.00    +0.000 C 
ATOM     15  O   UNL     1       1.680   9.508  22.781  0.00  0.00    +0.000 OA
BRANCH  14  19
ATOM     16  C   UNL     1      -1.920  13.020  22.455  0.00  0.00    +0.000 A 
ATOM     17  C   UNL     1      -0.847  13.097  21.571  0.00  0.00    +0.000 A 
ATOM     18  C   UNL     1       0.025  12.013  21.413  0.00  0.00    +0.000 A 
ATOM     19  C   UNL     1      -0.152  10.835  22.156  0.00  0.00    +0.000 A 
ATOM     20  C   UNL     1      -1.212  10.773  23.068  0.00  0.00    +0.000 A 
ATOM     21  C   UNL     1      -2.092  11.862  23.217  0.00  0.00    +0.000 A 
BRANCH  16  23
ATOM     22  C   UNL     1      -2.575  15.058  21.441  0.00  0.00    +0.000 C 
ATOM     23  O   UNL     1      -2.703  14.139  22.520  0.00  0.00    +0.000 OA
ENDBRANCH  16  23
ENDBRANCH  14  19
ENDBRANCH  13  14
ENDBRANCH  12  13
ENDBRANCH   1  12
BRANCH   5  24
ATOM     24  C   UNL     1       3.714   5.052  19.707  0.00  0.00    +0.000 C 
BRANCH  24  25
ATOM     25  C   UNL     1       2.587   4.084  19.687  0.00  0.00    +0.000 A 
ATOM     26  C   UNL     1       1.862   3.409  20.649  0.00  0.00    +0.000 A 
ATOM     27  C   UNL     1       0.955   2.570  19.957  0.00  0.00    +0.000 A 
ATOM     28  C   UNL     1       1.170   2.796  18.618  0.00  0.00    +0.000 A 
ATOM     29  O   UNL     1       2.153   3.715  18.443  0.00  0.00    +0.000 OA
ENDBRANCH  24  25
ENDBRANCH   5  24
TORSDOF 8
ENDMDL
MODEL 7
REMARK VINA RESULT:      -7.2      2.956      3.508
REMARK  Name = 
REMARK  9 active torsions:
REMARK  status: ('A' for Active; 'I' for Inactive)
REMARK    1  A    between atoms: C_1  and  O_2
REMARK    2  A    between atoms: O_2  and  C_3
REMARK    3  A    between atoms: C_6  and  C_7
REMARK    4  A    between atoms: C_7  and  C_9
REMARK    5  A    between atoms: C_9  and  S_10
REMARK    6  A    between atoms: S_10  and  C_11
REMARK    7  A    between atoms: C_14  and  C_15
REMARK    8  A    between atoms: N_21  and  C_22
REMARK    9  A    between atoms: C_22  and  C_23
REMARK                            x       y       z     vdW  Elec       q    Type
REMARK                         _______ _______ _______ _____ _____    ______ ____
ROOT
ATOM      1  C   UNL     1       2.398   7.181  19.306  0.00  0.00    +0.000 A 
ATOM      2  N   UNL     1       2.322   8.095  18.371  0.00  0.00    +0.000 NA
ATOM      3  N   UNL     1       3.241   7.781  17.403  0.00  0.00    +0.000 NA
ATOM      4  C   UNL     1       3.893   6.689  17.770  0.00  0.00    +0.000 A 
ATOM      5  N   UNL     1       3.351   6.251  18.968  0.00  0.00    +0.000 N 
ENDROOT
BRANCH   4   6
ATOM      6  C   UNL     1       4.983   6.071  17.019  0.00  0.00    +0.000 A 
ATOM      7  C   UNL     1       6.283   6.557  17.075  0.00  0.00    +0.000 A 
ATOM      8  N   UNL     1       7.316   5.987  16.399  0.00  0.00    +0.000 NA
ATOM      9  C   UNL     1       7.000   4.888  15.680  0.00  0.00    +0.000 A 
ATOM     10  C   UNL     1       5.711   4.387  15.631  0.00  0.00    +0.000 A 
ATOM     11  N   UNL     1       4.679   4.968  16.288  0.00  0.00    +0.000 NA
ENDBRANCH   4   6
BRANCH   1  12
ATOM     12  S   UNL     1       1.447   7.141  20.752  0.00  0.00    +0.000 S 
BRANCH  12  13
ATOM     13  C   UNL     1       1.279   8.926  21.136  0.00  0.00    +0.000 C 
BRANCH  13  14
ATOM     14  C   UNL     1      -0.034   9.235  21.855  0.00  0.00    +0.000 C 
ATOM     15  O   UNL     1      -0.800   8.364  22.267  0.00  0.00    +0.000 OA
BRANCH  14  19
ATOM     16  C   UNL     1      -1.092  13.402  22.380  0.00  0.00    +0.000 A 
ATOM     17  C   UNL     1      -0.118  13.011  21.464  0.00  0.00    +0.000 A 
ATOM     18  C   UNL     1       0.210  11.659  21.307  0.00  0.00    +0.000 A 
ATOM     19  C   UNL     1      -0.421  10.672  22.082  0.00  0.00    +0.000 A 
ATOM     20  C   UNL     1      -1.375  11.072  23.024  0.00  0.00    +0.000 A 
ATOM     21  C   UNL     1      -1.708  12.431  23.173  0.00  0.00    +0.000 A 
BRANCH  16  23
ATOM     22  C   UNL     1      -0.369  15.521  23.154  0.00  0.00    +0.000 C 
ATOM     23  O   UNL     1      -1.327  14.747  22.441  0.00  0.00    +0.000 OA
ENDBRANCH  16  23
ENDBRANCH  14  19
ENDBRANCH  13  14
ENDBRANCH  12  13
ENDBRANCH   1  12
BRANCH   5  24
ATOM     24  C   UNL     1       3.653   5.000  19.646  0.00  0.00    +0.000 C 
BRANCH  24  25
ATOM     25  C   UNL     1       2.770   3.883  19.220  0.00  0.00    +0.000 A 
ATOM     26  C   UNL     1       1.437   3.569  19.400  0.00  0.00    +0.000 A 
ATOM     27  C   UNL     1       1.233   2.309  18.786  0.00  0.00    +0.000 A 
ATOM     28  C   UNL     1       2.447   1.940  18.257  0.00  0.00    +0.000 A 
ATOM     29  O   UNL     1       3.383   2.889  18.509  0.00  0.00    +0.000 OA
ENDBRANCH  24  25
ENDBRANCH   5  24
TORSDOF 8
ENDMDL
MODEL 8
REMARK VINA RESULT:      -7.2      2.992      8.735
REMARK  Name = 
REMARK  9 active torsions:
REMARK  status: ('A' for Active; 'I' for Inactive)
REMARK    1  A    between atoms: C_1  and  O_2
REMARK    2  A    between atoms: O_2  and  C_3
REMARK    3  A    between atoms: C_6  and  C_7
REMARK    4  A    between atoms: C_7  and  C_9
REMARK    5  A    between atoms: C_9  and  S_10
REMARK    6  A    between atoms: S_10  and  C_11
REMARK    7  A    between atoms: C_14  and  C_15
REMARK    8  A    between atoms: N_21  and  C_22
REMARK    9  A    between atoms: C_22  and  C_23
REMARK                            x       y       z     vdW  Elec       q    Type
REMARK                         _______ _______ _______ _____ _____    ______ ____
ROOT
ATOM      1  C   UNL     1       1.537   8.880  19.550  0.00  0.00    +0.000 A 
ATOM      2  N   UNL     1       1.625   8.238  20.689  0.00  0.00    +0.000 NA
ATOM      3  N   UNL     1       0.990   8.990  21.643  0.00  0.00    +0.000 NA
ATOM      4  C   UNL     1       0.543  10.103  21.084  0.00  0.00    +0.000 A 
ATOM      5  N   UNL     1       0.839  10.050  19.731  0.00  0.00    +0.000 N 
ENDROOT
BRANCH   4   6
ATOM      6  C   UNL     1      -0.147  11.178  21.793  0.00  0.00    +0.000 A 
ATOM      7  C   UNL     1      -1.226  10.932  22.632  0.00  0.00    +0.000 A 
ATOM      8  N   UNL     1      -1.871  11.914  23.316  0.00  0.00    +0.000 NA
ATOM      9  C   UNL     1      -1.374  13.159  23.146  0.00  0.00    +0.000 A 
ATOM     10  C   UNL     1      -0.289  13.412  22.325  0.00  0.00    +0.000 A 
ATOM     11  N   UNL     1       0.339  12.435  21.627  0.00  0.00    +0.000 NA
ENDBRANCH   4   6
BRANCH   1  12
ATOM     12  S   UNL     1       2.196   8.346  18.041  0.00  0.00    +0.000 S 
BRANCH  12  13
ATOM     13  C   UNL     1       2.133   6.524  18.232  0.00  0.00    +0.000 C 
BRANCH  13  14
ATOM     14  C   UNL     1       3.517   5.929  18.496  0.00  0.00    +0.000 C 
ATOM     15  O   UNL     1       3.985   5.781  19.625  0.00  0.00    +0.000 OA
BRANCH  14  19
ATOM     16  C   UNL     1       5.887   4.538  15.148  0.00  0.00    +0.000 A 
ATOM     17  C   UNL     1       5.400   3.654  16.110  0.00  0.00    +0.000 A 
ATOM     18  C   UNL     1       4.634   4.122  17.184  0.00  0.00    +0.000 A 
ATOM     19  C   UNL     1       4.357   5.492  17.327  0.00  0.00    +0.000 A 
ATOM     20  C   UNL     1       4.875   6.380  16.377  0.00  0.00    +0.000 A 
ATOM     21  C   UNL     1       5.637   5.904  15.293  0.00  0.00    +0.000 A 
BRANCH  16  23
ATOM     22  C   UNL     1       5.903   3.625  12.962  0.00  0.00    +0.000 C 
ATOM     23  O   UNL     1       6.617   3.963  14.146  0.00  0.00    +0.000 OA
ENDBRANCH  16  23
ENDBRANCH  14  19
ENDBRANCH  13  14
ENDBRANCH  12  13
ENDBRANCH   1  12
BRANCH   5  24
ATOM     24  C   UNL     1       0.388  10.984  18.711  0.00  0.00    +0.000 C 
BRANCH  24  25
ATOM     25  C   UNL     1      -0.996  10.709  18.246  0.00  0.00    +0.000 A 
ATOM     26  C   UNL     1      -1.570   9.814  17.364  0.00  0.00    +0.000 A 
ATOM     27  C   UNL     1      -2.951  10.122  17.317  0.00  0.00    +0.000 A 
ATOM     28  C   UNL     1      -3.138  11.172  18.185  0.00  0.00    +0.000 A 
ATOM     29  O   UNL     1      -1.961  11.532  18.756  0.00  0.00    +0.000 OA
ENDBRANCH  24  25
ENDBRANCH   5  24
TORSDOF 8
ENDMDL
MODEL 9
REMARK VINA RESULT:      -7.1      2.121      3.316
REMARK  Name = 
REMARK  9 active torsions:
REMARK  status: ('A' for Active; 'I' for Inactive)
REMARK    1  A    between atoms: C_1  and  O_2
REMARK    2  A    between atoms: O_2  and  C_3
REMARK    3  A    between atoms: C_6  and  C_7
REMARK    4  A    between atoms: C_7  and  C_9
REMARK    5  A    between atoms: C_9  and  S_10
REMARK    6  A    between atoms: S_10  and  C_11
REMARK    7  A    between atoms: C_14  and  C_15
REMARK    8  A    between atoms: N_21  and  C_22
REMARK    9  A    between atoms: C_22  and  C_23
REMARK                            x       y       z     vdW  Elec       q    Type
REMARK                         _______ _______ _______ _____ _____    ______ ____
ROOT
ATOM      1  C   UNL     1       2.356   7.636  19.062  0.00  0.00    +0.000 A 
ATOM      2  N   UNL     1       2.269   8.347  17.965  0.00  0.00    +0.000 NA
ATOM      3  N   UNL     1       3.171   7.840  17.066  0.00  0.00    +0.000 NA
ATOM      4  C   UNL     1       3.824   6.837  17.633  0.00  0.00    +0.000 A 
ATOM      5  N   UNL     1       3.299   6.650  18.902  0.00  0.00    +0.000 N 
ENDROOT
BRANCH   4   6
ATOM      6  C   UNL     1       4.899   6.075  17.003  0.00  0.00    +0.000 A 
ATOM      7  C   UNL     1       6.186   6.582  16.880  0.00  0.00    +0.000 A 
ATOM      8  N   UNL     1       7.206   5.883  16.314  0.00  0.00    +0.000 NA
ATOM      9  C   UNL     1       6.891   4.637  15.897  0.00  0.00    +0.000 A 
ATOM     10  C   UNL     1       5.616   4.117  16.032  0.00  0.00    +0.000 A 
ATOM     11  N   UNL     1       4.596   4.822  16.576  0.00  0.00    +0.000 NA
ENDBRANCH   4   6
BRANCH   1  12
ATOM     12  S   UNL     1       1.428   7.891  20.502  0.00  0.00    +0.000 S 
BRANCH  12  13
ATOM     13  C   UNL     1       1.342   9.721  20.569  0.00  0.00    +0.000 C 
BRANCH  13  14
ATOM     14  C   UNL     1      -0.020  10.246  20.113  0.00  0.00    +0.000 C 
ATOM     15  O   UNL     1      -0.466  10.074  18.978  0.00  0.00    +0.000 OA
BRANCH  14  19
ATOM     16  C   UNL     1      -2.557  12.479  22.822  0.00  0.00    +0.000 A 
ATOM     17  C   UNL     1      -2.554  12.737  21.453  0.00  0.00    +0.000 A 
ATOM     18  C   UNL     1      -1.728  12.004  20.592  0.00  0.00    +0.000 A 
ATOM     19  C   UNL     1      -0.872  11.008  21.092  0.00  0.00    +0.000 A 
ATOM     20  C   UNL     1      -0.854  10.775  22.472  0.00  0.00    +0.000 A 
ATOM     21  C   UNL     1      -1.693  11.508  23.333  0.00  0.00    +0.000 A 
BRANCH  16  23
ATOM     22  C   UNL     1      -4.236  12.571  24.490  0.00  0.00    +0.000 C 
ATOM     23  O   UNL     1      -3.407  13.256  23.559  0.00  0.00    +0.000 OA
ENDBRANCH  16  23
ENDBRANCH  14  19
ENDBRANCH  13  14
ENDBRANCH  12  13
ENDBRANCH   1  12
BRANCH   5  24
ATOM     24  C   UNL     1       3.606   5.557  19.810  0.00  0.00    +0.000 C 
BRANCH  24  25
ATOM     25  C   UNL     1       2.555   4.506  19.827  0.00  0.00    +0.000 A 
ATOM     26  C   UNL     1       1.823   3.842  18.862  0.00  0.00    +0.000 A 
ATOM     27  C   UNL     1       0.922   2.995  19.551  0.00  0.00    +0.000 A 
ATOM     28  C   UNL     1       1.170   3.181  20.890  0.00  0.00    +0.000 A 
ATOM     29  O   UNL     1       2.160   4.090  21.068  0.00  0.00    +0.000 OA
ENDBRANCH  24  25
ENDBRANCH   5  24
TORSDOF 8
ENDMDL
