MODEL 1
REMARK VINA RESULT:      -7.8      0.000      0.000
REMARK  Name = 
REMARK  3 active torsions:
REMARK  status: ('A' for Active; 'I' for Inactive)
REMARK    1  A    between atoms: C_2  and  C_3
REMARK    2  A    between atoms: C_15  and  S_16
REMARK    3  A    between atoms: S_16  and  O_19
REMARK                            x       y       z     vdW  Elec       q    Type
REMARK                         _______ _______ _______ _____ _____    ______ ____
ROOT
ATOM      1  O   UNL     1       6.907   5.307  19.870  0.00  0.00    +0.000 OA
ATOM      2  C   UNL     1       6.758   5.732  18.721  0.00  0.00    +0.000 C 
ATOM      3  N   UNL     1       5.946   4.961  17.844  0.00  0.00    +0.000 N 
ATOM      4  C   UNL     1       4.830   4.190  18.228  0.00  0.00    +0.000 A 
ATOM      5  C   UNL     1       4.410   3.434  17.141  0.00  0.00    +0.000 A 
ATOM      6  C   UNL     1       5.197   3.845  16.039  0.00  0.00    +0.000 A 
ATOM      7  C   UNL     1       5.147   3.450  14.691  0.00  0.00    +0.000 A 
ATOM      8  C   UNL     1       6.054   3.982  13.787  0.00  0.00    +0.000 A 
ATOM      9  C   UNL     1       7.030   4.885  14.205  0.00  0.00    +0.000 A 
ATOM     10  C   UNL     1       7.085   5.298  15.550  0.00  0.00    +0.000 A 
ATOM     11  C   UNL     1       6.138   4.785  16.463  0.00  0.00    +0.000 A 
ATOM     12  C   UNL     1       3.301   2.423  16.976  0.00  0.00    +0.000 C 
ATOM     13  C   UNL     1       2.434   2.086  18.178  0.00  0.00    +0.000 C 
ATOM     14  C   UNL     1       1.398   3.153  18.540  0.00  0.00    +0.000 C 
ATOM     15  C   UNL     1       1.834   4.615  18.465  0.00  0.00    +0.000 C 
ATOM     16  C   UNL     1       2.848   5.047  19.527  0.00  0.00    +0.000 C 
ATOM     17  C   UNL     1       4.178   4.287  19.577  0.00  0.00    +0.000 C 
ENDROOT
BRANCH   2  18
ATOM     18  C   UNL     1       7.432   7.020  18.420  0.00  0.00    +0.000 A 
ATOM     19  C   UNL     1       8.523   7.427  19.208  0.00  0.00    +0.000 A 
ATOM     20  C   UNL     1       9.074   8.703  19.049  0.00  0.00    +0.000 A 
ATOM     21  C   UNL     1       8.524   9.579  18.117  0.00  0.00    +0.000 A 
ATOM     22 CL   UNL     1       9.172  11.163  17.945  0.00  0.00    +0.000 Cl
ATOM     23  C   UNL     1       7.430   9.190  17.342  0.00  0.00    +0.000 A 
ATOM     24  C   UNL     1       6.881   7.911  17.491  0.00  0.00    +0.000 A 
ENDBRANCH   2  18
BRANCH   8  25
ATOM     25  S   UNL     1       5.946   3.413  12.116  0.00  0.00    +0.000 S 
ATOM     26  O   UNL     1       4.571   3.583  11.686  0.00  0.00    +0.000 OA
ATOM     27  O   UNL     1       7.054   3.978  11.393  0.00  0.00    +0.000 OA
BRANCH  25  28
ATOM     28  O   UNL     1       6.144   1.816  12.219  0.00  0.00    +0.000 OA
ATOM     29  H   UNL     1       6.254   1.479  11.304  0.00  0.00    +0.000 HD
ENDBRANCH  25  28
ENDBRANCH   8  25
TORSDOF 3
ENDMDL
MODEL 2
REMARK VINA RESULT:      -7.7      9.092     11.261
REMARK  Name = 
REMARK  3 active torsions:
REMARK  status: ('A' for Active; 'I' for Inactive)
REMARK    1  A    between atoms: C_2  and  C_3
REMARK    2  A    between atoms: C_15  and  S_16
REMARK    3  A    between atoms: S_16  and  O_19
REMARK                            x       y       z     vdW  Elec       q    Type
REMARK                         _______ _______ _______ _____ _____    ______ ____
ROOT
ATOM      1  O   UNL     1      -1.579  10.446  18.797  0.00  0.00    +0.000 OA
ATOM      2  C   UNL     1      -0.448  10.838  19.094  0.00  0.00    +0.000 C 
ATOM      3  N   UNL     1      -0.300  12.220  19.402  0.00  0.00    +0.000 N 
ATOM      4  C   UNL     1      -1.275  13.030  20.017  0.00  0.00    +0.000 A 
ATOM      5  C   UNL     1      -0.849  14.352  19.981  0.00  0.00    +0.000 A 
ATOM      6  C   UNL     1       0.464  14.336  19.455  0.00  0.00    +0.000 A 
ATOM      7  C   UNL     1       1.377  15.387  19.262  0.00  0.00    +0.000 A 
ATOM      8  C   UNL     1       2.615  15.124  18.696  0.00  0.00    +0.000 A 
ATOM      9  C   UNL     1       2.955  13.832  18.294  0.00  0.00    +0.000 A 
ATOM     10  C   UNL     1       2.055  12.768  18.492  0.00  0.00    +0.000 A 
ATOM     11  C   UNL     1       0.808  13.030  19.102  0.00  0.00    +0.000 A 
ATOM     12  C   UNL     1      -1.487  15.636  20.455  0.00  0.00    +0.000 C 
ATOM     13  C   UNL     1      -2.866  15.577  21.090  0.00  0.00    +0.000 C 
ATOM     14  C   UNL     1      -2.888  15.044  22.525  0.00  0.00    +0.000 C 
ATOM     15  C   UNL     1      -1.991  13.851  22.849  0.00  0.00    +0.000 C 
ATOM     16  C   UNL     1      -2.413  12.527  22.208  0.00  0.00    +0.000 C 
ATOM     17  C   UNL     1      -2.509  12.487  20.679  0.00  0.00    +0.000 C 
ENDROOT
BRANCH   2  18
ATOM     18  C   UNL     1       0.609   9.796  19.119  0.00  0.00    +0.000 A 
ATOM     19  C   UNL     1       1.199   9.386  17.911  0.00  0.00    +0.000 A 
ATOM     20  C   UNL     1       2.079   8.298  17.886  0.00  0.00    +0.000 A 
ATOM     21  C   UNL     1       2.355   7.609  19.065  0.00  0.00    +0.000 A 
ATOM     22 CL   UNL     1       3.405   6.247  19.033  0.00  0.00    +0.000 Cl
ATOM     23  C   UNL     1       1.760   7.999  20.265  0.00  0.00    +0.000 A 
ATOM     24  C   UNL     1       0.886   9.092  20.296  0.00  0.00    +0.000 A 
ENDBRANCH   2  18
BRANCH   8  25
ATOM     25  S   UNL     1       3.696  16.503  18.459  0.00  0.00    +0.000 S 
ATOM     26  O   UNL     1       3.448  17.441  19.537  0.00  0.00    +0.000 OA
ATOM     27  O   UNL     1       5.007  15.983  18.177  0.00  0.00    +0.000 OA
BRANCH  25  28
ATOM     28  O   UNL     1       3.127  17.240  17.142  0.00  0.00    +0.000 OA
ATOM     29  H   UNL     1       2.159  17.084  17.119  0.00  0.00    +0.000 HD
ENDBRANCH  25  28
ENDBRANCH   8  25
TORSDOF 3
ENDMDL
MODEL 3
REMARK VINA RESULT:      -7.0      8.765     10.997
REMARK  Name = 
REMARK  3 active torsions:
REMARK  status: ('A' for Active; 'I' for Inactive)
REMARK    1  A    between atoms: C_2  and  C_3
REMARK    2  A    between atoms: C_15  and  S_16
REMARK    3  A    between atoms: S_16  and  O_19
REMARK                            x       y       z     vdW  Elec       q    Type
REMARK                         _______ _______ _______ _____ _____    ______ ____
ROOT
ATOM      1  O   UNL     1      -1.667  10.560  18.960  0.00  0.00    +0.000 OA
ATOM      2  C   UNL     1      -0.473  10.792  19.172  0.00  0.00    +0.000 C 
ATOM      3  N   UNL     1      -0.126  12.125  19.527  0.00  0.00    +0.000 N 
ATOM      4  C   UNL     1      -0.934  13.013  20.265  0.00  0.00    +0.000 A 
ATOM      5  C   UNL     1      -0.347  14.272  20.251  0.00  0.00    +0.000 A 
ATOM      6  C   UNL     1       0.904  14.124  19.608  0.00  0.00    +0.000 A 
ATOM      7  C   UNL     1       1.925  15.064  19.382  0.00  0.00    +0.000 A 
ATOM      8  C   UNL     1       3.068  14.683  18.696  0.00  0.00    +0.000 A 
ATOM      9  C   UNL     1       3.205  13.384  18.206  0.00  0.00    +0.000 A 
ATOM     10  C   UNL     1       2.196  12.430  18.435  0.00  0.00    +0.000 A 
ATOM     11  C   UNL     1       1.048  12.808  19.167  0.00  0.00    +0.000 A 
ATOM     12  C   UNL     1      -0.773  15.596  20.839  0.00  0.00    +0.000 C 
ATOM     13  C   UNL     1      -2.091  15.671  21.592  0.00  0.00    +0.000 C 
ATOM     14  C   UNL     1      -2.061  15.065  22.998  0.00  0.00    +0.000 C 
ATOM     15  C   UNL     1      -1.300  13.754  23.184  0.00  0.00    +0.000 C 
ATOM     16  C   UNL     1      -1.940  12.531  22.524  0.00  0.00    +0.000 C 
ATOM     17  C   UNL     1      -2.168  12.590  21.010  0.00  0.00    +0.000 C 
ENDROOT
BRANCH   2  18
ATOM     18  C   UNL     1       0.439   9.628  19.053  0.00  0.00    +0.000 A 
ATOM     19  C   UNL     1       0.853   8.956  20.217  0.00  0.00    +0.000 A 
ATOM     20  C   UNL     1       1.833   7.960  20.149  0.00  0.00    +0.000 A 
ATOM     21  C   UNL     1       2.414   7.648  18.922  0.00  0.00    +0.000 A 
ATOM     22 CL   UNL     1       3.647   6.453  18.839  0.00  0.00    +0.000 Cl
ATOM     23  C   UNL     1       2.021   8.321  17.765  0.00  0.00    +0.000 A 
ATOM     24  C   UNL     1       1.035   9.313  17.826  0.00  0.00    +0.000 A 
ENDBRANCH   2  18
BRANCH   8  25
ATOM     25  S   UNL     1       4.292  15.930  18.425  0.00  0.00    +0.000 S 
ATOM     26  O   UNL     1       5.442  15.287  17.818  0.00  0.00    +0.000 OA
ATOM     27  O   UNL     1       3.635  17.059  17.824  0.00  0.00    +0.000 OA
BRANCH  25  28
ATOM     28  O   UNL     1       4.790  16.336  19.905  0.00  0.00    +0.000 OA
ATOM     29  H   UNL     1       5.604  16.872  19.798  0.00  0.00    +0.000 HD
ENDBRANCH  25  28
ENDBRANCH   8  25
TORSDOF 3
ENDMDL
MODEL 4
REMARK VINA RESULT:      -7.0     10.022     11.932
REMARK  Name = 
REMARK  3 active torsions:
REMARK  status: ('A' for Active; 'I' for Inactive)
REMARK    1  A    between atoms: C_2  and  C_3
REMARK    2  A    between atoms: C_15  and  S_16
REMARK    3  A    between atoms: S_16  and  O_19
REMARK                            x       y       z     vdW  Elec       q    Type
REMARK                         _______ _______ _______ _____ _____    ______ ____
ROOT
ATOM      1  O   UNL     1      -0.541  11.724  23.094  0.00  0.00    +0.000 OA
ATOM      2  C   UNL     1      -0.653  12.724  22.379  0.00  0.00    +0.000 C 
ATOM      3  N   UNL     1       0.092  12.741  21.167  0.00  0.00    +0.000 N 
ATOM      4  C   UNL     1       0.405  11.612  20.383  0.00  0.00    +0.000 A 
ATOM      5  C   UNL     1       1.298  11.990  19.388  0.00  0.00    +0.000 A 
ATOM      6  C   UNL     1       1.431  13.396  19.481  0.00  0.00    +0.000 A 
ATOM      7  C   UNL     1       2.158  14.293  18.681  0.00  0.00    +0.000 A 
ATOM      8  C   UNL     1       2.155  15.645  18.991  0.00  0.00    +0.000 A 
ATOM      9  C   UNL     1       1.459  16.120  20.101  0.00  0.00    +0.000 A 
ATOM     10  C   UNL     1       0.717  15.234  20.905  0.00  0.00    +0.000 A 
ATOM     11  C   UNL     1       0.689  13.862  20.568  0.00  0.00    +0.000 A 
ATOM     12  C   UNL     1       1.988  11.210  18.295  0.00  0.00    +0.000 C 
ATOM     13  C   UNL     1       1.738   9.715  18.195  0.00  0.00    +0.000 C 
ATOM     14  C   UNL     1       0.380   9.330  17.601  0.00  0.00    +0.000 C 
ATOM     15  C   UNL     1      -0.836  10.147  18.033  0.00  0.00    +0.000 C 
ATOM     16  C   UNL     1      -1.266   9.953  19.489  0.00  0.00    +0.000 C 
ATOM     17  C   UNL     1      -0.231  10.265  20.574  0.00  0.00    +0.000 C 
ENDROOT
BRANCH   2  18
ATOM     18  C   UNL     1      -1.583  13.769  22.876  0.00  0.00    +0.000 A 
ATOM     19  C   UNL     1      -1.249  14.495  24.032  0.00  0.00    +0.000 A 
ATOM     20  C   UNL     1      -2.174  15.370  24.611  0.00  0.00    +0.000 A 
ATOM     21  C   UNL     1      -3.440  15.506  24.045  0.00  0.00    +0.000 A 
ATOM     22 CL   UNL     1      -4.594  16.551  24.775  0.00  0.00    +0.000 Cl
ATOM     23  C   UNL     1      -3.786  14.777  22.907  0.00  0.00    +0.000 A 
ATOM     24  C   UNL     1      -2.860  13.907  22.319  0.00  0.00    +0.000 A 
ENDBRANCH   2  18
BRANCH   8  25
ATOM     25  S   UNL     1       3.119  16.706  17.954  0.00  0.00    +0.000 S 
ATOM     26  O   UNL     1       2.210  17.651  17.333  0.00  0.00    +0.000 OA
ATOM     27  O   UNL     1       4.267  17.126  18.712  0.00  0.00    +0.000 OA
BRANCH  25  28
ATOM     28  O   UNL     1       3.605  15.756  16.744  0.00  0.00    +0.000 OA
ATOM     29  H   UNL     1       4.560  15.932  16.606  0.00  0.00    +0.000 HD
ENDBRANCH  25  28
ENDBRANCH   8  25
TORSDOF 3
ENDMDL
MODEL 5
REMARK VINA RESULT:      -7.0      9.535     11.456
REMARK  Name = 
REMARK  3 active torsions:
REMARK  status: ('A' for Active; 'I' for Inactive)
REMARK    1  A    between atoms: C_2  and  C_3
REMARK    2  A    between atoms: C_15  and  S_16
REMARK    3  A    between atoms: S_16  and  O_19
REMARK                            x       y       z     vdW  Elec       q    Type
REMARK                         _______ _______ _______ _____ _____    ______ ____
ROOT
ATOM      1  O   UNL     1       9.029  13.981  23.734  0.00  0.00    +0.000 OA
ATOM      2  C   UNL     1       7.923  13.711  23.260  0.00  0.00    +0.000 C 
ATOM      3  N   UNL     1       7.738  13.946  21.869  0.00  0.00    +0.000 N 
ATOM      4  C   UNL     1       8.736  13.830  20.880  0.00  0.00    +0.000 A 
ATOM      5  C   UNL     1       8.237  14.318  19.679  0.00  0.00    +0.000 A 
ATOM      6  C   UNL     1       6.872  14.616  19.903  0.00  0.00    +0.000 A 
ATOM      7  C   UNL     1       5.886  15.078  19.013  0.00  0.00    +0.000 A 
ATOM      8  C   UNL     1       4.604  15.325  19.481  0.00  0.00    +0.000 A 
ATOM      9  C   UNL     1       4.289  15.146  20.827  0.00  0.00    +0.000 A 
ATOM     10  C   UNL     1       5.263  14.674  21.726  0.00  0.00    +0.000 A 
ATOM     11  C   UNL     1       6.559  14.385  21.244  0.00  0.00    +0.000 A 
ATOM     12  C   UNL     1       8.856  14.469  18.310  0.00  0.00    +0.000 C 
ATOM     13  C   UNL     1      10.303  14.051  18.112  0.00  0.00    +0.000 C 
ATOM     14  C   UNL     1      10.530  12.539  18.040  0.00  0.00    +0.000 C 
ATOM     15  C   UNL     1       9.746  11.661  19.013  0.00  0.00    +0.000 C 
ATOM     16  C   UNL     1      10.158  11.789  20.482  0.00  0.00    +0.000 C 
ATOM     17  C   UNL     1      10.069  13.180  21.116  0.00  0.00    +0.000 C 
ENDROOT
BRANCH   2  18
ATOM     18  C   UNL     1       6.936  13.143  24.212  0.00  0.00    +0.000 A 
ATOM     19  C   UNL     1       6.383  13.970  25.205  0.00  0.00    +0.000 A 
ATOM     20  C   UNL     1       5.575  13.427  26.210  0.00  0.00    +0.000 A 
ATOM     21  C   UNL     1       5.335  12.055  26.234  0.00  0.00    +0.000 A 
ATOM     22 CL   UNL     1       4.376  11.377  27.490  0.00  0.00    +0.000 Cl
ATOM     23  C   UNL     1       5.894  11.224  25.263  0.00  0.00    +0.000 A 
ATOM     24  C   UNL     1       6.696  11.764  24.250  0.00  0.00    +0.000 A 
ENDBRANCH   2  18
BRANCH   8  25
ATOM     25  S   UNL     1       3.428  15.933  18.307  0.00  0.00    +0.000 S 
ATOM     26  O   UNL     1       2.118  15.473  18.726  0.00  0.00    +0.000 OA
ATOM     27  O   UNL     1       3.720  17.322  18.080  0.00  0.00    +0.000 OA
BRANCH  25  28
ATOM     28  O   UNL     1       3.737  15.102  16.959  0.00  0.00    +0.000 OA
ATOM     29  H   UNL     1       4.021  15.751  16.279  0.00  0.00    +0.000 HD
ENDBRANCH  25  28
ENDBRANCH   8  25
TORSDOF 3
ENDMDL
MODEL 6
REMARK VINA RESULT:      -6.8      9.474     11.634
REMARK  Name = 
REMARK  3 active torsions:
REMARK  status: ('A' for Active; 'I' for Inactive)
REMARK    1  A    between atoms: C_2  and  C_3
REMARK    2  A    between atoms: C_15  and  S_16
REMARK    3  A    between atoms: S_16  and  O_19
REMARK                            x       y       z     vdW  Elec       q    Type
REMARK                         _______ _______ _______ _____ _____    ______ ____
ROOT
ATOM      1  O   UNL     1      -2.237  10.999  18.830  0.00  0.00    +0.000 OA
ATOM      2  C   UNL     1      -1.066  11.269  19.113  0.00  0.00    +0.000 C 
ATOM      3  N   UNL     1      -0.775  12.621  19.447  0.00  0.00    +0.000 N 
ATOM      4  C   UNL     1      -1.652  13.510  20.099  0.00  0.00    +0.000 A 
ATOM      5  C   UNL     1      -1.096  14.783  20.082  0.00  0.00    +0.000 A 
ATOM      6  C   UNL     1       0.199  14.648  19.529  0.00  0.00    +0.000 A 
ATOM      7  C   UNL     1       1.210  15.606  19.341  0.00  0.00    +0.000 A 
ATOM      8  C   UNL     1       2.405  15.233  18.745  0.00  0.00    +0.000 A 
ATOM      9  C   UNL     1       2.606  13.924  18.309  0.00  0.00    +0.000 A 
ATOM     10  C   UNL     1       1.607  12.951  18.501  0.00  0.00    +0.000 A 
ATOM     11  C   UNL     1       0.404  13.322  19.142  0.00  0.00    +0.000 A 
ATOM     12  C   UNL     1      -1.592  16.113  20.597  0.00  0.00    +0.000 C 
ATOM     13  C   UNL     1      -2.958  16.178  21.258  0.00  0.00    +0.000 C 
ATOM     14  C   UNL     1      -3.009  15.618  22.682  0.00  0.00    +0.000 C 
ATOM     15  C   UNL     1      -2.231  14.333  22.962  0.00  0.00    +0.000 C 
ATOM     16  C   UNL     1      -2.796  13.073  22.301  0.00  0.00    +0.000 C 
ATOM     17  C   UNL     1      -2.923  13.079  20.774  0.00  0.00    +0.000 C 
ENDROOT
BRANCH   2  18
ATOM     18  C   UNL     1      -0.120  10.125  19.094  0.00  0.00    +0.000 A 
ATOM     19  C   UNL     1       0.285   9.547  20.310  0.00  0.00    +0.000 A 
ATOM     20  C   UNL     1       1.293   8.576  20.331  0.00  0.00    +0.000 A 
ATOM     21  C   UNL     1       1.909   8.198  19.141  0.00  0.00    +0.000 A 
ATOM     22 CL   UNL     1       3.176   7.035  19.166  0.00  0.00    +0.000 Cl
ATOM     23  C   UNL     1       1.525   8.779  17.932  0.00  0.00    +0.000 A 
ATOM     24  C   UNL     1       0.511   9.744  17.904  0.00  0.00    +0.000 A 
ENDBRANCH   2  18
BRANCH   8  25
ATOM     25  S   UNL     1       3.615  16.502  18.515  0.00  0.00    +0.000 S 
ATOM     26  O   UNL     1       3.490  17.430  19.623  0.00  0.00    +0.000 OA
ATOM     27  O   UNL     1       4.859  15.861  18.185  0.00  0.00    +0.000 OA
BRANCH  25  28
ATOM     28  O   UNL     1       3.094  17.331  17.233  0.00  0.00    +0.000 OA
ATOM     29  H   UNL     1       2.339  17.882  17.533  0.00  0.00    +0.000 HD
ENDBRANCH  25  28
ENDBRANCH   8  25
TORSDOF 3
ENDMDL
MODEL 7
REMARK VINA RESULT:      -6.8      8.721     10.771
REMARK  Name = 
REMARK  3 active torsions:
REMARK  status: ('A' for Active; 'I' for Inactive)
REMARK    1  A    between atoms: C_2  and  C_3
REMARK    2  A    between atoms: C_15  and  S_16
REMARK    3  A    between atoms: S_16  and  O_19
REMARK                            x       y       z     vdW  Elec       q    Type
REMARK                         _______ _______ _______ _____ _____    ______ ____
ROOT
ATOM      1  O   UNL     1       1.485  10.272  21.751  0.00  0.00    +0.000 OA
ATOM      2  C   UNL     1       1.002  10.158  20.621  0.00  0.00    +0.000 C 
ATOM      3  N   UNL     1       0.072  11.154  20.211  0.00  0.00    +0.000 N 
ATOM      4  C   UNL     1       0.102  12.509  20.595  0.00  0.00    +0.000 A 
ATOM      5  C   UNL     1      -1.062  13.127  20.155  0.00  0.00    +0.000 A 
ATOM      6  C   UNL     1      -1.754  12.169  19.376  0.00  0.00    +0.000 A 
ATOM      7  C   UNL     1      -2.950  12.286  18.647  0.00  0.00    +0.000 A 
ATOM      8  C   UNL     1      -3.451  11.183  17.972  0.00  0.00    +0.000 A 
ATOM      9  C   UNL     1      -2.795   9.954  18.029  0.00  0.00    +0.000 A 
ATOM     10  C   UNL     1      -1.591   9.826  18.746  0.00  0.00    +0.000 A 
ATOM     11  C   UNL     1      -1.060  10.959  19.402  0.00  0.00    +0.000 A 
ATOM     12  C   UNL     1      -1.580  14.537  20.302  0.00  0.00    +0.000 C 
ATOM     13  C   UNL     1      -0.749  15.544  21.080  0.00  0.00    +0.000 C 
ATOM     14  C   UNL     1       0.475  16.079  20.333  0.00  0.00    +0.000 C 
ATOM     15  C   UNL     1       1.293  15.082  19.514  0.00  0.00    +0.000 C 
ATOM     16  C   UNL     1       2.075  14.053  20.334  0.00  0.00    +0.000 C 
ATOM     17  C   UNL     1       1.273  13.154  21.279  0.00  0.00    +0.000 C 
ENDROOT
BRANCH   2  18
ATOM     18  C   UNL     1       1.486   9.001  19.828  0.00  0.00    +0.000 A 
ATOM     19  C   UNL     1       1.716   7.772  20.472  0.00  0.00    +0.000 A 
ATOM     20  C   UNL     1       2.320   6.714  19.785  0.00  0.00    +0.000 A 
ATOM     21  C   UNL     1       2.712   6.889  18.460  0.00  0.00    +0.000 A 
ATOM     22 CL   UNL     1       3.492   5.605  17.622  0.00  0.00    +0.000 Cl
ATOM     23  C   UNL     1       2.504   8.110  17.818  0.00  0.00    +0.000 A 
ATOM     24  C   UNL     1       1.892   9.169  18.499  0.00  0.00    +0.000 A 
ENDBRANCH   2  18
BRANCH   8  25
ATOM     25  S   UNL     1      -4.977  11.402  17.103  0.00  0.00    +0.000 S 
ATOM     26  O   UNL     1      -4.731  11.090  15.708  0.00  0.00    +0.000 OA
ATOM     27  O   UNL     1      -6.007  10.753  17.868  0.00  0.00    +0.000 OA
BRANCH  25  28
ATOM     28  O   UNL     1      -5.229  12.995  17.125  0.00  0.00    +0.000 OA
ATOM     29  H   UNL     1      -4.577  13.382  17.748  0.00  0.00    +0.000 HD
ENDBRANCH  25  28
ENDBRANCH   8  25
TORSDOF 3
ENDMDL
MODEL 8
REMARK VINA RESULT:      -6.8     10.752     12.667
REMARK  Name = 
REMARK  3 active torsions:
REMARK  status: ('A' for Active; 'I' for Inactive)
REMARK    1  A    between atoms: C_2  and  C_3
REMARK    2  A    between atoms: C_15  and  S_16
REMARK    3  A    between atoms: S_16  and  O_19
REMARK                            x       y       z     vdW  Elec       q    Type
REMARK                         _______ _______ _______ _____ _____    ______ ____
ROOT
ATOM      1  O   UNL     1      -1.434  17.053  22.384  0.00  0.00    +0.000 OA
ATOM      2  C   UNL     1      -1.163  16.154  21.583  0.00  0.00    +0.000 C 
ATOM      3  N   UNL     1      -1.507  14.826  21.958  0.00  0.00    +0.000 N 
ATOM      4  C   UNL     1      -2.617  14.459  22.745  0.00  0.00    +0.000 A 
ATOM      5  C   UNL     1      -2.521  13.109  23.058  0.00  0.00    +0.000 A 
ATOM      6  C   UNL     1      -1.407  12.611  22.342  0.00  0.00    +0.000 A 
ATOM      7  C   UNL     1      -0.900  11.303  22.249  0.00  0.00    +0.000 A 
ATOM      8  C   UNL     1       0.238  11.062  21.494  0.00  0.00    +0.000 A 
ATOM      9  C   UNL     1       0.899  12.106  20.848  0.00  0.00    +0.000 A 
ATOM     10  C   UNL     1       0.397  13.418  20.924  0.00  0.00    +0.000 A 
ATOM     11  C   UNL     1      -0.784  13.658  21.662  0.00  0.00    +0.000 A 
ATOM     12  C   UNL     1      -3.393  12.195  23.884  0.00  0.00    +0.000 C 
ATOM     13  C   UNL     1      -4.625  12.773  24.559  0.00  0.00    +0.000 C 
ATOM     14  C   UNL     1      -5.806  13.038  23.621  0.00  0.00    +0.000 C 
ATOM     15  C   UNL     1      -5.496  13.637  22.250  0.00  0.00    +0.000 C 
ATOM     16  C   UNL     1      -5.010  15.089  22.269  0.00  0.00    +0.000 C 
ATOM     17  C   UNL     1      -3.745  15.394  23.078  0.00  0.00    +0.000 C 
ENDROOT
BRANCH   2  18
ATOM     18  C   UNL     1      -0.534  16.593  20.312  0.00  0.00    +0.000 A 
ATOM     19  C   UNL     1       0.797  17.048  20.323  0.00  0.00    +0.000 A 
ATOM     20  C   UNL     1       1.361  17.615  19.176  0.00  0.00    +0.000 A 
ATOM     21  C   UNL     1       0.591  17.744  18.022  0.00  0.00    +0.000 A 
ATOM     22 CL   UNL     1       1.268  18.476  16.621  0.00  0.00    +0.000 Cl
ATOM     23  C   UNL     1      -0.735  17.311  18.007  0.00  0.00    +0.000 A 
ATOM     24  C   UNL     1      -1.301  16.735  19.150  0.00  0.00    +0.000 A 
ENDBRANCH   2  18
BRANCH   8  25
ATOM     25  S   UNL     1       0.830   9.396  21.449  0.00  0.00    +0.000 S 
ATOM     26  O   UNL     1       1.201   9.102  20.078  0.00  0.00    +0.000 OA
ATOM     27  O   UNL     1       1.746   9.232  22.546  0.00  0.00    +0.000 OA
BRANCH  25  28
ATOM     28  O   UNL     1      -0.480   8.493  21.718  0.00  0.00    +0.000 OA
ATOM     29  H   UNL     1      -1.099   8.657  20.975  0.00  0.00    +0.000 HD
ENDBRANCH  25  28
ENDBRANCH   8  25
TORSDOF 3
ENDMDL
MODEL 9
REMARK VINA RESULT:      -6.8     10.422     11.935
REMARK  Name = 
REMARK  3 active torsions:
REMARK  status: ('A' for Active; 'I' for Inactive)
REMARK    1  A    between atoms: C_2  and  C_3
REMARK    2  A    between atoms: C_15  and  S_16
REMARK    3  A    between atoms: S_16  and  O_19
REMARK                            x       y       z     vdW  Elec       q    Type
REMARK                         _______ _______ _______ _____ _____    ______ ____
ROOT
ATOM      1  O   UNL     1       1.555  14.374  22.273  0.00  0.00    +0.000 OA
ATOM      2  C   UNL     1       0.910  14.455  21.225  0.00  0.00    +0.000 C 
ATOM      3  N   UNL     1      -0.385  13.867  21.213  0.00  0.00    +0.000 N 
ATOM      4  C   UNL     1      -1.257  13.785  22.318  0.00  0.00    +0.000 A 
ATOM      5  C   UNL     1      -2.339  12.983  21.977  0.00  0.00    +0.000 A 
ATOM      6  C   UNL     1      -2.196  12.677  20.604  0.00  0.00    +0.000 A 
ATOM      7  C   UNL     1      -3.039  11.954  19.743  0.00  0.00    +0.000 A 
ATOM      8  C   UNL     1      -2.666  11.762  18.421  0.00  0.00    +0.000 A 
ATOM      9  C   UNL     1      -1.453  12.258  17.943  0.00  0.00    +0.000 A 
ATOM     10  C   UNL     1      -0.605  12.994  18.791  0.00  0.00    +0.000 A 
ATOM     11  C   UNL     1      -1.002  13.221  20.128  0.00  0.00    +0.000 A 
ATOM     12  C   UNL     1      -3.548  12.527  22.759  0.00  0.00    +0.000 C 
ATOM     13  C   UNL     1      -3.688  12.959  24.208  0.00  0.00    +0.000 C 
ATOM     14  C   UNL     1      -4.121  14.414  24.404  0.00  0.00    +0.000 C 
ATOM     15  C   UNL     1      -3.496  15.465  23.488  0.00  0.00    +0.000 C 
ATOM     16  C   UNL     1      -2.008  15.734  23.726  0.00  0.00    +0.000 C 
ATOM     17  C   UNL     1      -1.051  14.545  23.597  0.00  0.00    +0.000 C 
ENDROOT
BRANCH   2  18
ATOM     18  C   UNL     1       1.572  15.190  20.118  0.00  0.00    +0.000 A 
ATOM     19  C   UNL     1       1.028  16.411  19.680  0.00  0.00    +0.000 A 
ATOM     20  C   UNL     1       1.535  17.043  18.539  0.00  0.00    +0.000 A 
ATOM     21  C   UNL     1       2.572  16.447  17.826  0.00  0.00    +0.000 A 
ATOM     22 CL   UNL     1       3.173  17.201  16.401  0.00  0.00    +0.000 Cl
ATOM     23  C   UNL     1       3.107  15.228  18.244  0.00  0.00    +0.000 A 
ATOM     24  C   UNL     1       2.608  14.596  19.389  0.00  0.00    +0.000 A 
ENDBRANCH   2  18
BRANCH   8  25
ATOM     25  S   UNL     1      -3.765  10.816  17.408  0.00  0.00    +0.000 S 
ATOM     26  O   UNL     1      -3.125   9.541  17.144  0.00  0.00    +0.000 OA
ATOM     27  O   UNL     1      -5.078  10.913  17.986  0.00  0.00    +0.000 OA
BRANCH  25  28
ATOM     28  O   UNL     1      -3.758  11.575  15.985  0.00  0.00    +0.000 OA
ATOM     29  H   UNL     1      -2.821  11.759  15.761  0.00  0.00    +0.000 HD
ENDBRANCH  25  28
ENDBRANCH   8  25
TORSDOF 3
ENDMDL
