MODEL 1
REMARK VINA RESULT:      -8.0      0.000      0.000
REMARK  Name = 
REMARK  3 active torsions:
REMARK  status: ('A' for Active; 'I' for Inactive)
REMARK    1  A    between atoms: O_1  and  C_2
REMARK    2  A    between atoms: C_8  and  O_9
REMARK    3  A    between atoms: C_14  and  C_15
REMARK                            x       y       z     vdW  Elec       q    Type
REMARK                         _______ _______ _______ _____ _____    ______ ____
ROOT
ATOM      1  C   UNL     1       7.009   5.056  18.579  0.00  0.00    +0.000 A 
ATOM      2  C   UNL     1       5.930   5.414  19.378  0.00  0.00    +0.000 A 
ATOM      3  C   UNL     1       4.611   5.339  18.882  0.00  0.00    +0.000 A 
ATOM      4  C   UNL     1       4.380   4.869  17.566  0.00  0.00    +0.000 A 
ATOM      5  C   UNL     1       5.498   4.574  16.750  0.00  0.00    +0.000 A 
ATOM      6 CL   UNL     1       5.326   4.069  15.098  0.00  0.00    +0.000 Cl
ATOM      7  C   UNL     1       6.802   4.665  17.262  0.00  0.00    +0.000 A 
ATOM      8  C   UNL     1       2.957   4.644  17.091  0.00  0.00    +0.000 C 
ATOM      9  C   UNL     1       2.229   3.551  17.891  0.00  0.00    +0.000 C 
ATOM     10  N   UNL     1       1.678   3.953  19.188  0.00  0.00    +0.000 NA
ATOM     11  C   UNL     1       2.691   4.374  20.163  0.00  0.00    +0.000 C 
ATOM     12  C   UNL     1       3.464   5.687  19.841  0.00  0.00    +0.000 C 
ATOM     13  H   UNL     1       1.165   3.162  19.577  0.00  0.00    +0.000 HD
ENDROOT
BRANCH  12  14
ATOM     14  C   UNL     1       2.617   6.921  19.491  0.00  0.00    +0.000 A 
ATOM     15  C   UNL     1       1.788   7.522  20.459  0.00  0.00    +0.000 A 
ATOM     16  C   UNL     1       1.066   8.687  20.183  0.00  0.00    +0.000 A 
ATOM     17  C   UNL     1       1.166   9.281  18.932  0.00  0.00    +0.000 A 
ATOM     18 CL   UNL     1       0.302  10.731  18.601  0.00  0.00    +0.000 Cl
ATOM     19  C   UNL     1       1.978   8.715  17.955  0.00  0.00    +0.000 A 
ATOM     20  C   UNL     1       2.706   7.551  18.236  0.00  0.00    +0.000 A 
ENDBRANCH  12  14
BRANCH   1  21
ATOM     21  O   UNL     1       8.280   5.072  19.086  0.00  0.00    +0.000 OA
ATOM     22  H   UNL     1       8.821   5.697  18.581  0.00  0.00    +0.000 HD
ENDBRANCH   1  21
BRANCH   7  23
ATOM     23  O   UNL     1       7.891   4.349  16.491  0.00  0.00    +0.000 OA
ATOM     24  H   UNL     1       7.566   3.866  15.711  0.00  0.00    +0.000 HD
ENDBRANCH   7  23
TORSDOF 3
ENDMDL
MODEL 2
REMARK VINA RESULT:      -7.7      0.104      1.056
REMARK  Name = 
REMARK  3 active torsions:
REMARK  status: ('A' for Active; 'I' for Inactive)
REMARK    1  A    between atoms: O_1  and  C_2
REMARK    2  A    between atoms: C_8  and  O_9
REMARK    3  A    between atoms: C_14  and  C_15
REMARK                            x       y       z     vdW  Elec       q    Type
REMARK                         _______ _______ _______ _____ _____    ______ ____
ROOT
ATOM      1  C   UNL     1       7.005   5.022  18.555  0.00  0.00    +0.000 A 
ATOM      2  C   UNL     1       5.940   5.394  19.368  0.00  0.00    +0.000 A 
ATOM      3  C   UNL     1       4.617   5.371  18.877  0.00  0.00    +0.000 A 
ATOM      4  C   UNL     1       4.367   4.940  17.551  0.00  0.00    +0.000 A 
ATOM      5  C   UNL     1       5.472   4.631  16.724  0.00  0.00    +0.000 A 
ATOM      6 CL   UNL     1       5.278   4.171  15.061  0.00  0.00    +0.000 Cl
ATOM      7  C   UNL     1       6.780   4.670  17.231  0.00  0.00    +0.000 A 
ATOM      8  C   UNL     1       2.936   4.769  17.078  0.00  0.00    +0.000 C 
ATOM      9  C   UNL     1       2.178   3.680  17.855  0.00  0.00    +0.000 C 
ATOM     10  N   UNL     1       1.645   4.067  19.165  0.00  0.00    +0.000 NA
ATOM     11  C   UNL     1       2.674   4.434  20.144  0.00  0.00    +0.000 C 
ATOM     12  C   UNL     1       3.486   5.730  19.850  0.00  0.00    +0.000 C 
ATOM     13  H   UNL     1       1.110   3.283  19.537  0.00  0.00    +0.000 HD
ENDROOT
BRANCH  12  14
ATOM     14  C   UNL     1       2.675   6.997  19.533  0.00  0.00    +0.000 A 
ATOM     15  C   UNL     1       2.719   7.576  18.250  0.00  0.00    +0.000 A 
ATOM     16  C   UNL     1       1.933   8.685  17.919  0.00  0.00    +0.000 A 
ATOM     17  C   UNL     1       1.078   9.231  18.867  0.00  0.00    +0.000 A 
ATOM     18 CL   UNL     1       0.088  10.576  18.452  0.00  0.00    +0.000 Cl
ATOM     19  C   UNL     1       1.007   8.681  20.142  0.00  0.00    +0.000 A 
ATOM     20  C   UNL     1       1.790   7.566  20.469  0.00  0.00    +0.000 A 
ENDBRANCH  12  14
BRANCH   1  21
ATOM     21  O   UNL     1       8.277   4.988  19.056  0.00  0.00    +0.000 OA
ATOM     22  H   UNL     1       8.871   5.475  18.465  0.00  0.00    +0.000 HD
ENDBRANCH   1  21
BRANCH   7  23
ATOM     23  O   UNL     1       7.856   4.339  16.448  0.00  0.00    +0.000 OA
ATOM     24  H   UNL     1       8.660   4.603  16.929  0.00  0.00    +0.000 HD
ENDBRANCH   7  23
TORSDOF 3
ENDMDL
MODEL 3
REMARK VINA RESULT:      -6.8      3.844      5.752
REMARK  Name = 
REMARK  3 active torsions:
REMARK  status: ('A' for Active; 'I' for Inactive)
REMARK    1  A    between atoms: O_1  and  C_2
REMARK    2  A    between atoms: C_8  and  O_9
REMARK    3  A    between atoms: C_14  and  C_15
REMARK                            x       y       z     vdW  Elec       q    Type
REMARK                         _______ _______ _______ _____ _____    ______ ____
ROOT
ATOM      1  C   UNL     1       3.057   7.738  17.828  0.00  0.00    +0.000 A 
ATOM      2  C   UNL     1       2.386   8.955  17.802  0.00  0.00    +0.000 A 
ATOM      3  C   UNL     1       1.452   9.283  18.807  0.00  0.00    +0.000 A 
ATOM      4  C   UNL     1       1.214   8.377  19.869  0.00  0.00    +0.000 A 
ATOM      5  C   UNL     1       1.858   7.118  19.837  0.00  0.00    +0.000 A 
ATOM      6 CL   UNL     1       1.573   5.905  21.047  0.00  0.00    +0.000 Cl
ATOM      7  C   UNL     1       2.777   6.809  18.822  0.00  0.00    +0.000 A 
ATOM      8  C   UNL     1       0.328   8.797  21.027  0.00  0.00    +0.000 C 
ATOM      9  C   UNL     1       0.905   9.982  21.819  0.00  0.00    +0.000 C 
ATOM     10  N   UNL     1       0.696  11.313  21.242  0.00  0.00    +0.000 NA
ATOM     11  C   UNL     1       1.348  11.511  19.942  0.00  0.00    +0.000 C 
ATOM     12  C   UNL     1       0.798  10.671  18.752  0.00  0.00    +0.000 C 
ATOM     13  H   UNL     1       1.061  12.005  21.895  0.00  0.00    +0.000 HD
ENDROOT
BRANCH  12  14
ATOM     14  C   UNL     1      -0.721  10.713  18.519  0.00  0.00    +0.000 A 
ATOM     15  C   UNL     1      -1.511  11.716  19.114  0.00  0.00    +0.000 A 
ATOM     16  C   UNL     1      -2.883  11.817  18.858  0.00  0.00    +0.000 A 
ATOM     17  C   UNL     1      -3.490  10.918  17.991  0.00  0.00    +0.000 A 
ATOM     18 CL   UNL     1      -5.171  11.059  17.651  0.00  0.00    +0.000 Cl
ATOM     19  C   UNL     1      -2.738   9.918  17.384  0.00  0.00    +0.000 A 
ATOM     20  C   UNL     1      -1.363   9.824  17.637  0.00  0.00    +0.000 A 
ENDBRANCH  12  14
BRANCH   1  21
ATOM     21  O   UNL     1       4.006   7.452  16.885  0.00  0.00    +0.000 OA
ATOM     22  H   UNL     1       3.960   8.106  16.172  0.00  0.00    +0.000 HD
ENDBRANCH   1  21
BRANCH   7  23
ATOM     23  O   UNL     1       3.434   5.605  18.800  0.00  0.00    +0.000 OA
ATOM     24  H   UNL     1       2.790   4.916  19.041  0.00  0.00    +0.000 HD
ENDBRANCH   7  23
TORSDOF 3
ENDMDL
MODEL 4
REMARK VINA RESULT:      -6.8      3.265      6.288
REMARK  Name = 
REMARK  3 active torsions:
REMARK  status: ('A' for Active; 'I' for Inactive)
REMARK    1  A    between atoms: O_1  and  C_2
REMARK    2  A    between atoms: C_8  and  O_9
REMARK    3  A    between atoms: C_14  and  C_15
REMARK                            x       y       z     vdW  Elec       q    Type
REMARK                         _______ _______ _______ _____ _____    ______ ____
ROOT
ATOM      1  C   UNL     1       3.556   3.926  19.763  0.00  0.00    +0.000 A 
ATOM      2  C   UNL     1       4.737   3.758  19.050  0.00  0.00    +0.000 A 
ATOM      3  C   UNL     1       5.196   4.762  18.171  0.00  0.00    +0.000 A 
ATOM      4  C   UNL     1       4.460   5.964  18.032  0.00  0.00    +0.000 A 
ATOM      5  C   UNL     1       3.228   6.083  18.716  0.00  0.00    +0.000 A 
ATOM      6 CL   UNL     1       2.213   7.481  18.550  0.00  0.00    +0.000 Cl
ATOM      7  C   UNL     1       2.787   5.067  19.579  0.00  0.00    +0.000 A 
ATOM      8  C   UNL     1       5.034   7.101  17.207  0.00  0.00    +0.000 C 
ATOM      9  C   UNL     1       6.342   7.660  17.792  0.00  0.00    +0.000 C 
ATOM     10  N   UNL     1       7.561   6.900  17.500  0.00  0.00    +0.000 NA
ATOM     11  C   UNL     1       7.570   5.544  18.062  0.00  0.00    +0.000 C 
ATOM     12  C   UNL     1       6.542   4.538  17.467  0.00  0.00    +0.000 C 
ATOM     13  H   UNL     1       8.356   7.413  17.882  0.00  0.00    +0.000 HD
ENDROOT
BRANCH  12  14
ATOM     14  C   UNL     1       6.510   4.405  15.935  0.00  0.00    +0.000 A 
ATOM     15  C   UNL     1       7.499   5.019  15.141  0.00  0.00    +0.000 A 
ATOM     16  C   UNL     1       7.531   4.850  13.753  0.00  0.00    +0.000 A 
ATOM     17  C   UNL     1       6.577   4.055  13.132  0.00  0.00    +0.000 A 
ATOM     18 CL   UNL     1       6.634   3.823  11.428  0.00  0.00    +0.000 Cl
ATOM     19  C   UNL     1       5.590   3.432  13.888  0.00  0.00    +0.000 A 
ATOM     20  C   UNL     1       5.564   3.596  15.279  0.00  0.00    +0.000 A 
ENDBRANCH  12  14
BRANCH   1  21
ATOM     21  O   UNL     1       3.150   2.976  20.660  0.00  0.00    +0.000 OA
ATOM     22  H   UNL     1       2.256   2.678  20.432  0.00  0.00    +0.000 HD
ENDBRANCH   1  21
BRANCH   7  23
ATOM     23  O   UNL     1       1.611   5.187  20.274  0.00  0.00    +0.000 OA
ATOM     24  H   UNL     1       1.379   6.132  20.295  0.00  0.00    +0.000 HD
ENDBRANCH   7  23
TORSDOF 3
ENDMDL
MODEL 5
REMARK VINA RESULT:      -6.8      9.650     10.680
REMARK  Name = 
REMARK  3 active torsions:
REMARK  status: ('A' for Active; 'I' for Inactive)
REMARK    1  A    between atoms: O_1  and  C_2
REMARK    2  A    between atoms: C_8  and  O_9
REMARK    3  A    between atoms: C_14  and  C_15
REMARK                            x       y       z     vdW  Elec       q    Type
REMARK                         _______ _______ _______ _____ _____    ______ ____
ROOT
ATOM      1  C   UNL     1      11.501  13.457  16.928  0.00  0.00    +0.000 A 
ATOM      2  C   UNL     1      10.694  14.585  17.012  0.00  0.00    +0.000 A 
ATOM      3  C   UNL     1       9.955  14.856  18.182  0.00  0.00    +0.000 A 
ATOM      4  C   UNL     1      10.055  13.985  19.295  0.00  0.00    +0.000 A 
ATOM      5  C   UNL     1      10.831  12.809  19.162  0.00  0.00    +0.000 A 
ATOM      6 CL   UNL     1      10.954  11.637  20.436  0.00  0.00    +0.000 Cl
ATOM      7  C   UNL     1      11.550  12.555  17.983  0.00  0.00    +0.000 A 
ATOM      8  C   UNL     1       9.382  14.360  20.602  0.00  0.00    +0.000 C 
ATOM      9  C   UNL     1       9.960  15.644  21.221  0.00  0.00    +0.000 C 
ATOM     10  N   UNL     1       9.472  16.910  20.666  0.00  0.00    +0.000 NA
ATOM     11  C   UNL     1       9.812  17.113  19.253  0.00  0.00    +0.000 C 
ATOM     12  C   UNL     1       9.136  16.154  18.229  0.00  0.00    +0.000 C 
ATOM     13  H   UNL     1       9.876  17.673  21.208  0.00  0.00    +0.000 HD
ENDROOT
BRANCH  12  14
ATOM     14  C   UNL     1       7.608  16.008  18.322  0.00  0.00    +0.000 A 
ATOM     15  C   UNL     1       6.817  17.054  18.834  0.00  0.00    +0.000 A 
ATOM     16  C   UNL     1       5.421  16.972  18.859  0.00  0.00    +0.000 A 
ATOM     17  C   UNL     1       4.788  15.840  18.363  0.00  0.00    +0.000 A 
ATOM     18 CL   UNL     1       3.069  15.750  18.366  0.00  0.00    +0.000 Cl
ATOM     19  C   UNL     1       5.540  14.790  17.847  0.00  0.00    +0.000 A 
ATOM     20  C   UNL     1       6.938  14.878  17.816  0.00  0.00    +0.000 A 
ENDBRANCH  12  14
BRANCH   1  21
ATOM     21  O   UNL     1      12.263  13.233  15.814  0.00  0.00    +0.000 OA
ATOM     22  H   UNL     1      12.767  12.413  15.926  0.00  0.00    +0.000 HD
ENDBRANCH   1  21
BRANCH   7  23
ATOM     23  O   UNL     1      12.333  11.437  17.856  0.00  0.00    +0.000 OA
ATOM     24  H   UNL     1      12.370  11.005  18.728  0.00  0.00    +0.000 HD
ENDBRANCH   7  23
TORSDOF 3
ENDMDL
MODEL 6
REMARK VINA RESULT:      -6.7      3.270      6.219
REMARK  Name = 
REMARK  3 active torsions:
REMARK  status: ('A' for Active; 'I' for Inactive)
REMARK    1  A    between atoms: O_1  and  C_2
REMARK    2  A    between atoms: C_8  and  O_9
REMARK    3  A    between atoms: C_14  and  C_15
REMARK                            x       y       z     vdW  Elec       q    Type
REMARK                         _______ _______ _______ _____ _____    ______ ____
ROOT
ATOM      1  C   UNL     1       3.565   3.998  19.735  0.00  0.00    +0.000 A 
ATOM      2  C   UNL     1       4.772   3.846  19.062  0.00  0.00    +0.000 A 
ATOM      3  C   UNL     1       5.203   4.813  18.129  0.00  0.00    +0.000 A 
ATOM      4  C   UNL     1       4.411   5.964  17.893  0.00  0.00    +0.000 A 
ATOM      5  C   UNL     1       3.157   6.063  18.540  0.00  0.00    +0.000 A 
ATOM      6 CL   UNL     1       2.078   7.393  18.258  0.00  0.00    +0.000 Cl
ATOM      7  C   UNL     1       2.745   5.084  19.458  0.00  0.00    +0.000 A 
ATOM      8  C   UNL     1       4.949   7.073  17.008  0.00  0.00    +0.000 C 
ATOM      9  C   UNL     1       6.211   7.735  17.584  0.00  0.00    +0.000 C 
ATOM     10  N   UNL     1       7.474   7.022  17.372  0.00  0.00    +0.000 NA
ATOM     11  C   UNL     1       7.536   5.708  18.022  0.00  0.00    +0.000 C 
ATOM     12  C   UNL     1       6.576   4.613  17.472  0.00  0.00    +0.000 C 
ATOM     13  H   UNL     1       8.232   7.599  17.737  0.00  0.00    +0.000 HD
ENDROOT
BRANCH  12  14
ATOM     14  C   UNL     1       6.591   4.379  15.953  0.00  0.00    +0.000 A 
ATOM     15  C   UNL     1       5.591   3.602  15.335  0.00  0.00    +0.000 A 
ATOM     16  C   UNL     1       5.544   3.438  13.947  0.00  0.00    +0.000 A 
ATOM     17  C   UNL     1       6.495   4.058  13.147  0.00  0.00    +0.000 A 
ATOM     18 CL   UNL     1       6.420   3.882  11.437  0.00  0.00    +0.000 Cl
ATOM     19  C   UNL     1       7.493   4.835  13.725  0.00  0.00    +0.000 A 
ATOM     20  C   UNL     1       7.533   5.004  15.115  0.00  0.00    +0.000 A 
ENDBRANCH  12  14
BRANCH   1  21
ATOM     21  O   UNL     1       3.184   3.089  20.683  0.00  0.00    +0.000 OA
ATOM     22  H   UNL     1       2.727   2.349  20.256  0.00  0.00    +0.000 HD
ENDBRANCH   1  21
BRANCH   7  23
ATOM     23  O   UNL     1       1.547   5.188  20.116  0.00  0.00    +0.000 OA
ATOM     24  H   UNL     1       1.631   4.701  20.955  0.00  0.00    +0.000 HD
ENDBRANCH   7  23
TORSDOF 3
ENDMDL
MODEL 7
REMARK VINA RESULT:      -6.7      9.603     10.654
REMARK  Name = 
REMARK  3 active torsions:
REMARK  status: ('A' for Active; 'I' for Inactive)
REMARK    1  A    between atoms: O_1  and  C_2
REMARK    2  A    between atoms: C_8  and  O_9
REMARK    3  A    between atoms: C_14  and  C_15
REMARK                            x       y       z     vdW  Elec       q    Type
REMARK                         _______ _______ _______ _____ _____    ______ ____
ROOT
ATOM      1  C   UNL     1      11.526  13.424  16.968  0.00  0.00    +0.000 A 
ATOM      2  C   UNL     1      10.747  14.573  17.040  0.00  0.00    +0.000 A 
ATOM      3  C   UNL     1       9.960  14.839  18.181  0.00  0.00    +0.000 A 
ATOM      4  C   UNL     1       9.983  13.941  19.275  0.00  0.00    +0.000 A 
ATOM      5  C   UNL     1      10.731  12.746  19.151  0.00  0.00    +0.000 A 
ATOM      6 CL   UNL     1      10.760  11.543  20.402  0.00  0.00    +0.000 Cl
ATOM      7  C   UNL     1      11.499  12.498  18.002  0.00  0.00    +0.000 A 
ATOM      8  C   UNL     1       9.259  14.306  20.558  0.00  0.00    +0.000 C 
ATOM      9  C   UNL     1       9.842  15.558  21.234  0.00  0.00    +0.000 C 
ATOM     10  N   UNL     1       9.417  16.850  20.687  0.00  0.00    +0.000 NA
ATOM     11  C   UNL     1       9.829  17.074  19.297  0.00  0.00    +0.000 C 
ATOM     12  C   UNL     1       9.177  16.159  18.219  0.00  0.00    +0.000 C 
ATOM     13  H   UNL     1       9.815  17.589  21.265  0.00  0.00    +0.000 HD
ENDROOT
BRANCH  12  14
ATOM     14  C   UNL     1       7.643  16.055  18.237  0.00  0.00    +0.000 A 
ATOM     15  C   UNL     1       6.995  14.909  17.736  0.00  0.00    +0.000 A 
ATOM     16  C   UNL     1       5.606  14.762  17.810  0.00  0.00    +0.000 A 
ATOM     17  C   UNL     1       4.837  15.759  18.395  0.00  0.00    +0.000 A 
ATOM     18 CL   UNL     1       3.132  15.566  18.514  0.00  0.00    +0.000 Cl
ATOM     19  C   UNL     1       5.446  16.902  18.903  0.00  0.00    +0.000 A 
ATOM     20  C   UNL     1       6.839  17.043  18.835  0.00  0.00    +0.000 A 
ENDBRANCH  12  14
BRANCH   1  21
ATOM     21  O   UNL     1      12.333  13.204  15.886  0.00  0.00    +0.000 OA
ATOM     22  H   UNL     1      13.069  13.835  15.898  0.00  0.00    +0.000 HD
ENDBRANCH   1  21
BRANCH   7  23
ATOM     23  O   UNL     1      12.255  11.360  17.886  0.00  0.00    +0.000 OA
ATOM     24  H   UNL     1      12.165  10.863  18.718  0.00  0.00    +0.000 HD
ENDBRANCH   7  23
TORSDOF 3
ENDMDL
MODEL 8
REMARK VINA RESULT:      -6.6      3.888      5.858
REMARK  Name = 
REMARK  3 active torsions:
REMARK  status: ('A' for Active; 'I' for Inactive)
REMARK    1  A    between atoms: O_1  and  C_2
REMARK    2  A    between atoms: C_8  and  O_9
REMARK    3  A    between atoms: C_14  and  C_15
REMARK                            x       y       z     vdW  Elec       q    Type
REMARK                         _______ _______ _______ _____ _____    ______ ____
ROOT
ATOM      1  C   UNL     1       3.050   7.789  17.842  0.00  0.00    +0.000 A 
ATOM      2  C   UNL     1       2.411   9.023  17.797  0.00  0.00    +0.000 A 
ATOM      3  C   UNL     1       1.473   9.384  18.787  0.00  0.00    +0.000 A 
ATOM      4  C   UNL     1       1.196   8.493  19.853  0.00  0.00    +0.000 A 
ATOM      5  C   UNL     1       1.809   7.218  19.840  0.00  0.00    +0.000 A 
ATOM      6 CL   UNL     1       1.476   6.023  21.055  0.00  0.00    +0.000 Cl
ATOM      7  C   UNL     1       2.732   6.876  18.839  0.00  0.00    +0.000 A 
ATOM      8  C   UNL     1       0.306   8.945  20.995  0.00  0.00    +0.000 C 
ATOM      9  C   UNL     1       0.904  10.122  21.785  0.00  0.00    +0.000 C 
ATOM     10  N   UNL     1       0.737  11.453  21.195  0.00  0.00    +0.000 NA
ATOM     11  C   UNL     1       1.411  11.623  19.902  0.00  0.00    +0.000 C 
ATOM     12  C   UNL     1       0.855  10.788  18.711  0.00  0.00    +0.000 C 
ATOM     13  H   UNL     1       1.111  12.141  21.847  0.00  0.00    +0.000 HD
ENDROOT
BRANCH  12  14
ATOM     14  C   UNL     1      -0.659  10.867  18.458  0.00  0.00    +0.000 A 
ATOM     15  C   UNL     1      -1.303   9.912  17.647  0.00  0.00    +0.000 A 
ATOM     16  C   UNL     1      -2.689   9.923  17.463  0.00  0.00    +0.000 A 
ATOM     17  C   UNL     1      -3.462  10.887  18.097  0.00  0.00    +0.000 A 
ATOM     18 CL   UNL     1      -5.171  10.882  17.896  0.00  0.00    +0.000 Cl
ATOM     19  C   UNL     1      -2.858  11.841  18.908  0.00  0.00    +0.000 A 
ATOM     20  C   UNL     1      -1.470  11.824  19.097  0.00  0.00    +0.000 A 
ENDBRANCH  12  14
BRANCH   1  21
ATOM     21  O   UNL     1       4.003   7.471  16.915  0.00  0.00    +0.000 OA
ATOM     22  H   UNL     1       4.398   8.284  16.565  0.00  0.00    +0.000 HD
ENDBRANCH   1  21
BRANCH   7  23
ATOM     23  O   UNL     1       3.358   5.656  18.837  0.00  0.00    +0.000 OA
ATOM     24  H   UNL     1       2.869   5.076  19.447  0.00  0.00    +0.000 HD
ENDBRANCH   7  23
TORSDOF 3
ENDMDL
MODEL 9
REMARK VINA RESULT:      -6.4      3.433      6.232
REMARK  Name = 
REMARK  3 active torsions:
REMARK  status: ('A' for Active; 'I' for Inactive)
REMARK    1  A    between atoms: O_1  and  C_2
REMARK    2  A    between atoms: C_8  and  O_9
REMARK    3  A    between atoms: C_14  and  C_15
REMARK                            x       y       z     vdW  Elec       q    Type
REMARK                         _______ _______ _______ _____ _____    ______ ____
ROOT
ATOM      1  C   UNL     1       1.063   9.617  18.499  0.00  0.00    +0.000 A 
ATOM      2  C   UNL     1       1.557   8.501  17.834  0.00  0.00    +0.000 A 
ATOM      3  C   UNL     1       1.999   7.371  18.553  0.00  0.00    +0.000 A 
ATOM      4  C   UNL     1       1.915   7.361  19.967  0.00  0.00    +0.000 A 
ATOM      5  C   UNL     1       1.472   8.533  20.624  0.00  0.00    +0.000 A 
ATOM      6 CL   UNL     1       1.409   8.652  22.355  0.00  0.00    +0.000 Cl
ATOM      7  C   UNL     1       1.046   9.650  19.887  0.00  0.00    +0.000 A 
ATOM      8  C   UNL     1       2.245   6.090  20.728  0.00  0.00    +0.000 C 
ATOM      9  C   UNL     1       1.285   4.934  20.400  0.00  0.00    +0.000 C 
ATOM     10  N   UNL     1       1.551   4.201  19.159  0.00  0.00    +0.000 NA
ATOM     11  C   UNL     1       1.421   5.014  17.944  0.00  0.00    +0.000 C 
ATOM     12  C   UNL     1       2.469   6.150  17.751  0.00  0.00    +0.000 C 
ATOM     13  H   UNL     1       0.892   3.425  19.099  0.00  0.00    +0.000 HD
ENDROOT
BRANCH  12  14
ATOM     14  C   UNL     1       3.949   5.756  17.891  0.00  0.00    +0.000 A 
ATOM     15  C   UNL     1       4.313   4.436  18.219  0.00  0.00    +0.000 A 
ATOM     16  C   UNL     1       5.653   4.038  18.279  0.00  0.00    +0.000 A 
ATOM     17  C   UNL     1       6.657   4.956  18.002  0.00  0.00    +0.000 A 
ATOM     18 CL   UNL     1       8.305   4.462  18.045  0.00  0.00    +0.000 Cl
ATOM     19  C   UNL     1       6.332   6.267  17.670  0.00  0.00    +0.000 A 
ATOM     20  C   UNL     1       4.988   6.661  17.604  0.00  0.00    +0.000 A 
ENDBRANCH  12  14
BRANCH   1  21
ATOM     21  O   UNL     1       0.579  10.684  17.793  0.00  0.00    +0.000 OA
ATOM     22  H   UNL     1       0.326  11.390  18.407  0.00  0.00    +0.000 HD
ENDBRANCH   1  21
BRANCH   7  23
ATOM     23  O   UNL     1       0.582  10.778  20.513  0.00  0.00    +0.000 OA
ATOM     24  H   UNL     1      -0.343  10.611  20.768  0.00  0.00    +0.000 HD
ENDBRANCH   7  23
TORSDOF 3
ENDMDL
