MODEL 1
REMARK VINA RESULT:      -9.0      0.000      0.000
REMARK  Name = 
REMARK  7 active torsions:
REMARK  status: ('A' for Active; 'I' for Inactive)
REMARK    1  A    between atoms: C_1  and  C_2
REMARK    2  A    between atoms: C_5  and  S_6
REMARK    3  A    between atoms: S_6  and  N_9
REMARK    4  A    between atoms: N_9  and  C_10
REMARK    5  A    between atoms: C_17  and  C_18
REMARK    6  A    between atoms: N_19  and  C_20
REMARK    7  A    between atoms: C_20  and  C_21
REMARK                            x       y       z     vdW  Elec       q    Type
REMARK                         _______ _______ _______ _____ _____    ______ ____
ROOT
ATOM      1  C   UNL     1       2.689   6.002  19.037  0.00  0.00    +0.000 A 
ATOM      2  C   UNL     1       2.695   6.906  17.973  0.00  0.00    +0.000 A 
ATOM      3  C   UNL     1       2.193   8.199  18.120  0.00  0.00    +0.000 A 
ATOM      4  C   UNL     1       1.662   8.543  19.367  0.00  0.00    +0.000 A 
ATOM      5  C   UNL     1       1.663   7.673  20.449  0.00  0.00    +0.000 A 
ATOM      6  C   UNL     1       2.192   6.380  20.293  0.00  0.00    +0.000 A 
ATOM      7  N   UNL     1       1.067   8.261  21.541  0.00  0.00    +0.000 NA
ATOM      8  C   UNL     1       0.676   9.461  21.144  0.00  0.00    +0.000 A 
ATOM      9  C   UNL     1      -0.042  10.465  21.973  0.00  0.00    +0.000 C 
ATOM     10  N   UNL     1       1.010   9.672  19.823  0.00  0.00    +0.000 N 
ENDROOT
BRANCH   1  11
ATOM     11  N   UNL     1       3.180   4.669  18.850  0.00  0.00    +0.000 N 
ATOM     12  H   UNL     1       2.606   3.933  19.247  0.00  0.00    +0.000 HD
BRANCH  11  13
ATOM     13  S   UNL     1       4.856   4.415  19.018  0.00  0.00    +0.000 S 
ATOM     14  O   UNL     1       5.071   3.084  19.508  0.00  0.00    +0.000 OA
ATOM     15  O   UNL     1       5.402   5.573  19.721  0.00  0.00    +0.000 OA
BRANCH  13  20
ATOM     16  C   UNL     1       7.218   4.666  13.425  0.00  0.00    +0.000 C 
ATOM     17  C   UNL     1       6.628   4.603  14.801  0.00  0.00    +0.000 A 
ATOM     18  C   UNL     1       7.420   4.838  15.933  0.00  0.00    +0.000 A 
ATOM     19  C   UNL     1       6.859   4.773  17.205  0.00  0.00    +0.000 A 
ATOM     20  C   UNL     1       5.497   4.498  17.360  0.00  0.00    +0.000 A 
ATOM     21  C   UNL     1       4.695   4.243  16.244  0.00  0.00    +0.000 A 
ATOM     22  C   UNL     1       5.268   4.306  14.968  0.00  0.00    +0.000 A 
ENDBRANCH  13  20
ENDBRANCH  11  13
ENDBRANCH   1  11
BRANCH  10  23
ATOM     23  C   UNL     1       0.621  10.814  18.999  0.00  0.00    +0.000 C 
BRANCH  23  24
ATOM     24  C   UNL     1      -0.797  10.727  18.483  0.00  0.00    +0.000 A 
ATOM     25  C   UNL     1      -1.761  11.628  18.959  0.00  0.00    +0.000 A 
ATOM     26  C   UNL     1      -3.059  11.629  18.448  0.00  0.00    +0.000 A 
ATOM     27  C   UNL     1      -3.412  10.747  17.430  0.00  0.00    +0.000 A 
ATOM     28  C   UNL     1      -2.473   9.841  16.949  0.00  0.00    +0.000 A 
ATOM     29  C   UNL     1      -1.181   9.819  17.481  0.00  0.00    +0.000 A 
ENDBRANCH  23  24
ENDBRANCH  10  23
TORSDOF 5
ENDMDL
MODEL 2
REMARK VINA RESULT:      -9.0      0.113      1.295
REMARK  Name = 
REMARK  7 active torsions:
REMARK  status: ('A' for Active; 'I' for Inactive)
REMARK    1  A    between atoms: C_1  and  C_2
REMARK    2  A    between atoms: C_5  and  S_6
REMARK    3  A    between atoms: S_6  and  N_9
REMARK    4  A    between atoms: N_9  and  C_10
REMARK    5  A    between atoms: C_17  and  C_18
REMARK    6  A    between atoms: N_19  and  C_20
REMARK    7  A    between atoms: C_20  and  C_21
REMARK                            x       y       z     vdW  Elec       q    Type
REMARK                         _______ _______ _______ _____ _____    ______ ____
ROOT
ATOM      1  C   UNL     1       2.702   6.042  18.992  0.00  0.00    +0.000 A 
ATOM      2  C   UNL     1       2.758   6.969  17.948  0.00  0.00    +0.000 A 
ATOM      3  C   UNL     1       2.266   8.264  18.104  0.00  0.00    +0.000 A 
ATOM      4  C   UNL     1       1.695   8.589  19.338  0.00  0.00    +0.000 A 
ATOM      5  C   UNL     1       1.646   7.696  20.401  0.00  0.00    +0.000 A 
ATOM      6  C   UNL     1       2.165   6.400  20.236  0.00  0.00    +0.000 A 
ATOM      7  N   UNL     1       1.017   8.269  21.483  0.00  0.00    +0.000 NA
ATOM      8  C   UNL     1       0.655   9.482  21.098  0.00  0.00    +0.000 A 
ATOM      9  C   UNL     1      -0.080  10.477  21.922  0.00  0.00    +0.000 C 
ATOM     10  N   UNL     1       1.040   9.716  19.795  0.00  0.00    +0.000 N 
ENDROOT
BRANCH   1  11
ATOM     11  N   UNL     1       3.184   4.707  18.794  0.00  0.00    +0.000 N 
ATOM     12  H   UNL     1       2.584   3.970  19.146  0.00  0.00    +0.000 HD
BRANCH  11  13
ATOM     13  S   UNL     1       4.847   4.426  19.030  0.00  0.00    +0.000 S 
ATOM     14  O   UNL     1       5.018   3.104  19.559  0.00  0.00    +0.000 OA
ATOM     15  O   UNL     1       5.390   5.591  19.724  0.00  0.00    +0.000 OA
BRANCH  13  20
ATOM     16  C   UNL     1       7.072   4.553  13.376  0.00  0.00    +0.000 C 
ATOM     17  C   UNL     1       6.531   4.522  14.774  0.00  0.00    +0.000 A 
ATOM     18  C   UNL     1       5.182   4.230  15.014  0.00  0.00    +0.000 A 
ATOM     19  C   UNL     1       4.692   4.208  16.317  0.00  0.00    +0.000 A 
ATOM     20  C   UNL     1       5.550   4.455  17.394  0.00  0.00    +0.000 A 
ATOM     21  C   UNL     1       6.894   4.766  17.173  0.00  0.00    +0.000 A 
ATOM     22  C   UNL     1       7.377   4.789  15.858  0.00  0.00    +0.000 A 
ENDBRANCH  13  20
ENDBRANCH  11  13
ENDBRANCH   1  11
BRANCH  10  23
ATOM     23  C   UNL     1       0.695  10.880  18.982  0.00  0.00    +0.000 C 
BRANCH  23  24
ATOM     24  C   UNL     1      -0.735  10.867  18.492  0.00  0.00    +0.000 A 
ATOM     25  C   UNL     1      -1.142   9.887  17.576  0.00  0.00    +0.000 A 
ATOM     26  C   UNL     1      -2.471   9.796  17.163  0.00  0.00    +0.000 A 
ATOM     27  C   UNL     1      -3.427  10.668  17.679  0.00  0.00    +0.000 A 
ATOM     28  C   UNL     1      -3.043  11.652  18.584  0.00  0.00    +0.000 A 
ATOM     29  C   UNL     1      -1.705  11.762  18.976  0.00  0.00    +0.000 A 
ENDBRANCH  23  24
ENDBRANCH  10  23
TORSDOF 5
ENDMDL
MODEL 3
REMARK VINA RESULT:      -8.6      3.718      9.268
REMARK  Name = 
REMARK  7 active torsions:
REMARK  status: ('A' for Active; 'I' for Inactive)
REMARK    1  A    between atoms: C_1  and  C_2
REMARK    2  A    between atoms: C_5  and  S_6
REMARK    3  A    between atoms: S_6  and  N_9
REMARK    4  A    between atoms: N_9  and  C_10
REMARK    5  A    between atoms: C_17  and  C_18
REMARK    6  A    between atoms: N_19  and  C_20
REMARK    7  A    between atoms: C_20  and  C_21
REMARK                            x       y       z     vdW  Elec       q    Type
REMARK                         _______ _______ _______ _____ _____    ______ ____
ROOT
ATOM      1  C   UNL     1       1.318   9.918  19.259  0.00  0.00    +0.000 A 
ATOM      2  C   UNL     1       1.954   9.685  18.037  0.00  0.00    +0.000 A 
ATOM      3  C   UNL     1       2.479   8.432  17.722  0.00  0.00    +0.000 A 
ATOM      4  C   UNL     1       2.362   7.426  18.687  0.00  0.00    +0.000 A 
ATOM      5  C   UNL     1       1.715   7.622  19.900  0.00  0.00    +0.000 A 
ATOM      6  C   UNL     1       1.172   8.885  20.195  0.00  0.00    +0.000 A 
ATOM      7  N   UNL     1       1.762   6.477  20.662  0.00  0.00    +0.000 NA
ATOM      8  C   UNL     1       2.448   5.594  19.955  0.00  0.00    +0.000 A 
ATOM      9  C   UNL     1       2.783   4.208  20.377  0.00  0.00    +0.000 C 
ATOM     10  N   UNL     1       2.841   6.132  18.748  0.00  0.00    +0.000 N 
ENDROOT
BRANCH   1  11
ATOM     11  N   UNL     1       0.818  11.224  19.571  0.00  0.00    +0.000 N 
ATOM     12  H   UNL     1       1.084  11.587  20.479  0.00  0.00    +0.000 HD
BRANCH  11  13
ATOM     13  S   UNL     1      -0.783  11.585  19.116  0.00  0.00    +0.000 S 
ATOM     14  O   UNL     1      -1.365  10.417  18.520  0.00  0.00    +0.000 OA
ATOM     15  O   UNL     1      -0.755  12.860  18.404  0.00  0.00    +0.000 OA
BRANCH  13  20
ATOM     16  C   UNL     1      -3.843  12.658  24.256  0.00  0.00    +0.000 C 
ATOM     17  C   UNL     1      -3.081  12.391  22.993  0.00  0.00    +0.000 A 
ATOM     18  C   UNL     1      -3.593  12.787  21.750  0.00  0.00    +0.000 A 
ATOM     19  C   UNL     1      -2.877  12.529  20.584  0.00  0.00    +0.000 A 
ATOM     20  C   UNL     1      -1.632  11.895  20.650  0.00  0.00    +0.000 A 
ATOM     21  C   UNL     1      -1.114  11.477  21.879  0.00  0.00    +0.000 A 
ATOM     22  C   UNL     1      -1.843  11.737  23.046  0.00  0.00    +0.000 A 
ENDBRANCH  13  20
ENDBRANCH  11  13
ENDBRANCH   1  11
BRANCH  10  23
ATOM     23  C   UNL     1       3.729   5.514  17.767  0.00  0.00    +0.000 C 
BRANCH  23  24
ATOM     24  C   UNL     1       5.187   5.850  17.980  0.00  0.00    +0.000 A 
ATOM     25  C   UNL     1       5.796   6.821  17.174  0.00  0.00    +0.000 A 
ATOM     26  C   UNL     1       7.117   7.214  17.394  0.00  0.00    +0.000 A 
ATOM     27  C   UNL     1       7.846   6.662  18.444  0.00  0.00    +0.000 A 
ATOM     28  C   UNL     1       7.263   5.692  19.252  0.00  0.00    +0.000 A 
ATOM     29  C   UNL     1       5.949   5.276  19.014  0.00  0.00    +0.000 A 
ENDBRANCH  23  24
ENDBRANCH  10  23
TORSDOF 5
ENDMDL
MODEL 4
REMARK VINA RESULT:      -8.4      1.507      1.818
REMARK  Name = 
REMARK  7 active torsions:
REMARK  status: ('A' for Active; 'I' for Inactive)
REMARK    1  A    between atoms: C_1  and  C_2
REMARK    2  A    between atoms: C_5  and  S_6
REMARK    3  A    between atoms: S_6  and  N_9
REMARK    4  A    between atoms: N_9  and  C_10
REMARK    5  A    between atoms: C_17  and  C_18
REMARK    6  A    between atoms: N_19  and  C_20
REMARK    7  A    between atoms: C_20  and  C_21
REMARK                            x       y       z     vdW  Elec       q    Type
REMARK                         _______ _______ _______ _____ _____    ______ ____
ROOT
ATOM      1  C   UNL     1       2.382   7.287  19.656  0.00  0.00    +0.000 A 
ATOM      2  C   UNL     1       2.337   8.041  18.481  0.00  0.00    +0.000 A 
ATOM      3  C   UNL     1       1.611   9.229  18.411  0.00  0.00    +0.000 A 
ATOM      4  C   UNL     1       0.911   9.622  19.557  0.00  0.00    +0.000 A 
ATOM      5  C   UNL     1       0.956   8.904  20.745  0.00  0.00    +0.000 A 
ATOM      6  C   UNL     1       1.710   7.719  20.807  0.00  0.00    +0.000 A 
ATOM      7  N   UNL     1       0.165   9.504  21.699  0.00  0.00    +0.000 NA
ATOM      8  C   UNL     1      -0.383  10.555  21.114  0.00  0.00    +0.000 A 
ATOM      9  C   UNL     1      -1.338  11.506  21.743  0.00  0.00    +0.000 C 
ATOM     10  N   UNL     1       0.036  10.661  19.805  0.00  0.00    +0.000 N 
ENDROOT
BRANCH   1  11
ATOM     11  N   UNL     1       3.108   6.052  19.689  0.00  0.00    +0.000 N 
ATOM     12  H   UNL     1       4.105   6.137  19.856  0.00  0.00    +0.000 HD
BRANCH  11  13
ATOM     13  S   UNL     1       2.690   4.860  18.547  0.00  0.00    +0.000 S 
ATOM     14  O   UNL     1       1.470   5.251  17.902  0.00  0.00    +0.000 OA
ATOM     15  O   UNL     1       2.809   3.563  19.209  0.00  0.00    +0.000 OA
BRANCH  13  20
ATOM     16  C   UNL     1       7.087   4.877  14.352  0.00  0.00    +0.000 C 
ATOM     17  C   UNL     1       6.003   4.880  15.388  0.00  0.00    +0.000 A 
ATOM     18  C   UNL     1       5.477   3.679  15.880  0.00  0.00    +0.000 A 
ATOM     19  C   UNL     1       4.468   3.698  16.839  0.00  0.00    +0.000 A 
ATOM     20  C   UNL     1       3.992   4.916  17.334  0.00  0.00    +0.000 A 
ATOM     21  C   UNL     1       4.492   6.125  16.842  0.00  0.00    +0.000 A 
ATOM     22  C   UNL     1       5.504   6.096  15.875  0.00  0.00    +0.000 A 
ENDBRANCH  13  20
ENDBRANCH  11  13
ENDBRANCH   1  11
BRANCH  10  23
ATOM     23  C   UNL     1      -0.460  11.604  18.806  0.00  0.00    +0.000 C 
BRANCH  23  24
ATOM     24  C   UNL     1      -1.739  11.154  18.138  0.00  0.00    +0.000 A 
ATOM     25  C   UNL     1      -2.947  11.788  18.462  0.00  0.00    +0.000 A 
ATOM     26  C   UNL     1      -4.133  11.455  17.809  0.00  0.00    +0.000 A 
ATOM     27  C   UNL     1      -4.130  10.498  16.797  0.00  0.00    +0.000 A 
ATOM     28  C   UNL     1      -2.944   9.852  16.464  0.00  0.00    +0.000 A 
ATOM     29  C   UNL     1      -1.761  10.165  17.139  0.00  0.00    +0.000 A 
ENDBRANCH  23  24
ENDBRANCH  10  23
TORSDOF 5
ENDMDL
MODEL 5
REMARK VINA RESULT:      -8.2      0.892      1.335
REMARK  Name = 
REMARK  7 active torsions:
REMARK  status: ('A' for Active; 'I' for Inactive)
REMARK    1  A    between atoms: C_1  and  C_2
REMARK    2  A    between atoms: C_5  and  S_6
REMARK    3  A    between atoms: S_6  and  N_9
REMARK    4  A    between atoms: N_9  and  C_10
REMARK    5  A    between atoms: C_17  and  C_18
REMARK    6  A    between atoms: N_19  and  C_20
REMARK    7  A    between atoms: C_20  and  C_21
REMARK                            x       y       z     vdW  Elec       q    Type
REMARK                         _______ _______ _______ _____ _____    ______ ____
ROOT
ATOM      1  C   UNL     1       2.925   6.709  18.374  0.00  0.00    +0.000 A 
ATOM      2  C   UNL     1       2.785   7.778  17.486  0.00  0.00    +0.000 A 
ATOM      3  C   UNL     1       2.114   8.944  17.857  0.00  0.00    +0.000 A 
ATOM      4  C   UNL     1       1.571   8.988  19.145  0.00  0.00    +0.000 A 
ATOM      5  C   UNL     1       1.715   7.950  20.056  0.00  0.00    +0.000 A 
ATOM      6  C   UNL     1       2.411   6.790  19.675  0.00  0.00    +0.000 A 
ATOM      7  N   UNL     1       1.069   8.251  21.234  0.00  0.00    +0.000 NA
ATOM      8  C   UNL     1       0.511   9.436  21.055  0.00  0.00    +0.000 A 
ATOM      9  C   UNL     1      -0.318  10.171  22.047  0.00  0.00    +0.000 C 
ATOM     10  N   UNL     1       0.782   9.919  19.792  0.00  0.00    +0.000 N 
ENDROOT
BRANCH   1  11
ATOM     11  N   UNL     1       3.589   5.510  17.955  0.00  0.00    +0.000 N 
ATOM     12  H   UNL     1       3.171   4.645  18.278  0.00  0.00    +0.000 HD
BRANCH  11  13
ATOM     13  S   UNL     1       5.292   5.508  17.961  0.00  0.00    +0.000 S 
ATOM     14  O   UNL     1       5.746   4.516  18.892  0.00  0.00    +0.000 OA
ATOM     15  O   UNL     1       5.727   6.898  18.069  0.00  0.00    +0.000 OA
BRANCH  13  20
ATOM     16  C   UNL     1       6.677   3.676  12.334  0.00  0.00    +0.000 C 
ATOM     17  C   UNL     1       6.343   4.130  13.723  0.00  0.00    +0.000 A 
ATOM     18  C   UNL     1       5.075   3.895  14.269  0.00  0.00    +0.000 A 
ATOM     19  C   UNL     1       4.777   4.325  15.559  0.00  0.00    +0.000 A 
ATOM     20  C   UNL     1       5.751   4.972  16.326  0.00  0.00    +0.000 A 
ATOM     21  C   UNL     1       7.017   5.232  15.792  0.00  0.00    +0.000 A 
ATOM     22  C   UNL     1       7.306   4.799  14.492  0.00  0.00    +0.000 A 
ENDBRANCH  13  20
ENDBRANCH  11  13
ENDBRANCH   1  11
BRANCH  10  23
ATOM     23  C   UNL     1       0.223  11.122  19.182  0.00  0.00    +0.000 C 
BRANCH  23  24
ATOM     24  C   UNL     1      -1.170  10.924  18.630  0.00  0.00    +0.000 A 
ATOM     25  C   UNL     1      -2.198  11.793  19.022  0.00  0.00    +0.000 A 
ATOM     26  C   UNL     1      -3.476  11.691  18.474  0.00  0.00    +0.000 A 
ATOM     27  C   UNL     1      -3.745  10.732  17.500  0.00  0.00    +0.000 A 
ATOM     28  C   UNL     1      -2.742   9.856  17.101  0.00  0.00    +0.000 A 
ATOM     29  C   UNL     1      -1.468   9.939  17.672  0.00  0.00    +0.000 A 
ENDBRANCH  23  24
ENDBRANCH  10  23
TORSDOF 5
ENDMDL
MODEL 6
REMARK VINA RESULT:      -8.2      1.516      2.882
REMARK  Name = 
REMARK  7 active torsions:
REMARK  status: ('A' for Active; 'I' for Inactive)
REMARK    1  A    between atoms: C_1  and  C_2
REMARK    2  A    between atoms: C_5  and  S_6
REMARK    3  A    between atoms: S_6  and  N_9
REMARK    4  A    between atoms: N_9  and  C_10
REMARK    5  A    between atoms: C_17  and  C_18
REMARK    6  A    between atoms: N_19  and  C_20
REMARK    7  A    between atoms: C_20  and  C_21
REMARK                            x       y       z     vdW  Elec       q    Type
REMARK                         _______ _______ _______ _____ _____    ______ ____
ROOT
ATOM      1  C   UNL     1       2.725   6.071  19.018  0.00  0.00    +0.000 A 
ATOM      2  C   UNL     1       2.769   7.029  18.002  0.00  0.00    +0.000 A 
ATOM      3  C   UNL     1       2.241   8.307  18.190  0.00  0.00    +0.000 A 
ATOM      4  C   UNL     1       1.647   8.581  19.425  0.00  0.00    +0.000 A 
ATOM      5  C   UNL     1       1.609   7.656  20.461  0.00  0.00    +0.000 A 
ATOM      6  C   UNL     1       2.164   6.379  20.265  0.00  0.00    +0.000 A 
ATOM      7  N   UNL     1       0.953   8.180  21.551  0.00  0.00    +0.000 NA
ATOM      8  C   UNL     1       0.565   9.394  21.197  0.00  0.00    +0.000 A 
ATOM      9  C   UNL     1      -0.206  10.345  22.041  0.00  0.00    +0.000 C 
ATOM     10  N   UNL     1       0.958   9.677  19.906  0.00  0.00    +0.000 N 
ENDROOT
BRANCH   1  11
ATOM     11  N   UNL     1       3.243   4.755  18.787  0.00  0.00    +0.000 N 
ATOM     12  H   UNL     1       2.665   3.994  19.123  0.00  0.00    +0.000 HD
BRANCH  11  13
ATOM     13  S   UNL     1       4.914   4.516  19.013  0.00  0.00    +0.000 S 
ATOM     14  O   UNL     1       5.118   3.211  19.574  0.00  0.00    +0.000 OA
ATOM     15  O   UNL     1       5.438   5.709  19.673  0.00  0.00    +0.000 OA
BRANCH  13  20
ATOM     16  C   UNL     1       7.085   4.566  13.338  0.00  0.00    +0.000 C 
ATOM     17  C   UNL     1       6.557   4.554  14.741  0.00  0.00    +0.000 A 
ATOM     18  C   UNL     1       5.195   4.341  14.993  0.00  0.00    +0.000 A 
ATOM     19  C   UNL     1       4.718   4.336  16.300  0.00  0.00    +0.000 A 
ATOM     20  C   UNL     1       5.600   4.518  17.371  0.00  0.00    +0.000 A 
ATOM     21  C   UNL     1       6.959   4.750  17.138  0.00  0.00    +0.000 A 
ATOM     22  C   UNL     1       7.429   4.757  15.819  0.00  0.00    +0.000 A 
ENDBRANCH  13  20
ENDBRANCH  11  13
ENDBRANCH   1  11
BRANCH  10  23
ATOM     23  C   UNL     1       0.593  10.854  19.123  0.00  0.00    +0.000 C 
BRANCH  23  24
ATOM     24  C   UNL     1       1.572  11.997  19.264  0.00  0.00    +0.000 A 
ATOM     25  C   UNL     1       2.332  12.395  18.156  0.00  0.00    +0.000 A 
ATOM     26  C   UNL     1       3.186  13.496  18.227  0.00  0.00    +0.000 A 
ATOM     27  C   UNL     1       3.276  14.238  19.402  0.00  0.00    +0.000 A 
ATOM     28  C   UNL     1       2.535  13.857  20.515  0.00  0.00    +0.000 A 
ATOM     29  C   UNL     1       1.701  12.736  20.453  0.00  0.00    +0.000 A 
ENDBRANCH  23  24
ENDBRANCH  10  23
TORSDOF 5
ENDMDL
MODEL 7
REMARK VINA RESULT:      -8.2      3.830      9.156
REMARK  Name = 
REMARK  7 active torsions:
REMARK  status: ('A' for Active; 'I' for Inactive)
REMARK    1  A    between atoms: C_1  and  C_2
REMARK    2  A    between atoms: C_5  and  S_6
REMARK    3  A    between atoms: S_6  and  N_9
REMARK    4  A    between atoms: N_9  and  C_10
REMARK    5  A    between atoms: C_17  and  C_18
REMARK    6  A    between atoms: N_19  and  C_20
REMARK    7  A    between atoms: C_20  and  C_21
REMARK                            x       y       z     vdW  Elec       q    Type
REMARK                         _______ _______ _______ _____ _____    ______ ____
ROOT
ATOM      1  C   UNL     1       0.567   9.751  19.081  0.00  0.00    +0.000 A 
ATOM      2  C   UNL     1       0.700   8.953  20.220  0.00  0.00    +0.000 A 
ATOM      3  C   UNL     1       1.635   7.919  20.273  0.00  0.00    +0.000 A 
ATOM      4  C   UNL     1       2.415   7.700  19.134  0.00  0.00    +0.000 A 
ATOM      5  C   UNL     1       2.321   8.491  17.997  0.00  0.00    +0.000 A 
ATOM      6  C   UNL     1       1.389   9.544  17.964  0.00  0.00    +0.000 A 
ATOM      7  N   UNL     1       3.188   8.044  17.026  0.00  0.00    +0.000 NA
ATOM      8  C   UNL     1       3.790   6.981  17.532  0.00  0.00    +0.000 A 
ATOM      9  C   UNL     1       4.802   6.139  16.842  0.00  0.00    +0.000 C 
ATOM     10  N   UNL     1       3.343   6.729  18.812  0.00  0.00    +0.000 N 
ENDROOT
BRANCH   1  11
ATOM     11  N   UNL     1      -0.424  10.784  19.040  0.00  0.00    +0.000 N 
ATOM     12  H   UNL     1      -0.891  10.906  18.148  0.00  0.00    +0.000 HD
BRANCH  11  13
ATOM     13  S   UNL     1      -0.079  12.241  19.851  0.00  0.00    +0.000 S 
ATOM     14  O   UNL     1      -0.386  13.336  18.977  0.00  0.00    +0.000 OA
ATOM     15  O   UNL     1       1.248  12.102  20.447  0.00  0.00    +0.000 OA
BRANCH  13  20
ATOM     16  C   UNL     1      -4.134  12.454  24.372  0.00  0.00    +0.000 C 
ATOM     17  C   UNL     1      -3.128  12.398  23.262  0.00  0.00    +0.000 A 
ATOM     18  C   UNL     1      -3.325  13.122  22.079  0.00  0.00    +0.000 A 
ATOM     19  C   UNL     1      -2.384  13.058  21.055  0.00  0.00    +0.000 A 
ATOM     20  C   UNL     1      -1.227  12.288  21.211  0.00  0.00    +0.000 A 
ATOM     21  C   UNL     1      -1.023  11.544  22.376  0.00  0.00    +0.000 A 
ATOM     22  C   UNL     1      -1.976  11.612  23.400  0.00  0.00    +0.000 A 
ENDBRANCH  13  20
ENDBRANCH  11  13
ENDBRANCH   1  11
BRANCH  10  23
ATOM     23  C   UNL     1       3.669   5.567  19.634  0.00  0.00    +0.000 C 
BRANCH  23  24
ATOM     24  C   UNL     1       2.726   4.403  19.431  0.00  0.00    +0.000 A 
ATOM     25  C   UNL     1       1.636   4.239  20.296  0.00  0.00    +0.000 A 
ATOM     26  C   UNL     1       0.700   3.225  20.091  0.00  0.00    +0.000 A 
ATOM     27  C   UNL     1       0.822   2.370  18.999  0.00  0.00    +0.000 A 
ATOM     28  C   UNL     1       1.900   2.511  18.131  0.00  0.00    +0.000 A 
ATOM     29  C   UNL     1       2.854   3.509  18.353  0.00  0.00    +0.000 A 
ENDBRANCH  23  24
ENDBRANCH  10  23
TORSDOF 5
ENDMDL
MODEL 8
REMARK VINA RESULT:      -8.1      4.043      9.512
REMARK  Name = 
REMARK  7 active torsions:
REMARK  status: ('A' for Active; 'I' for Inactive)
REMARK    1  A    between atoms: C_1  and  C_2
REMARK    2  A    between atoms: C_5  and  S_6
REMARK    3  A    between atoms: S_6  and  N_9
REMARK    4  A    between atoms: N_9  and  C_10
REMARK    5  A    between atoms: C_17  and  C_18
REMARK    6  A    between atoms: N_19  and  C_20
REMARK    7  A    between atoms: C_20  and  C_21
REMARK                            x       y       z     vdW  Elec       q    Type
REMARK                         _______ _______ _______ _____ _____    ______ ____
ROOT
ATOM      1  C   UNL     1       0.119   9.680  19.894  0.00  0.00    +0.000 A 
ATOM      2  C   UNL     1       0.425   8.754  20.894  0.00  0.00    +0.000 A 
ATOM      3  C   UNL     1       1.447   7.819  20.726  0.00  0.00    +0.000 A 
ATOM      4  C   UNL     1       2.135   7.833  19.509  0.00  0.00    +0.000 A 
ATOM      5  C   UNL     1       1.869   8.757  18.507  0.00  0.00    +0.000 A 
ATOM      6  C   UNL     1       0.850   9.707  18.699  0.00  0.00    +0.000 A 
ATOM      7  N   UNL     1       2.678   8.532  17.417  0.00  0.00    +0.000 NA
ATOM      8  C   UNL     1       3.414   7.475  17.718  0.00  0.00    +0.000 A 
ATOM      9  C   UNL     1       4.428   6.837  16.837  0.00  0.00    +0.000 C 
ATOM     10  N   UNL     1       3.110   7.011  18.980  0.00  0.00    +0.000 N 
ENDROOT
BRANCH   1  11
ATOM     11  N   UNL     1      -0.958  10.607  20.079  0.00  0.00    +0.000 N 
ATOM     12  H   UNL     1      -1.578  10.719  19.285  0.00  0.00    +0.000 HD
BRANCH  11  13
ATOM     13  S   UNL     1      -0.619  12.054  20.910  0.00  0.00    +0.000 S 
ATOM     14  O   UNL     1      -0.413  13.098  19.948  0.00  0.00    +0.000 OA
ATOM     15  O   UNL     1       0.393  11.749  21.919  0.00  0.00    +0.000 OA
BRANCH  13  20
ATOM     16  C   UNL     1      -5.810  13.324  23.804  0.00  0.00    +0.000 C 
ATOM     17  C   UNL     1      -4.526  13.009  23.097  0.00  0.00    +0.000 A 
ATOM     18  C   UNL     1      -4.351  13.339  21.747  0.00  0.00    +0.000 A 
ATOM     19  C   UNL     1      -3.155  13.037  21.103  0.00  0.00    +0.000 A 
ATOM     20  C   UNL     1      -2.112  12.424  21.806  0.00  0.00    +0.000 A 
ATOM     21  C   UNL     1      -2.276  12.071  23.148  0.00  0.00    +0.000 A 
ATOM     22  C   UNL     1      -3.484  12.375  23.788  0.00  0.00    +0.000 A 
ENDBRANCH  13  20
ENDBRANCH  11  13
ENDBRANCH   1  11
BRANCH  10  23
ATOM     23  C   UNL     1       3.610   5.787  19.601  0.00  0.00    +0.000 C 
BRANCH  23  24
ATOM     24  C   UNL     1       2.637   4.632  19.521  0.00  0.00    +0.000 A 
ATOM     25  C   UNL     1       2.033   4.156  20.692  0.00  0.00    +0.000 A 
ATOM     26  C   UNL     1       1.072   3.147  20.648  0.00  0.00    +0.000 A 
ATOM     27  C   UNL     1       0.675   2.611  19.425  0.00  0.00    +0.000 A 
ATOM     28  C   UNL     1       1.266   3.064  18.251  0.00  0.00    +0.000 A 
ATOM     29  C   UNL     1       2.251   4.055  18.298  0.00  0.00    +0.000 A 
ENDBRANCH  23  24
ENDBRANCH  10  23
TORSDOF 5
ENDMDL
MODEL 9
REMARK VINA RESULT:      -8.0      3.700      9.342
REMARK  Name = 
REMARK  7 active torsions:
REMARK  status: ('A' for Active; 'I' for Inactive)
REMARK    1  A    between atoms: C_1  and  C_2
REMARK    2  A    between atoms: C_5  and  S_6
REMARK    3  A    between atoms: S_6  and  N_9
REMARK    4  A    between atoms: N_9  and  C_10
REMARK    5  A    between atoms: C_17  and  C_18
REMARK    6  A    between atoms: N_19  and  C_20
REMARK    7  A    between atoms: C_20  and  C_21
REMARK                            x       y       z     vdW  Elec       q    Type
REMARK                         _______ _______ _______ _____ _____    ______ ____
ROOT
ATOM      1  C   UNL     1       1.237   9.407  19.870  0.00  0.00    +0.000 A 
ATOM      2  C   UNL     1       1.908   9.385  18.645  0.00  0.00    +0.000 A 
ATOM      3  C   UNL     1       2.505   8.218  18.168  0.00  0.00    +0.000 A 
ATOM      4  C   UNL     1       2.424   7.080  18.976  0.00  0.00    +0.000 A 
ATOM      5  C   UNL     1       1.744   7.066  20.187  0.00  0.00    +0.000 A 
ATOM      6  C   UNL     1       1.129   8.244  20.645  0.00  0.00    +0.000 A 
ATOM      7  N   UNL     1       1.838   5.827  20.778  0.00  0.00    +0.000 NA
ATOM      8  C   UNL     1       2.584   5.090  19.971  0.00  0.00    +0.000 A 
ATOM      9  C   UNL     1       2.984   3.677  20.199  0.00  0.00    +0.000 C 
ATOM     10  N   UNL     1       2.970   5.816  18.864  0.00  0.00    +0.000 N 
ENDROOT
BRANCH   1  11
ATOM     11  N   UNL     1       0.662  10.628  20.352  0.00  0.00    +0.000 N 
ATOM     12  H   UNL     1       0.629  10.725  21.360  0.00  0.00    +0.000 HD
BRANCH  11  13
ATOM     13  S   UNL     1      -0.716  11.222  19.547  0.00  0.00    +0.000 S 
ATOM     14  O   UNL     1      -1.385  10.123  18.911  0.00  0.00    +0.000 OA
ATOM     15  O   UNL     1      -0.300  12.395  18.781  0.00  0.00    +0.000 OA
BRANCH  13  20
ATOM     16  C   UNL     1      -4.180  13.285  24.093  0.00  0.00    +0.000 C 
ATOM     17  C   UNL     1      -3.331  12.779  22.966  0.00  0.00    +0.000 A 
ATOM     18  C   UNL     1      -2.165  12.045  23.220  0.00  0.00    +0.000 A 
ATOM     19  C   UNL     1      -1.384  11.584  22.164  0.00  0.00    +0.000 A 
ATOM     20  C   UNL     1      -1.774  11.829  20.844  0.00  0.00    +0.000 A 
ATOM     21  C   UNL     1      -2.924  12.574  20.571  0.00  0.00    +0.000 A 
ATOM     22  C   UNL     1      -3.701  13.038  21.640  0.00  0.00    +0.000 A 
ENDBRANCH  13  20
ENDBRANCH  11  13
ENDBRANCH   1  11
BRANCH  10  23
ATOM     23  C   UNL     1       3.909   5.390  17.829  0.00  0.00    +0.000 C 
BRANCH  23  24
ATOM     24  C   UNL     1       5.317   5.894  18.050  0.00  0.00    +0.000 A 
ATOM     25  C   UNL     1       6.107   5.316  19.053  0.00  0.00    +0.000 A 
ATOM     26  C   UNL     1       7.436   5.701  19.233  0.00  0.00    +0.000 A 
ATOM     27  C   UNL     1       8.010   6.653  18.395  0.00  0.00    +0.000 A 
ATOM     28  C   UNL     1       7.241   7.244  17.397  0.00  0.00    +0.000 A 
ATOM     29  C   UNL     1       5.901   6.880  17.236  0.00  0.00    +0.000 A 
ENDBRANCH  23  24
ENDBRANCH  10  23
TORSDOF 5
ENDMDL
