MODEL 1
REMARK VINA RESULT:      -7.7      0.000      0.000
REMARK  Name = 
REMARK  6 active torsions:
REMARK  status: ('A' for Active; 'I' for Inactive)
REMARK    1  A    between atoms: C_1  and  O_2
REMARK    2  A    between atoms: O_2  and  C_3
REMARK    3  A    between atoms: C_6  and  N_7
REMARK    4  A    between atoms: C_8  and  C_10
REMARK    5  A    between atoms: C_24  and  O_25
REMARK    6  A    between atoms: O_25  and  C_26
REMARK                            x       y       z     vdW  Elec       q    Type
REMARK                         _______ _______ _______ _____ _____    ______ ____
ROOT
ATOM      1  N   UNL     1       1.177  10.910  19.517  0.00  0.00    +0.000 N 
ATOM      2  C   UNL     1       1.812  10.178  18.513  0.00  0.00    +0.000 C 
ATOM      3  O   UNL     1       2.279  10.726  17.513  0.00  0.00    +0.000 OA
ATOM      4  H   UNL     1       1.145  10.512  20.449  0.00  0.00    +0.000 HD
ENDROOT
BRANCH   2   5
ATOM      5  C   UNL     1       2.114   8.761  18.748  0.00  0.00    +0.000 A 
ATOM      6  C   UNL     1       2.619   7.950  17.755  0.00  0.00    +0.000 A 
ATOM      7  C   UNL     1       3.117   6.733  18.281  0.00  0.00    +0.000 A 
ATOM      8  C   UNL     1       3.896   5.762  17.656  0.00  0.00    +0.000 A 
ATOM      9 CL   UNL     1       5.417   5.584  18.506  0.00  0.00    +0.000 Cl
ATOM     10  N   UNL     1       3.324   4.577  17.421  0.00  0.00    +0.000 NA
ATOM     11  C   UNL     1       2.425   4.144  18.281  0.00  0.00    +0.000 A 
ATOM     12  C   UNL     1       2.015   2.846  18.063  0.00  0.00    +0.000 A 
ATOM     13  C   UNL     1       1.334   2.148  19.042  0.00  0.00    +0.000 A 
ATOM     14  C   UNL     1       1.041   2.770  20.239  0.00  0.00    +0.000 A 
ATOM     15  C   UNL     1       1.325   4.135  20.442  0.00  0.00    +0.000 A 
ATOM     16  C   UNL     1       1.988   4.879  19.422  0.00  0.00    +0.000 A 
ATOM     17  C   UNL     1       2.251   6.304  19.296  0.00  0.00    +0.000 A 
ATOM     18  S   UNL     1       1.745   7.781  20.128  0.00  0.00    +0.000 S 
ENDBRANCH   2   5
BRANCH   1  22
ATOM     19  C   UNL     1       0.441  15.107  19.139  0.00  0.00    +0.000 A 
ATOM     20  C   UNL     1       1.586  14.641  19.777  0.00  0.00    +0.000 A 
ATOM     21  C   UNL     1       1.813  13.265  19.932  0.00  0.00    +0.000 A 
ATOM     22  C   UNL     1       0.909  12.318  19.430  0.00  0.00    +0.000 A 
ATOM     23  C   UNL     1      -0.264  12.792  18.799  0.00  0.00    +0.000 A 
ATOM     24  C   UNL     1      -0.487  14.183  18.668  0.00  0.00    +0.000 A 
BRANCH  19  26
ATOM     25  C   UNL     1      -0.506  17.006  18.037  0.00  0.00    +0.000 C 
ATOM     26  O   UNL     1       0.357  16.470  19.032  0.00  0.00    +0.000 OA
ENDBRANCH  19  26
BRANCH  23  27
ATOM     27  O   UNL     1      -1.166  11.841  18.374  0.00  0.00    +0.000 OA
ATOM     28  C   UNL     1      -2.457  11.899  18.974  0.00  0.00    +0.000 C 
ENDBRANCH  23  27
ENDBRANCH   1  22
TORSDOF 4
ENDMDL
MODEL 2
REMARK VINA RESULT:      -7.6      3.622      5.478
REMARK  Name = 
REMARK  6 active torsions:
REMARK  status: ('A' for Active; 'I' for Inactive)
REMARK    1  A    between atoms: C_1  and  O_2
REMARK    2  A    between atoms: O_2  and  C_3
REMARK    3  A    between atoms: C_6  and  N_7
REMARK    4  A    between atoms: C_8  and  C_10
REMARK    5  A    between atoms: C_24  and  O_25
REMARK    6  A    between atoms: O_25  and  C_26
REMARK                            x       y       z     vdW  Elec       q    Type
REMARK                         _______ _______ _______ _____ _____    ______ ____
ROOT
ATOM      1  N   UNL     1       2.642   7.672  19.036  0.00  0.00    +0.000 N 
ATOM      2  C   UNL     1       2.676   6.286  18.882  0.00  0.00    +0.000 C 
ATOM      3  O   UNL     1       1.788   5.564  19.340  0.00  0.00    +0.000 OA
ATOM      4  H   UNL     1       3.147   8.238  18.364  0.00  0.00    +0.000 HD
ENDROOT
BRANCH   2   5
ATOM      5  C   UNL     1       3.673   5.694  17.981  0.00  0.00    +0.000 A 
ATOM      6  C   UNL     1       4.875   6.314  17.717  0.00  0.00    +0.000 A 
ATOM      7  C   UNL     1       5.786   5.433  17.085  0.00  0.00    +0.000 A 
ATOM      8  C   UNL     1       7.151   5.598  16.860  0.00  0.00    +0.000 A 
ATOM      9 CL   UNL     1       8.043   4.327  17.671  0.00  0.00    +0.000 Cl
ATOM     10  N   UNL     1       7.550   5.745  15.593  0.00  0.00    +0.000 NA
ATOM     11  C   UNL     1       6.873   5.112  14.657  0.00  0.00    +0.000 A 
ATOM     12  C   UNL     1       7.449   5.174  13.406  0.00  0.00    +0.000 A 
ATOM     13  C   UNL     1       7.048   4.314  12.402  0.00  0.00    +0.000 A 
ATOM     14  C   UNL     1       6.041   3.403  12.651  0.00  0.00    +0.000 A 
ATOM     15  C   UNL     1       5.339   3.406  13.873  0.00  0.00    +0.000 A 
ATOM     16  C   UNL     1       5.715   4.319  14.902  0.00  0.00    +0.000 A 
ATOM     17  C   UNL     1       5.077   4.647  16.167  0.00  0.00    +0.000 A 
ATOM     18  S   UNL     1       3.525   4.312  16.947  0.00  0.00    +0.000 S 
ENDBRANCH   2   5
BRANCH   1  22
ATOM     19  C   UNL     1      -0.185   9.802  21.438  0.00  0.00    +0.000 A 
ATOM     20  C   UNL     1       0.368   8.607  21.883  0.00  0.00    +0.000 A 
ATOM     21  C   UNL     1       1.270   7.889  21.082  0.00  0.00    +0.000 A 
ATOM     22  C   UNL     1       1.661   8.363  19.823  0.00  0.00    +0.000 A 
ATOM     23  C   UNL     1       1.084   9.569  19.361  0.00  0.00    +0.000 A 
ATOM     24  C   UNL     1       0.160  10.270  20.172  0.00  0.00    +0.000 A 
BRANCH  19  26
ATOM     25  C   UNL     1      -0.932  11.824  22.472  0.00  0.00    +0.000 C 
ATOM     26  O   UNL     1      -1.028  10.413  22.327  0.00  0.00    +0.000 OA
ENDBRANCH  19  26
BRANCH  23  27
ATOM     27  O   UNL     1       1.434   9.979  18.093  0.00  0.00    +0.000 OA
ATOM     28  C   UNL     1       2.123  11.223  18.012  0.00  0.00    +0.000 C 
ENDBRANCH  23  27
ENDBRANCH   1  22
TORSDOF 4
ENDMDL
MODEL 3
REMARK VINA RESULT:      -7.6      2.830      3.987
REMARK  Name = 
REMARK  6 active torsions:
REMARK  status: ('A' for Active; 'I' for Inactive)
REMARK    1  A    between atoms: C_1  and  O_2
REMARK    2  A    between atoms: O_2  and  C_3
REMARK    3  A    between atoms: C_6  and  N_7
REMARK    4  A    between atoms: C_8  and  C_10
REMARK    5  A    between atoms: C_24  and  O_25
REMARK    6  A    between atoms: O_25  and  C_26
REMARK                            x       y       z     vdW  Elec       q    Type
REMARK                         _______ _______ _______ _____ _____    ______ ____
ROOT
ATOM      1  N   UNL     1       0.938  10.253  21.041  0.00  0.00    +0.000 N 
ATOM      2  C   UNL     1       0.586   9.629  19.843  0.00  0.00    +0.000 C 
ATOM      3  O   UNL     1      -0.336  10.051  19.143  0.00  0.00    +0.000 OA
ATOM      4  H   UNL     1       1.883  10.128  21.383  0.00  0.00    +0.000 HD
ENDROOT
BRANCH   2   5
ATOM      5  C   UNL     1       1.461   8.581  19.303  0.00  0.00    +0.000 A 
ATOM      6  C   UNL     1       1.931   7.550  20.087  0.00  0.00    +0.000 A 
ATOM      7  C   UNL     1       2.485   6.511  19.300  0.00  0.00    +0.000 A 
ATOM      8  C   UNL     1       2.855   5.223  19.683  0.00  0.00    +0.000 A 
ATOM      9 CL   UNL     1       1.926   4.046  18.777  0.00  0.00    +0.000 Cl
ATOM     10  N   UNL     1       4.159   4.932  19.673  0.00  0.00    +0.000 NA
ATOM     11  C   UNL     1       4.913   5.512  18.762  0.00  0.00    +0.000 A 
ATOM     12  C   UNL     1       6.203   5.029  18.707  0.00  0.00    +0.000 A 
ATOM     13  C   UNL     1       7.011   5.297  17.619  0.00  0.00    +0.000 A 
ATOM     14  C   UNL     1       6.525   6.079  16.590  0.00  0.00    +0.000 A 
ATOM     15  C   UNL     1       5.263   6.700  16.678  0.00  0.00    +0.000 A 
ATOM     16  C   UNL     1       4.438   6.467  17.817  0.00  0.00    +0.000 A 
ATOM     17  C   UNL     1       3.193   7.091  18.238  0.00  0.00    +0.000 A 
ATOM     18  S   UNL     1       2.233   8.496  17.754  0.00  0.00    +0.000 S 
ENDBRANCH   2   5
BRANCH   1  22
ATOM     19  C   UNL     1      -1.164  13.506  22.860  0.00  0.00    +0.000 A 
ATOM     20  C   UNL     1      -1.522  12.189  23.128  0.00  0.00    +0.000 A 
ATOM     21  C   UNL     1      -0.856  11.121  22.506  0.00  0.00    +0.000 A 
ATOM     22  C   UNL     1       0.204  11.344  21.617  0.00  0.00    +0.000 A 
ATOM     23  C   UNL     1       0.555  12.683  21.328  0.00  0.00    +0.000 A 
ATOM     24  C   UNL     1      -0.139  13.749  21.948  0.00  0.00    +0.000 A 
BRANCH  19  26
ATOM     25  C   UNL     1      -1.206  15.155  24.590  0.00  0.00    +0.000 C 
ATOM     26  O   UNL     1      -1.874  14.448  23.553  0.00  0.00    +0.000 OA
ENDBRANCH  19  26
BRANCH  23  27
ATOM     27  O   UNL     1       1.556  12.875  20.400  0.00  0.00    +0.000 OA
ATOM     28  C   UNL     1       1.136  13.349  19.124  0.00  0.00    +0.000 C 
ENDBRANCH  23  27
ENDBRANCH   1  22
TORSDOF 4
ENDMDL
MODEL 4
REMARK VINA RESULT:      -7.5      2.826      4.109
REMARK  Name = 
REMARK  6 active torsions:
REMARK  status: ('A' for Active; 'I' for Inactive)
REMARK    1  A    between atoms: C_1  and  O_2
REMARK    2  A    between atoms: O_2  and  C_3
REMARK    3  A    between atoms: C_6  and  N_7
REMARK    4  A    between atoms: C_8  and  C_10
REMARK    5  A    between atoms: C_24  and  O_25
REMARK    6  A    between atoms: O_25  and  C_26
REMARK                            x       y       z     vdW  Elec       q    Type
REMARK                         _______ _______ _______ _____ _____    ______ ____
ROOT
ATOM      1  N   UNL     1       0.171   9.656  20.109  0.00  0.00    +0.000 N 
ATOM      2  C   UNL     1       1.226   8.865  20.564  0.00  0.00    +0.000 C 
ATOM      3  O   UNL     1       1.516   8.801  21.761  0.00  0.00    +0.000 OA
ATOM      4  H   UNL     1      -0.264   9.408  19.228  0.00  0.00    +0.000 HD
ENDROOT
BRANCH   2   5
ATOM      5  C   UNL     1       1.869   7.931  19.632  0.00  0.00    +0.000 A 
ATOM      6  C   UNL     1       2.226   6.655  20.010  0.00  0.00    +0.000 A 
ATOM      7  C   UNL     1       2.536   5.848  18.887  0.00  0.00    +0.000 A 
ATOM      8  C   UNL     1       2.719   4.469  18.824  0.00  0.00    +0.000 A 
ATOM      9 CL   UNL     1       1.539   3.763  17.738  0.00  0.00    +0.000 Cl
ATOM     10  N   UNL     1       3.953   4.026  18.561  0.00  0.00    +0.000 NA
ATOM     11  C   UNL     1       4.715   4.756  17.773  0.00  0.00    +0.000 A 
ATOM     12  C   UNL     1       5.899   4.149  17.413  0.00  0.00    +0.000 A 
ATOM     13  C   UNL     1       6.647   4.633  16.358  0.00  0.00    +0.000 A 
ATOM     14  C   UNL     1       6.214   5.753  15.676  0.00  0.00    +0.000 A 
ATOM     15  C   UNL     1       5.082   6.475  16.104  0.00  0.00    +0.000 A 
ATOM     16  C   UNL     1       4.327   6.011  17.220  0.00  0.00    +0.000 A 
ATOM     17  C   UNL     1       3.240   6.631  17.962  0.00  0.00    +0.000 A 
ATOM     18  S   UNL     1       2.487   8.230  18.041  0.00  0.00    +0.000 S 
ENDBRANCH   2   5
BRANCH   1  22
ATOM     19  C   UNL     1      -1.969  12.365  22.635  0.00  0.00    +0.000 A 
ATOM     20  C   UNL     1      -1.329  11.251  23.168  0.00  0.00    +0.000 A 
ATOM     21  C   UNL     1      -0.655  10.343  22.337  0.00  0.00    +0.000 A 
ATOM     22  C   UNL     1      -0.584  10.540  20.951  0.00  0.00    +0.000 A 
ATOM     23  C   UNL     1      -1.251  11.661  20.407  0.00  0.00    +0.000 A 
ATOM     24  C   UNL     1      -1.943  12.557  21.256  0.00  0.00    +0.000 A 
BRANCH  19  26
ATOM     25  C   UNL     1      -3.905  12.895  23.935  0.00  0.00    +0.000 C 
ATOM     26  O   UNL     1      -2.564  13.183  23.558  0.00  0.00    +0.000 OA
ENDBRANCH  19  26
BRANCH  23  27
ATOM     27  O   UNL     1      -1.221  11.795  19.035  0.00  0.00    +0.000 OA
ATOM     28  C   UNL     1      -0.529  12.938  18.539  0.00  0.00    +0.000 C 
ENDBRANCH  23  27
ENDBRANCH   1  22
TORSDOF 4
ENDMDL
MODEL 5
REMARK VINA RESULT:      -7.4      2.864      4.022
REMARK  Name = 
REMARK  6 active torsions:
REMARK  status: ('A' for Active; 'I' for Inactive)
REMARK    1  A    between atoms: C_1  and  O_2
REMARK    2  A    between atoms: O_2  and  C_3
REMARK    3  A    between atoms: C_6  and  N_7
REMARK    4  A    between atoms: C_8  and  C_10
REMARK    5  A    between atoms: C_24  and  O_25
REMARK    6  A    between atoms: O_25  and  C_26
REMARK                            x       y       z     vdW  Elec       q    Type
REMARK                         _______ _______ _______ _____ _____    ______ ____
ROOT
ATOM      1  N   UNL     1      -0.352  10.079  20.307  0.00  0.00    +0.000 N 
ATOM      2  C   UNL     1       0.857  10.207  19.623  0.00  0.00    +0.000 C 
ATOM      3  O   UNL     1       1.441  11.291  19.542  0.00  0.00    +0.000 OA
ATOM      4  H   UNL     1      -0.601   9.164  20.665  0.00  0.00    +0.000 HD
ENDROOT
BRANCH   2   5
ATOM      5  C   UNL     1       1.552   8.996  19.171  0.00  0.00    +0.000 A 
ATOM      6  C   UNL     1       1.936   8.006  20.049  0.00  0.00    +0.000 A 
ATOM      7  C   UNL     1       2.299   6.819  19.368  0.00  0.00    +0.000 A 
ATOM      8  C   UNL     1       2.524   5.545  19.885  0.00  0.00    +0.000 A 
ATOM      9 CL   UNL     1       1.394   4.410  19.177  0.00  0.00    +0.000 Cl
ATOM     10  N   UNL     1       3.776   5.080  19.845  0.00  0.00    +0.000 NA
ATOM     11  C   UNL     1       4.538   5.446  18.834  0.00  0.00    +0.000 A 
ATOM     12  C   UNL     1       5.748   4.789  18.774  0.00  0.00    +0.000 A 
ATOM     13  C   UNL     1       6.510   4.819  17.622  0.00  0.00    +0.000 A 
ATOM     14  C   UNL     1       6.063   5.538  16.531  0.00  0.00    +0.000 A 
ATOM     15  C   UNL     1       4.900   6.330  16.606  0.00  0.00    +0.000 A 
ATOM     16  C   UNL     1       4.128   6.343  17.805  0.00  0.00    +0.000 A 
ATOM     17  C   UNL     1       3.004   7.173  18.209  0.00  0.00    +0.000 A 
ATOM     18  S   UNL     1       2.203   8.631  17.607  0.00  0.00    +0.000 S 
ENDBRANCH   2   5
BRANCH   1  22
ATOM     19  C   UNL     1      -2.602  13.296  22.008  0.00  0.00    +0.000 A 
ATOM     20  C   UNL     1      -2.740  12.963  20.664  0.00  0.00    +0.000 A 
ATOM     21  C   UNL     1      -1.978  11.931  20.096  0.00  0.00    +0.000 A 
ATOM     22  C   UNL     1      -1.074  11.186  20.866  0.00  0.00    +0.000 A 
ATOM     23  C   UNL     1      -0.918  11.536  22.227  0.00  0.00    +0.000 A 
ATOM     24  C   UNL     1      -1.679  12.594  22.780  0.00  0.00    +0.000 A 
BRANCH  19  26
ATOM     25  C   UNL     1      -4.809  14.205  22.136  0.00  0.00    +0.000 C 
ATOM     26  O   UNL     1      -3.423  14.302  22.439  0.00  0.00    +0.000 OA
ENDBRANCH  19  26
BRANCH  23  27
ATOM     27  O   UNL     1       0.025  10.833  22.945  0.00  0.00    +0.000 OA
ATOM     28  C   UNL     1      -0.379   9.547  23.406  0.00  0.00    +0.000 C 
ENDBRANCH  23  27
ENDBRANCH   1  22
TORSDOF 4
ENDMDL
MODEL 6
REMARK VINA RESULT:      -7.4      2.519      3.907
REMARK  Name = 
REMARK  6 active torsions:
REMARK  status: ('A' for Active; 'I' for Inactive)
REMARK    1  A    between atoms: C_1  and  O_2
REMARK    2  A    between atoms: O_2  and  C_3
REMARK    3  A    between atoms: C_6  and  N_7
REMARK    4  A    between atoms: C_8  and  C_10
REMARK    5  A    between atoms: C_24  and  O_25
REMARK    6  A    between atoms: O_25  and  C_26
REMARK                            x       y       z     vdW  Elec       q    Type
REMARK                         _______ _______ _______ _____ _____    ______ ____
ROOT
ATOM      1  N   UNL     1       0.633  10.493  19.448  0.00  0.00    +0.000 N 
ATOM      2  C   UNL     1       0.940   9.289  20.083  0.00  0.00    +0.000 C 
ATOM      3  O   UNL     1       0.427   8.978  21.160  0.00  0.00    +0.000 OA
ATOM      4  H   UNL     1       0.764  10.549  18.445  0.00  0.00    +0.000 HD
ENDROOT
BRANCH   2   5
ATOM      5  C   UNL     1       1.726   8.283  19.359  0.00  0.00    +0.000 A 
ATOM      6  C   UNL     1       2.061   7.073  19.927  0.00  0.00    +0.000 A 
ATOM      7  C   UNL     1       2.539   6.158  18.957  0.00  0.00    +0.000 A 
ATOM      8  C   UNL     1       2.764   4.789  19.080  0.00  0.00    +0.000 A 
ATOM      9 CL   UNL     1       1.758   3.918  17.941  0.00  0.00    +0.000 Cl
ATOM     10  N   UNL     1       4.032   4.369  19.035  0.00  0.00    +0.000 NA
ATOM     11  C   UNL     1       4.875   5.037  18.273  0.00  0.00    +0.000 A 
ATOM     12  C   UNL     1       6.111   4.441  18.144  0.00  0.00    +0.000 A 
ATOM     13  C   UNL     1       6.982   4.833  17.146  0.00  0.00    +0.000 A 
ATOM     14  C   UNL     1       6.616   5.849  16.287  0.00  0.00    +0.000 A 
ATOM     15  C   UNL     1       5.420   6.570  16.475  0.00  0.00    +0.000 A 
ATOM     16  C   UNL     1       4.533   6.204  17.530  0.00  0.00    +0.000 A 
ATOM     17  C   UNL     1       3.341   6.859  18.046  0.00  0.00    +0.000 A 
ATOM     18  S   UNL     1       2.544   8.425  17.838  0.00  0.00    +0.000 S 
ENDBRANCH   2   5
BRANCH   1  22
ATOM     19  C   UNL     1      -1.866  13.444  21.278  0.00  0.00    +0.000 A 
ATOM     20  C   UNL     1      -2.392  12.531  20.371  0.00  0.00    +0.000 A 
ATOM     21  C   UNL     1      -1.568  11.584  19.744  0.00  0.00    +0.000 A 
ATOM     22  C   UNL     1      -0.197  11.511  20.028  0.00  0.00    +0.000 A 
ATOM     23  C   UNL     1       0.342  12.451  20.935  0.00  0.00    +0.000 A 
ATOM     24  C   UNL     1      -0.499  13.413  21.544  0.00  0.00    +0.000 A 
BRANCH  19  26
ATOM     25  C   UNL     1      -4.073  13.776  22.136  0.00  0.00    +0.000 C 
ATOM     26  O   UNL     1      -2.783  14.294  21.836  0.00  0.00    +0.000 OA
ENDBRANCH  19  26
BRANCH  23  27
ATOM     27  O   UNL     1       1.703  12.400  21.147  0.00  0.00    +0.000 OA
ATOM     28  C   UNL     1       2.454  13.489  20.617  0.00  0.00    +0.000 C 
ENDBRANCH  23  27
ENDBRANCH   1  22
TORSDOF 4
ENDMDL
MODEL 7
REMARK VINA RESULT:      -7.4      2.816      3.753
REMARK  Name = 
REMARK  6 active torsions:
REMARK  status: ('A' for Active; 'I' for Inactive)
REMARK    1  A    between atoms: C_1  and  O_2
REMARK    2  A    between atoms: O_2  and  C_3
REMARK    3  A    between atoms: C_6  and  N_7
REMARK    4  A    between atoms: C_8  and  C_10
REMARK    5  A    between atoms: C_24  and  O_25
REMARK    6  A    between atoms: O_25  and  C_26
REMARK                            x       y       z     vdW  Elec       q    Type
REMARK                         _______ _______ _______ _____ _____    ______ ____
ROOT
ATOM      1  N   UNL     1      -0.388   9.997  20.510  0.00  0.00    +0.000 N 
ATOM      2  C   UNL     1       0.835  10.148  19.856  0.00  0.00    +0.000 C 
ATOM      3  O   UNL     1       1.433  11.225  19.847  0.00  0.00    +0.000 OA
ATOM      4  H   UNL     1      -0.656   9.066  20.810  0.00  0.00    +0.000 HD
ENDROOT
BRANCH   2   5
ATOM      5  C   UNL     1       1.522   8.954  19.347  0.00  0.00    +0.000 A 
ATOM      6  C   UNL     1       1.926   7.936  20.182  0.00  0.00    +0.000 A 
ATOM      7  C   UNL     1       2.277   6.774  19.452  0.00  0.00    +0.000 A 
ATOM      8  C   UNL     1       2.515   5.483  19.920  0.00  0.00    +0.000 A 
ATOM      9 CL   UNL     1       1.373   4.370  19.196  0.00  0.00    +0.000 Cl
ATOM     10  N   UNL     1       3.767   5.023  19.838  0.00  0.00    +0.000 NA
ATOM     11  C   UNL     1       4.507   5.426  18.825  0.00  0.00    +0.000 A 
ATOM     12  C   UNL     1       5.717   4.775  18.716  0.00  0.00    +0.000 A 
ATOM     13  C   UNL     1       6.455   4.847  17.550  0.00  0.00    +0.000 A 
ATOM     14  C   UNL     1       5.983   5.603  16.495  0.00  0.00    +0.000 A 
ATOM     15  C   UNL     1       4.821   6.389  16.622  0.00  0.00    +0.000 A 
ATOM     16  C   UNL     1       4.074   6.357  17.836  0.00  0.00    +0.000 A 
ATOM     17  C   UNL     1       2.958   7.170  18.292  0.00  0.00    +0.000 A 
ATOM     18  S   UNL     1       2.141   8.646  17.758  0.00  0.00    +0.000 S 
ENDBRANCH   2   5
BRANCH   1  22
ATOM     19  C   UNL     1      -2.421  13.305  22.306  0.00  0.00    +0.000 A 
ATOM     20  C   UNL     1      -1.682  12.418  23.082  0.00  0.00    +0.000 A 
ATOM     21  C   UNL     1      -1.042  11.313  22.499  0.00  0.00    +0.000 A 
ATOM     22  C   UNL     1      -1.106  11.080  21.118  0.00  0.00    +0.000 A 
ATOM     23  C   UNL     1      -1.874  11.970  20.332  0.00  0.00    +0.000 A 
ATOM     24  C   UNL     1      -2.529  13.068  20.938  0.00  0.00    +0.000 A 
BRANCH  19  26
ATOM     25  C   UNL     1      -2.287  14.818  24.152  0.00  0.00    +0.000 C 
ATOM     26  O   UNL     1      -2.970  14.353  22.995  0.00  0.00    +0.000 OA
ENDBRANCH  19  26
BRANCH  23  27
ATOM     27  O   UNL     1      -1.975  11.681  18.988  0.00  0.00    +0.000 OA
ATOM     28  C   UNL     1      -3.300  11.586  18.472  0.00  0.00    +0.000 C 
ENDBRANCH  23  27
ENDBRANCH   1  22
TORSDOF 4
ENDMDL
MODEL 8
REMARK VINA RESULT:      -7.4      2.508      3.602
REMARK  Name = 
REMARK  6 active torsions:
REMARK  status: ('A' for Active; 'I' for Inactive)
REMARK    1  A    between atoms: C_1  and  O_2
REMARK    2  A    between atoms: O_2  and  C_3
REMARK    3  A    between atoms: C_6  and  N_7
REMARK    4  A    between atoms: C_8  and  C_10
REMARK    5  A    between atoms: C_24  and  O_25
REMARK    6  A    between atoms: O_25  and  C_26
REMARK                            x       y       z     vdW  Elec       q    Type
REMARK                         _______ _______ _______ _____ _____    ______ ____
ROOT
ATOM      1  N   UNL     1       0.749  10.303  19.558  0.00  0.00    +0.000 N 
ATOM      2  C   UNL     1       1.010   9.068  20.152  0.00  0.00    +0.000 C 
ATOM      3  O   UNL     1       0.449   8.722  21.193  0.00  0.00    +0.000 OA
ATOM      4  H   UNL     1       0.921  10.398  18.564  0.00  0.00    +0.000 HD
ENDROOT
BRANCH   2   5
ATOM      5  C   UNL     1       1.807   8.078  19.417  0.00  0.00    +0.000 A 
ATOM      6  C   UNL     1       2.208   6.893  19.994  0.00  0.00    +0.000 A 
ATOM      7  C   UNL     1       2.685   5.978  19.023  0.00  0.00    +0.000 A 
ATOM      8  C   UNL     1       2.966   4.621  19.163  0.00  0.00    +0.000 A 
ATOM      9 CL   UNL     1       1.953   3.691  18.078  0.00  0.00    +0.000 Cl
ATOM     10  N   UNL     1       4.247   4.248  19.077  0.00  0.00    +0.000 NA
ATOM     11  C   UNL     1       5.035   4.932  18.271  0.00  0.00    +0.000 A 
ATOM     12  C   UNL     1       6.287   4.381  18.107  0.00  0.00    +0.000 A 
ATOM     13  C   UNL     1       7.105   4.785  17.069  0.00  0.00    +0.000 A 
ATOM     14  C   UNL     1       6.669   5.771  16.206  0.00  0.00    +0.000 A 
ATOM     15  C   UNL     1       5.453   6.449  16.427  0.00  0.00    +0.000 A 
ATOM     16  C   UNL     1       4.621   6.071  17.521  0.00  0.00    +0.000 A 
ATOM     17  C   UNL     1       3.425   6.690  18.070  0.00  0.00    +0.000 A 
ATOM     18  S   UNL     1       2.561   8.221  17.864  0.00  0.00    +0.000 S 
ENDBRANCH   2   5
BRANCH   1  22
ATOM     19  C   UNL     1      -1.690  13.396  21.226  0.00  0.00    +0.000 A 
ATOM     20  C   UNL     1      -0.412  13.155  21.719  0.00  0.00    +0.000 A 
ATOM     21  C   UNL     1       0.377  12.118  21.196  0.00  0.00    +0.000 A 
ATOM     22  C   UNL     1      -0.085  11.311  20.147  0.00  0.00    +0.000 A 
ATOM     23  C   UNL     1      -1.391  11.544  19.659  0.00  0.00    +0.000 A 
ATOM     24  C   UNL     1      -2.181  12.580  20.211  0.00  0.00    +0.000 A 
BRANCH  19  26
ATOM     25  C   UNL     1      -3.045  14.215  23.017  0.00  0.00    +0.000 C 
ATOM     26  O   UNL     1      -2.340  14.453  21.805  0.00  0.00    +0.000 OA
ENDBRANCH  19  26
BRANCH  23  27
ATOM     27  O   UNL     1      -1.845  10.694  18.673  0.00  0.00    +0.000 OA
ATOM     28  C   UNL     1      -2.285  11.319  17.470  0.00  0.00    +0.000 C 
ENDBRANCH  23  27
ENDBRANCH   1  22
TORSDOF 4
ENDMDL
MODEL 9
REMARK VINA RESULT:      -7.3      2.375      2.839
REMARK  Name = 
REMARK  6 active torsions:
REMARK  status: ('A' for Active; 'I' for Inactive)
REMARK    1  A    between atoms: C_1  and  O_2
REMARK    2  A    between atoms: O_2  and  C_3
REMARK    3  A    between atoms: C_6  and  N_7
REMARK    4  A    between atoms: C_8  and  C_10
REMARK    5  A    between atoms: C_24  and  O_25
REMARK    6  A    between atoms: O_25  and  C_26
REMARK                            x       y       z     vdW  Elec       q    Type
REMARK                         _______ _______ _______ _____ _____    ______ ____
ROOT
ATOM      1  N   UNL     1       0.005   9.572  19.842  0.00  0.00    +0.000 N 
ATOM      2  C   UNL     1       1.173   9.566  19.079  0.00  0.00    +0.000 C 
ATOM      3  O   UNL     1       1.651  10.608  18.623  0.00  0.00    +0.000 OA
ATOM      4  H   UNL     1      -0.146   8.804  20.486  0.00  0.00    +0.000 HD
ENDROOT
BRANCH   2   5
ATOM      5  C   UNL     1       1.960   8.331  18.991  0.00  0.00    +0.000 A 
ATOM      6  C   UNL     1       2.543   7.921  17.812  0.00  0.00    +0.000 A 
ATOM      7  C   UNL     1       3.492   6.893  18.031  0.00  0.00    +0.000 A 
ATOM      8  C   UNL     1       4.440   6.373  17.152  0.00  0.00    +0.000 A 
ATOM      9 CL   UNL     1       6.048   6.615  17.805  0.00  0.00    +0.000 Cl
ATOM     10  N   UNL     1       4.265   5.116  16.734  0.00  0.00    +0.000 NA
ATOM     11  C   UNL     1       3.706   4.262  17.567  0.00  0.00    +0.000 A 
ATOM     12  C   UNL     1       3.720   2.956  17.128  0.00  0.00    +0.000 A 
ATOM     13  C   UNL     1       3.472   1.915  18.003  0.00  0.00    +0.000 A 
ATOM     14  C   UNL     1       3.182   2.193  19.323  0.00  0.00    +0.000 A 
ATOM     15  C   UNL     1       3.025   3.520  19.772  0.00  0.00    +0.000 A 
ATOM     16  C   UNL     1       3.235   4.602  18.869  0.00  0.00    +0.000 A 
ATOM     17  C   UNL     1       2.988   6.028  19.012  0.00  0.00    +0.000 A 
ATOM     18  S   UNL     1       2.159   7.078  20.171  0.00  0.00    +0.000 S 
ENDBRANCH   2   5
BRANCH   1  22
ATOM     19  C   UNL     1      -2.481  12.980  20.553  0.00  0.00    +0.000 A 
ATOM     20  C   UNL     1      -2.484  12.343  19.317  0.00  0.00    +0.000 A 
ATOM     21  C   UNL     1      -1.644  11.246  19.070  0.00  0.00    +0.000 A 
ATOM     22  C   UNL     1      -0.796  10.742  20.066  0.00  0.00    +0.000 A 
ATOM     23  C   UNL     1      -0.778  11.401  21.316  0.00  0.00    +0.000 A 
ATOM     24  C   UNL     1      -1.616  12.519  21.542  0.00  0.00    +0.000 A 
BRANCH  19  26
ATOM     25  C   UNL     1      -4.755  13.710  20.678  0.00  0.00    +0.000 C 
ATOM     26  O   UNL     1      -3.366  14.018  20.668  0.00  0.00    +0.000 OA
ENDBRANCH  19  26
BRANCH  23  27
ATOM     27  O   UNL     1       0.113  10.926  22.255  0.00  0.00    +0.000 OA
ATOM     28  C   UNL     1      -0.421  10.013  23.210  0.00  0.00    +0.000 C 
ENDBRANCH  23  27
ENDBRANCH   1  22
TORSDOF 4
ENDMDL
