MODEL 1
REMARK VINA RESULT:      -9.5      0.000      0.000
REMARK  Name = 
REMARK  7 active torsions:
REMARK  status: ('A' for Active; 'I' for Inactive)
REMARK    1  A    between atoms: C_1  and  C_2
REMARK    2  A    between atoms: C_2  and  C_3
REMARK    3  A    between atoms: C_2  and  C_4
REMARK    4  A    between atoms: N_6  and  C_7
REMARK    5  A    between atoms: C_7  and  C_8
REMARK    6  A    between atoms: C_13  and  C_14
REMARK    7  A    between atoms: C_20  and  N_21
REMARK                            x       y       z     vdW  Elec       q    Type
REMARK                         _______ _______ _______ _____ _____    ______ ____
ROOT
ATOM      1  C   UNL     1       2.298   6.865  19.417  0.00  0.00    +0.000 A 
ATOM      2  N   UNL     1       2.083   7.366  20.590  0.00  0.00    +0.000 NA
ATOM      3  C   UNL     1       1.399   8.586  20.670  0.00  0.00    +0.000 A 
ATOM      4  C   UNL     1       0.742   8.940  21.833  0.00  0.00    +0.000 A 
ATOM      5  C   UNL     1       0.030  10.148  21.899  0.00  0.00    +0.000 A 
ATOM      6 CL   UNL     1      -1.075  10.248  23.241  0.00  0.00    +0.000 Cl
ATOM      7  C   UNL     1       0.087  11.128  20.866  0.00  0.00    +0.000 A 
ATOM      8  C   UNL     1       0.740  10.714  19.684  0.00  0.00    +0.000 A 
ATOM      9  C   UNL     1       1.318   9.443  19.584  0.00  0.00    +0.000 A 
ATOM     10  C   UNL     1       1.808   8.877  18.320  0.00  0.00    +0.000 A 
ATOM     11  O   UNL     1       2.157   9.579  17.384  0.00  0.00    +0.000 OA
ATOM     12  N   UNL     1       1.817   7.491  18.285  0.00  0.00    +0.000 N 
ATOM     13  H   UNL     1       0.833   7.231  18.269  0.00  0.00    +0.000 HD
ENDROOT
BRANCH   7  14
ATOM     14  N   UNL     1      -0.430  12.412  20.966  0.00  0.00    +0.000 N 
ATOM     15  C   UNL     1      -1.714  12.785  20.354  0.00  0.00    +0.000 C 
ATOM     16  C   UNL     1      -2.653  13.330  21.430  0.00  0.00    +0.000 C 
ATOM     17  N   UNL     1      -2.057  14.389  22.210  0.00  0.00    +0.000 N 
ATOM     18  C   UNL     1      -0.723  14.382  22.540  0.00  0.00    +0.000 C 
ATOM     19  O   UNL     1      -0.323  15.127  23.434  0.00  0.00    +0.000 OA
ATOM     20  C   UNL     1       0.238  13.518  21.697  0.00  0.00    +0.000 C 
ATOM     21  H   UNL     1      -2.636  14.920  22.849  0.00  0.00    +0.000 HD
ENDBRANCH   7  14
BRANCH   1  27
ATOM     22  C   UNL     1       5.048   4.409  18.440  0.00  0.00    +0.000 A 
ATOM     23  C   UNL     1       4.471   3.190  18.803  0.00  0.00    +0.000 A 
ATOM     24  C   UNL     1       3.194   3.151  19.363  0.00  0.00    +0.000 A 
ATOM     25  C   UNL     1       2.460   4.329  19.563  0.00  0.00    +0.000 A 
ATOM     26 CL   UNL     1       0.869   4.111  20.205  0.00  0.00    +0.000 Cl
ATOM     27  C   UNL     1       3.010   5.568  19.200  0.00  0.00    +0.000 A 
ATOM     28  C   UNL     1       4.307   5.591  18.635  0.00  0.00    +0.000 A 
BRANCH  22  29
ATOM     29  C   UNL     1       6.433   4.442  17.847  0.00  0.00    +0.000 C 
BRANCH  29  32
ATOM     30  C   UNL     1       6.965   4.803  15.486  0.00  0.00    +0.000 C 
ATOM     31  O   UNL     1       7.481   5.890  15.731  0.00  0.00    +0.000 OA
ATOM     32  N   UNL     1       6.439   3.996  16.473  0.00  0.00    +0.000 N 
ATOM     33  H   UNL     1       5.855   3.213  16.212  0.00  0.00    +0.000 HD
BRANCH  30  35
ATOM     34  C   UNL     1       5.391   4.042  13.671  0.00  0.00    +0.000 C 
ATOM     35  C   UNL     1       6.854   4.225  14.075  0.00  0.00    +0.000 C 
ATOM     36  C   UNL     1       7.564   5.126  13.068  0.00  0.00    +0.000 C 
ENDBRANCH  30  35
ENDBRANCH  29  32
ENDBRANCH  22  29
ENDBRANCH   1  27
TORSDOF 5
ENDMDL
MODEL 2
REMARK VINA RESULT:      -9.2      1.035      1.285
REMARK  Name = 
REMARK  7 active torsions:
REMARK  status: ('A' for Active; 'I' for Inactive)
REMARK    1  A    between atoms: C_1  and  C_2
REMARK    2  A    between atoms: C_2  and  C_3
REMARK    3  A    between atoms: C_2  and  C_4
REMARK    4  A    between atoms: N_6  and  C_7
REMARK    5  A    between atoms: C_7  and  C_8
REMARK    6  A    between atoms: C_13  and  C_14
REMARK    7  A    between atoms: C_20  and  N_21
REMARK                            x       y       z     vdW  Elec       q    Type
REMARK                         _______ _______ _______ _____ _____    ______ ____
ROOT
ATOM      1  C   UNL     1       2.297   6.847  19.432  0.00  0.00    +0.000 A 
ATOM      2  N   UNL     1       2.083   7.345  20.607  0.00  0.00    +0.000 NA
ATOM      3  C   UNL     1       1.385   8.556  20.693  0.00  0.00    +0.000 A 
ATOM      4  C   UNL     1       0.730   8.901  21.859  0.00  0.00    +0.000 A 
ATOM      5  C   UNL     1       0.005  10.101  21.931  0.00  0.00    +0.000 A 
ATOM      6 CL   UNL     1      -1.094  10.186  23.279  0.00  0.00    +0.000 Cl
ATOM      7  C   UNL     1       0.046  11.084  20.899  0.00  0.00    +0.000 A 
ATOM      8  C   UNL     1       0.696  10.678  19.713  0.00  0.00    +0.000 A 
ATOM      9  C   UNL     1       1.288   9.414  19.608  0.00  0.00    +0.000 A 
ATOM     10  C   UNL     1       1.778   8.856  18.341  0.00  0.00    +0.000 A 
ATOM     11  O   UNL     1       2.114   9.563  17.404  0.00  0.00    +0.000 OA
ATOM     12  N   UNL     1       1.802   7.470  18.304  0.00  0.00    +0.000 N 
ATOM     13  H   UNL     1       0.822   7.199  18.293  0.00  0.00    +0.000 HD
ENDROOT
BRANCH   7  14
ATOM     14  N   UNL     1      -0.485  12.361  21.004  0.00  0.00    +0.000 N 
ATOM     15  C   UNL     1       0.306  13.562  20.698  0.00  0.00    +0.000 C 
ATOM     16  C   UNL     1      -0.395  14.371  19.607  0.00  0.00    +0.000 C 
ATOM     17  N   UNL     1      -1.776  14.655  19.920  0.00  0.00    +0.000 N 
ATOM     18  C   UNL     1      -2.569  13.751  20.584  0.00  0.00    +0.000 C 
ATOM     19  O   UNL     1      -3.790  13.900  20.570  0.00  0.00    +0.000 OA
ATOM     20  C   UNL     1      -1.884  12.644  21.413  0.00  0.00    +0.000 C 
ATOM     21  H   UNL     1      -2.292  15.306  19.341  0.00  0.00    +0.000 HD
ENDBRANCH   7  14
BRANCH   1  27
ATOM     22  C   UNL     1       5.073   4.425  18.446  0.00  0.00    +0.000 A 
ATOM     23  C   UNL     1       4.507   3.198  18.802  0.00  0.00    +0.000 A 
ATOM     24  C   UNL     1       3.230   3.144  19.359  0.00  0.00    +0.000 A 
ATOM     25  C   UNL     1       2.484   4.312  19.564  0.00  0.00    +0.000 A 
ATOM     26 CL   UNL     1       0.894   4.075  20.202  0.00  0.00    +0.000 Cl
ATOM     27  C   UNL     1       3.022   5.559  19.209  0.00  0.00    +0.000 A 
ATOM     28  C   UNL     1       4.320   5.598  18.647  0.00  0.00    +0.000 A 
BRANCH  22  29
ATOM     29  C   UNL     1       6.459   4.475  17.856  0.00  0.00    +0.000 C 
BRANCH  29  32
ATOM     30  C   UNL     1       6.980   4.818  15.490  0.00  0.00    +0.000 C 
ATOM     31  O   UNL     1       7.465   5.922  15.719  0.00  0.00    +0.000 OA
ATOM     32  N   UNL     1       6.476   4.010  16.489  0.00  0.00    +0.000 N 
ATOM     33  H   UNL     1       5.914   3.208  16.239  0.00  0.00    +0.000 HD
BRANCH  30  35
ATOM     34  C   UNL     1       5.426   3.995  13.684  0.00  0.00    +0.000 C 
ATOM     35  C   UNL     1       6.884   4.217  14.087  0.00  0.00    +0.000 C 
ATOM     36  C   UNL     1       7.575   5.119  13.068  0.00  0.00    +0.000 C 
ENDBRANCH  30  35
ENDBRANCH  29  32
ENDBRANCH  22  29
ENDBRANCH   1  27
TORSDOF 5
ENDMDL
MODEL 3
REMARK VINA RESULT:      -9.2      1.766      2.168
REMARK  Name = 
REMARK  7 active torsions:
REMARK  status: ('A' for Active; 'I' for Inactive)
REMARK    1  A    between atoms: C_1  and  C_2
REMARK    2  A    between atoms: C_2  and  C_3
REMARK    3  A    between atoms: C_2  and  C_4
REMARK    4  A    between atoms: N_6  and  C_7
REMARK    5  A    between atoms: C_7  and  C_8
REMARK    6  A    between atoms: C_13  and  C_14
REMARK    7  A    between atoms: C_20  and  N_21
REMARK                            x       y       z     vdW  Elec       q    Type
REMARK                         _______ _______ _______ _____ _____    ______ ____
ROOT
ATOM      1  C   UNL     1       2.533   6.976  18.960  0.00  0.00    +0.000 A 
ATOM      2  N   UNL     1       2.298   7.971  18.167  0.00  0.00    +0.000 NA
ATOM      3  C   UNL     1       1.789   9.152  18.724  0.00  0.00    +0.000 A 
ATOM      4  C   UNL     1       1.947  10.356  18.067  0.00  0.00    +0.000 A 
ATOM      5  C   UNL     1       1.464  11.541  18.642  0.00  0.00    +0.000 A 
ATOM      6 CL   UNL     1       2.106  12.992  17.925  0.00  0.00    +0.000 Cl
ATOM      7  C   UNL     1       0.653  11.548  19.814  0.00  0.00    +0.000 A 
ATOM      8  C   UNL     1       0.543  10.303  20.472  0.00  0.00    +0.000 A 
ATOM      9  C   UNL     1       1.159   9.157  19.959  0.00  0.00    +0.000 A 
ATOM     10  C   UNL     1       1.268   7.896  20.706  0.00  0.00    +0.000 A 
ATOM     11  O   UNL     1       0.490   7.599  21.598  0.00  0.00    +0.000 OA
ATOM     12  N   UNL     1       2.335   7.099  20.321  0.00  0.00    +0.000 N 
ATOM     13  H   UNL     1       3.159   7.607  20.636  0.00  0.00    +0.000 HD
ENDROOT
BRANCH   7  14
ATOM     14  N   UNL     1      -0.012  12.661  20.308  0.00  0.00    +0.000 N 
ATOM     15  C   UNL     1      -1.202  13.216  19.646  0.00  0.00    +0.000 C 
ATOM     16  C   UNL     1      -2.370  13.242  20.632  0.00  0.00    +0.000 C 
ATOM     17  N   UNL     1      -2.041  13.902  21.874  0.00  0.00    +0.000 N 
ATOM     18  C   UNL     1      -0.794  13.798  22.440  0.00  0.00    +0.000 C 
ATOM     19  O   UNL     1      -0.641  14.119  23.618  0.00  0.00    +0.000 OA
ATOM     20  C   UNL     1       0.390  13.386  21.540  0.00  0.00    +0.000 C 
ATOM     21  H   UNL     1      -2.778  14.106  22.537  0.00  0.00    +0.000 HD
ENDBRANCH   7  14
BRANCH   1  27
ATOM     22  C   UNL     1       4.883   4.462  17.316  0.00  0.00    +0.000 A 
ATOM     23  C   UNL     1       4.244   3.255  17.608  0.00  0.00    +0.000 A 
ATOM     24  C   UNL     1       3.053   3.244  18.335  0.00  0.00    +0.000 A 
ATOM     25  C   UNL     1       2.468   4.438  18.776  0.00  0.00    +0.000 A 
ATOM     26 CL   UNL     1       0.961   4.263  19.608  0.00  0.00    +0.000 Cl
ATOM     27  C   UNL     1       3.083   5.668  18.490  0.00  0.00    +0.000 A 
ATOM     28  C   UNL     1       4.291   5.662  17.754  0.00  0.00    +0.000 A 
BRANCH  22  29
ATOM     29  C   UNL     1       6.175   4.464  16.541  0.00  0.00    +0.000 C 
BRANCH  29  32
ATOM     30  C   UNL     1       6.473   4.324  14.116  0.00  0.00    +0.000 C 
ATOM     31  O   UNL     1       6.995   5.434  14.079  0.00  0.00    +0.000 OA
ATOM     32  N   UNL     1       6.054   3.743  15.295  0.00  0.00    +0.000 N 
ATOM     33  H   UNL     1       5.458   2.927  15.259  0.00  0.00    +0.000 HD
BRANCH  30  35
ATOM     34  C   UNL     1       4.794   3.610  12.375  0.00  0.00    +0.000 C 
ATOM     35  C   UNL     1       6.233   3.466  12.873  0.00  0.00    +0.000 C 
ATOM     36  C   UNL     1       7.209   3.847  11.762  0.00  0.00    +0.000 C 
ENDBRANCH  30  35
ENDBRANCH  29  32
ENDBRANCH  22  29
ENDBRANCH   1  27
TORSDOF 5
ENDMDL
MODEL 4
REMARK VINA RESULT:      -9.1      1.060      1.301
REMARK  Name = 
REMARK  7 active torsions:
REMARK  status: ('A' for Active; 'I' for Inactive)
REMARK    1  A    between atoms: C_1  and  C_2
REMARK    2  A    between atoms: C_2  and  C_3
REMARK    3  A    between atoms: C_2  and  C_4
REMARK    4  A    between atoms: N_6  and  C_7
REMARK    5  A    between atoms: C_7  and  C_8
REMARK    6  A    between atoms: C_13  and  C_14
REMARK    7  A    between atoms: C_20  and  N_21
REMARK                            x       y       z     vdW  Elec       q    Type
REMARK                         _______ _______ _______ _____ _____    ______ ____
ROOT
ATOM      1  C   UNL     1       2.297   6.944  19.503  0.00  0.00    +0.000 A 
ATOM      2  N   UNL     1       2.060   7.459  20.666  0.00  0.00    +0.000 NA
ATOM      3  C   UNL     1       1.371   8.677  20.720  0.00  0.00    +0.000 A 
ATOM      4  C   UNL     1       0.692   9.043  21.866  0.00  0.00    +0.000 A 
ATOM      5  C   UNL     1      -0.024  10.250  21.905  0.00  0.00    +0.000 A 
ATOM      6 CL   UNL     1      -1.153  10.363  23.225  0.00  0.00    +0.000 Cl
ATOM      7  C   UNL     1       0.050  11.219  20.861  0.00  0.00    +0.000 A 
ATOM      8  C   UNL     1       0.725  10.792  19.697  0.00  0.00    +0.000 A 
ATOM      9  C   UNL     1       1.308   9.522  19.622  0.00  0.00    +0.000 A 
ATOM     10  C   UNL     1       1.822   8.942  18.374  0.00  0.00    +0.000 A 
ATOM     11  O   UNL     1       2.187   9.634  17.437  0.00  0.00    +0.000 OA
ATOM     12  N   UNL     1       1.835   7.556  18.355  0.00  0.00    +0.000 N 
ATOM     13  H   UNL     1       0.852   7.293  18.325  0.00  0.00    +0.000 HD
ENDROOT
BRANCH   7  14
ATOM     14  N   UNL     1      -0.471  12.502  20.937  0.00  0.00    +0.000 N 
ATOM     15  C   UNL     1      -0.604  13.216  22.215  0.00  0.00    +0.000 C 
ATOM     16  C   UNL     1       0.160  14.538  22.143  0.00  0.00    +0.000 C 
ATOM     17  N   UNL     1      -0.207  15.336  20.996  0.00  0.00    +0.000 N 
ATOM     18  C   UNL     1      -0.511  14.765  19.785  0.00  0.00    +0.000 C 
ATOM     19  O   UNL     1      -0.529  15.470  18.776  0.00  0.00    +0.000 OA
ATOM     20  C   UNL     1      -0.929  13.279  19.757  0.00  0.00    +0.000 C 
ATOM     21  H   UNL     1       0.127  16.290  20.929  0.00  0.00    +0.000 HD
ENDBRANCH   7  14
BRANCH   1  27
ATOM     22  C   UNL     1       5.060   4.482  18.581  0.00  0.00    +0.000 A 
ATOM     23  C   UNL     1       4.489   3.268  18.969  0.00  0.00    +0.000 A 
ATOM     24  C   UNL     1       3.211   3.235  19.528  0.00  0.00    +0.000 A 
ATOM     25  C   UNL     1       2.471   4.412  19.702  0.00  0.00    +0.000 A 
ATOM     26 CL   UNL     1       0.880   4.200  20.348  0.00  0.00    +0.000 Cl
ATOM     27  C   UNL     1       3.016   5.647  19.314  0.00  0.00    +0.000 A 
ATOM     28  C   UNL     1       4.313   5.664  18.751  0.00  0.00    +0.000 A 
BRANCH  22  29
ATOM     29  C   UNL     1       6.446   4.510  17.990  0.00  0.00    +0.000 C 
BRANCH  29  32
ATOM     30  C   UNL     1       6.974   4.843  15.623  0.00  0.00    +0.000 C 
ATOM     31  O   UNL     1       7.481   5.937  15.853  0.00  0.00    +0.000 OA
ATOM     32  N   UNL     1       6.454   4.045  16.622  0.00  0.00    +0.000 N 
ATOM     33  H   UNL     1       5.876   3.255  16.372  0.00  0.00    +0.000 HD
BRANCH  30  35
ATOM     34  C   UNL     1       5.403   4.054  13.816  0.00  0.00    +0.000 C 
ATOM     35  C   UNL     1       6.866   4.245  14.221  0.00  0.00    +0.000 C 
ATOM     36  C   UNL     1       7.577   5.133  13.202  0.00  0.00    +0.000 C 
ENDBRANCH  30  35
ENDBRANCH  29  32
ENDBRANCH  22  29
ENDBRANCH   1  27
TORSDOF 5
ENDMDL
MODEL 5
REMARK VINA RESULT:      -9.1      1.819      2.219
REMARK  Name = 
REMARK  7 active torsions:
REMARK  status: ('A' for Active; 'I' for Inactive)
REMARK    1  A    between atoms: C_1  and  C_2
REMARK    2  A    between atoms: C_2  and  C_3
REMARK    3  A    between atoms: C_2  and  C_4
REMARK    4  A    between atoms: N_6  and  C_7
REMARK    5  A    between atoms: C_7  and  C_8
REMARK    6  A    between atoms: C_13  and  C_14
REMARK    7  A    between atoms: C_20  and  N_21
REMARK                            x       y       z     vdW  Elec       q    Type
REMARK                         _______ _______ _______ _____ _____    ______ ____
ROOT
ATOM      1  C   UNL     1       2.168   7.725  19.172  0.00  0.00    +0.000 A 
ATOM      2  N   UNL     1       1.781   8.742  18.471  0.00  0.00    +0.000 NA
ATOM      3  C   UNL     1       1.202   9.825  19.145  0.00  0.00    +0.000 A 
ATOM      4  C   UNL     1       1.196  11.080  18.569  0.00  0.00    +0.000 A 
ATOM      5  C   UNL     1       0.644  12.170  19.260  0.00  0.00    +0.000 A 
ATOM      6 CL   UNL     1       1.089  13.722  18.611  0.00  0.00    +0.000 Cl
ATOM      7  C   UNL     1      -0.077  12.017  20.480  0.00  0.00    +0.000 A 
ATOM      8  C   UNL     1      -0.019  10.726  21.051  0.00  0.00    +0.000 A 
ATOM      9  C   UNL     1       0.667   9.684  20.416  0.00  0.00    +0.000 A 
ATOM     10  C   UNL     1       0.950   8.394  21.060  0.00  0.00    +0.000 A 
ATOM     11  O   UNL     1       0.271   7.961  21.976  0.00  0.00    +0.000 OA
ATOM     12  N   UNL     1       2.058   7.737  20.548  0.00  0.00    +0.000 N 
ATOM     13  H   UNL     1       2.850   8.303  20.845  0.00  0.00    +0.000 HD
ENDROOT
BRANCH   7  14
ATOM     14  N   UNL     1      -0.809  13.021  21.097  0.00  0.00    +0.000 N 
ATOM     15  C   UNL     1      -2.223  13.266  20.775  0.00  0.00    +0.000 C 
ATOM     16  C   UNL     1      -3.062  13.159  22.049  0.00  0.00    +0.000 C 
ATOM     17  N   UNL     1      -2.562  13.989  23.120  0.00  0.00    +0.000 N 
ATOM     18  C   UNL     1      -1.217  14.187  23.316  0.00  0.00    +0.000 C 
ATOM     19  O   UNL     1      -0.828  14.645  24.389  0.00  0.00    +0.000 OA
ATOM     20  C   UNL     1      -0.257  13.927  22.136  0.00  0.00    +0.000 C 
ATOM     21  H   UNL     1      -3.121  14.109  23.956  0.00  0.00    +0.000 HD
ENDBRANCH   7  14
BRANCH   1  27
ATOM     22  C   UNL     1       4.514   5.589  17.056  0.00  0.00    +0.000 A 
ATOM     23  C   UNL     1       4.122   4.300  17.425  0.00  0.00    +0.000 A 
ATOM     24  C   UNL     1       3.100   4.112  18.356  0.00  0.00    +0.000 A 
ATOM     25  C   UNL     1       2.440   5.206  18.930  0.00  0.00    +0.000 A 
ATOM     26 CL   UNL     1       1.153   4.809  20.017  0.00  0.00    +0.000 Cl
ATOM     27  C   UNL     1       2.806   6.513  18.572  0.00  0.00    +0.000 A 
ATOM     28  C   UNL     1       3.845   6.688  17.629  0.00  0.00    +0.000 A 
BRANCH  22  29
ATOM     29  C   UNL     1       5.627   5.783  16.059  0.00  0.00    +0.000 C 
BRANCH  29  32
ATOM     30  C   UNL     1       6.609   4.701  14.095  0.00  0.00    +0.000 C 
ATOM     31  O   UNL     1       7.633   5.371  14.193  0.00  0.00    +0.000 OA
ATOM     32  N   UNL     1       5.564   4.814  14.989  0.00  0.00    +0.000 N 
ATOM     33  H   UNL     1       4.672   4.396  14.762  0.00  0.00    +0.000 HD
BRANCH  30  35
ATOM     34  C   UNL     1       4.903   3.611  12.594  0.00  0.00    +0.000 C 
ATOM     35  C   UNL     1       6.379   3.674  12.987  0.00  0.00    +0.000 C 
ATOM     36  C   UNL     1       7.230   4.006  11.763  0.00  0.00    +0.000 C 
ENDBRANCH  30  35
ENDBRANCH  29  32
ENDBRANCH  22  29
ENDBRANCH   1  27
TORSDOF 5
ENDMDL
MODEL 6
REMARK VINA RESULT:      -8.9      1.071      1.176
REMARK  Name = 
REMARK  7 active torsions:
REMARK  status: ('A' for Active; 'I' for Inactive)
REMARK    1  A    between atoms: C_1  and  C_2
REMARK    2  A    between atoms: C_2  and  C_3
REMARK    3  A    between atoms: C_2  and  C_4
REMARK    4  A    between atoms: N_6  and  C_7
REMARK    5  A    between atoms: C_7  and  C_8
REMARK    6  A    between atoms: C_13  and  C_14
REMARK    7  A    between atoms: C_20  and  N_21
REMARK                            x       y       z     vdW  Elec       q    Type
REMARK                         _______ _______ _______ _____ _____    ______ ____
ROOT
ATOM      1  C   UNL     1       2.179   7.770  18.926  0.00  0.00    +0.000 A 
ATOM      2  N   UNL     1       1.934   8.037  20.168  0.00  0.00    +0.000 NA
ATOM      3  C   UNL     1       1.216   9.203  20.463  0.00  0.00    +0.000 A 
ATOM      4  C   UNL     1       0.533   9.317  21.658  0.00  0.00    +0.000 A 
ATOM      5  C   UNL     1      -0.211  10.473  21.936  0.00  0.00    +0.000 A 
ATOM      6 CL   UNL     1      -1.338  10.293  23.252  0.00  0.00    +0.000 Cl
ATOM      7  C   UNL     1      -0.166  11.632  21.107  0.00  0.00    +0.000 A 
ATOM      8  C   UNL     1       0.514  11.463  19.881  0.00  0.00    +0.000 A 
ATOM      9  C   UNL     1       1.127  10.247  19.555  0.00  0.00    +0.000 A 
ATOM     10  C   UNL     1       1.650   9.941  18.217  0.00  0.00    +0.000 A 
ATOM     11  O   UNL     1       1.994  10.814  17.436  0.00  0.00    +0.000 OA
ATOM     12  N   UNL     1       1.697   8.587  17.923  0.00  0.00    +0.000 N 
ATOM     13  H   UNL     1       0.721   8.311  17.839  0.00  0.00    +0.000 HD
ENDROOT
BRANCH   7  14
ATOM     14  N   UNL     1      -0.718  12.861  21.436  0.00  0.00    +0.000 N 
ATOM     15  C   UNL     1      -2.054  13.265  20.971  0.00  0.00    +0.000 C 
ATOM     16  C   UNL     1      -2.934  13.598  22.177  0.00  0.00    +0.000 C 
ATOM     17  N   UNL     1      -2.321  14.553  23.071  0.00  0.00    +0.000 N 
ATOM     18  C   UNL     1      -0.969  14.556  23.310  0.00  0.00    +0.000 C 
ATOM     19  O   UNL     1      -0.532  15.174  24.281  0.00  0.00    +0.000 OA
ATOM     20  C   UNL     1      -0.040  13.872  22.285  0.00  0.00    +0.000 C 
ATOM     21  H   UNL     1      -2.872  14.955  23.819  0.00  0.00    +0.000 HD
ENDBRANCH   7  14
BRANCH   1  27
ATOM     22  C   UNL     1       4.749   5.609  17.117  0.00  0.00    +0.000 A 
ATOM     23  C   UNL     1       4.450   4.343  17.624  0.00  0.00    +0.000 A 
ATOM     24  C   UNL     1       3.419   4.177  18.549  0.00  0.00    +0.000 A 
ATOM     25  C   UNL     1       2.657   5.271  18.981  0.00  0.00    +0.000 A 
ATOM     26 CL   UNL     1       1.374   4.894  20.079  0.00  0.00    +0.000 Cl
ATOM     27  C   UNL     1       2.928   6.555  18.483  0.00  0.00    +0.000 A 
ATOM     28  C   UNL     1       3.978   6.707  17.547  0.00  0.00    +0.000 A 
BRANCH  22  29
ATOM     29  C   UNL     1       5.873   5.781  16.128  0.00  0.00    +0.000 C 
BRANCH  29  32
ATOM     30  C   UNL     1       6.797   4.712  14.130  0.00  0.00    +0.000 C 
ATOM     31  O   UNL     1       7.870   5.291  14.272  0.00  0.00    +0.000 OA
ATOM     32  N   UNL     1       5.750   4.869  15.014  0.00  0.00    +0.000 N 
ATOM     33  H   UNL     1       4.831   4.535  14.756  0.00  0.00    +0.000 HD
BRANCH  30  35
ATOM     34  C   UNL     1       5.000   3.635  12.728  0.00  0.00    +0.000 C 
ATOM     35  C   UNL     1       6.504   3.757  12.972  0.00  0.00    +0.000 C 
ATOM     36  C   UNL     1       7.202   4.228  11.698  0.00  0.00    +0.000 C 
ENDBRANCH  30  35
ENDBRANCH  29  32
ENDBRANCH  22  29
ENDBRANCH   1  27
TORSDOF 5
ENDMDL
MODEL 7
REMARK VINA RESULT:      -8.9      1.050      1.132
REMARK  Name = 
REMARK  7 active torsions:
REMARK  status: ('A' for Active; 'I' for Inactive)
REMARK    1  A    between atoms: C_1  and  C_2
REMARK    2  A    between atoms: C_2  and  C_3
REMARK    3  A    between atoms: C_2  and  C_4
REMARK    4  A    between atoms: N_6  and  C_7
REMARK    5  A    between atoms: C_7  and  C_8
REMARK    6  A    between atoms: C_13  and  C_14
REMARK    7  A    between atoms: C_20  and  N_21
REMARK                            x       y       z     vdW  Elec       q    Type
REMARK                         _______ _______ _______ _____ _____    ______ ____
ROOT
ATOM      1  C   UNL     1       2.331   6.734  18.880  0.00  0.00    +0.000 A 
ATOM      2  N   UNL     1       2.181   7.084  20.116  0.00  0.00    +0.000 NA
ATOM      3  C   UNL     1       1.542   8.302  20.383  0.00  0.00    +0.000 A 
ATOM      4  C   UNL     1       0.945   8.521  21.609  0.00  0.00    +0.000 A 
ATOM      5  C   UNL     1       0.278   9.729  21.862  0.00  0.00    +0.000 A 
ATOM      6 CL   UNL     1      -0.768   9.686  23.252  0.00  0.00    +0.000 Cl
ATOM      7  C   UNL     1       0.328  10.835  20.962  0.00  0.00    +0.000 A 
ATOM      8  C   UNL     1       0.919  10.559  19.709  0.00  0.00    +0.000 A 
ATOM      9  C   UNL     1       1.448   9.296  19.421  0.00  0.00    +0.000 A 
ATOM     10  C   UNL     1       1.868   8.885  18.074  0.00  0.00    +0.000 A 
ATOM     11  O   UNL     1       2.204   9.693  17.223  0.00  0.00    +0.000 OA
ATOM     12  N   UNL     1       1.827   7.516  17.860  0.00  0.00    +0.000 N 
ATOM     13  H   UNL     1       0.836   7.289  17.854  0.00  0.00    +0.000 HD
ENDROOT
BRANCH   7  14
ATOM     14  N   UNL     1      -0.140  12.108  21.249  0.00  0.00    +0.000 N 
ATOM     15  C   UNL     1      -0.085  13.200  20.265  0.00  0.00    +0.000 C 
ATOM     16  C   UNL     1      -1.492  13.749  20.033  0.00  0.00    +0.000 C 
ATOM     17  N   UNL     1      -2.161  14.113  21.260  0.00  0.00    +0.000 N 
ATOM     18  C   UNL     1      -1.994  13.392  22.417  0.00  0.00    +0.000 C 
ATOM     19  O   UNL     1      -2.790  13.549  23.342  0.00  0.00    +0.000 OA
ATOM     20  C   UNL     1      -0.746  12.494  22.549  0.00  0.00    +0.000 C 
ATOM     21  H   UNL     1      -3.036  14.622  21.216  0.00  0.00    +0.000 HD
ENDBRANCH   7  14
BRANCH   1  27
ATOM     22  C   UNL     1       4.896   4.354  17.361  0.00  0.00    +0.000 A 
ATOM     23  C   UNL     1       4.349   3.112  17.689  0.00  0.00    +0.000 A 
ATOM     24  C   UNL     1       3.151   3.033  18.400  0.00  0.00    +0.000 A 
ATOM     25  C   UNL     1       2.468   4.193  18.789  0.00  0.00    +0.000 A 
ATOM     26 CL   UNL     1       0.966   3.930  19.606  0.00  0.00    +0.000 Cl
ATOM     27  C   UNL     1       2.989   5.456  18.466  0.00  0.00    +0.000 A 
ATOM     28  C   UNL     1       4.205   5.519  17.747  0.00  0.00    +0.000 A 
BRANCH  22  29
ATOM     29  C   UNL     1       6.197   4.430  16.603  0.00  0.00    +0.000 C 
BRANCH  29  32
ATOM     30  C   UNL     1       6.788   4.377  14.229  0.00  0.00    +0.000 C 
ATOM     31  O   UNL     1       7.553   5.329  14.361  0.00  0.00    +0.000 OA
ATOM     32  N   UNL     1       6.087   3.840  15.289  0.00  0.00    +0.000 N 
ATOM     33  H   UNL     1       5.330   3.196  15.105  0.00  0.00    +0.000 HD
BRANCH  30  35
ATOM     34  C   UNL     1       5.035   3.592  12.598  0.00  0.00    +0.000 C 
ATOM     35  C   UNL     1       6.533   3.684  12.891  0.00  0.00    +0.000 C 
ATOM     36  C   UNL     1       7.241   4.424  11.759  0.00  0.00    +0.000 C 
ENDBRANCH  30  35
ENDBRANCH  29  32
ENDBRANCH  22  29
ENDBRANCH   1  27
TORSDOF 5
ENDMDL
MODEL 8
REMARK VINA RESULT:      -8.9      2.013      2.480
REMARK  Name = 
REMARK  7 active torsions:
REMARK  status: ('A' for Active; 'I' for Inactive)
REMARK    1  A    between atoms: C_1  and  C_2
REMARK    2  A    between atoms: C_2  and  C_3
REMARK    3  A    between atoms: C_2  and  C_4
REMARK    4  A    between atoms: N_6  and  C_7
REMARK    5  A    between atoms: C_7  and  C_8
REMARK    6  A    between atoms: C_13  and  C_14
REMARK    7  A    between atoms: C_20  and  N_21
REMARK                            x       y       z     vdW  Elec       q    Type
REMARK                         _______ _______ _______ _____ _____    ______ ____
ROOT
ATOM      1  C   UNL     1       2.504   7.029  19.039  0.00  0.00    +0.000 A 
ATOM      2  N   UNL     1       2.293   8.022  18.237  0.00  0.00    +0.000 NA
ATOM      3  C   UNL     1       1.779   9.208  18.778  0.00  0.00    +0.000 A 
ATOM      4  C   UNL     1       1.960  10.408  18.120  0.00  0.00    +0.000 A 
ATOM      5  C   UNL     1       1.472  11.599  18.680  0.00  0.00    +0.000 A 
ATOM      6 CL   UNL     1       2.139  13.043  17.971  0.00  0.00    +0.000 Cl
ATOM      7  C   UNL     1       0.636  11.616  19.835  0.00  0.00    +0.000 A 
ATOM      8  C   UNL     1       0.504  10.374  20.495  0.00  0.00    +0.000 A 
ATOM      9  C   UNL     1       1.124   9.222  20.000  0.00  0.00    +0.000 A 
ATOM     10  C   UNL     1       1.209   7.964  20.754  0.00  0.00    +0.000 A 
ATOM     11  O   UNL     1       0.410   7.675  21.630  0.00  0.00    +0.000 OA
ATOM     12  N   UNL     1       2.278   7.159  20.394  0.00  0.00    +0.000 N 
ATOM     13  H   UNL     1       3.099   7.662  20.725  0.00  0.00    +0.000 HD
ENDROOT
BRANCH   7  14
ATOM     14  N   UNL     1      -0.032  12.735  20.310  0.00  0.00    +0.000 N 
ATOM     15  C   UNL     1      -0.070  13.071  21.741  0.00  0.00    +0.000 C 
ATOM     16  C   UNL     1       0.497  14.476  21.951  0.00  0.00    +0.000 C 
ATOM     17  N   UNL     1      -0.133  15.466  21.109  0.00  0.00    +0.000 N 
ATOM     18  C   UNL     1      -0.533  15.177  19.827  0.00  0.00    +0.000 C 
ATOM     19  O   UNL     1      -0.788  16.101  19.055  0.00  0.00    +0.000 OA
ATOM     20  C   UNL     1      -0.752  13.699  19.441  0.00  0.00    +0.000 C 
ATOM     21  H   UNL     1       0.060  16.447  21.268  0.00  0.00    +0.000 HD
ENDBRANCH   7  14
BRANCH   1  27
ATOM     22  C   UNL     1       4.856   4.496  17.426  0.00  0.00    +0.000 A 
ATOM     23  C   UNL     1       4.219   3.292  17.735  0.00  0.00    +0.000 A 
ATOM     24  C   UNL     1       3.028   3.289  18.462  0.00  0.00    +0.000 A 
ATOM     25  C   UNL     1       2.442   4.488  18.888  0.00  0.00    +0.000 A 
ATOM     26 CL   UNL     1       0.936   4.323  19.722  0.00  0.00    +0.000 Cl
ATOM     27  C   UNL     1       3.055   5.715  18.586  0.00  0.00    +0.000 A 
ATOM     28  C   UNL     1       4.263   5.701  17.849  0.00  0.00    +0.000 A 
BRANCH  22  29
ATOM     29  C   UNL     1       6.148   4.489  16.650  0.00  0.00    +0.000 C 
BRANCH  29  32
ATOM     30  C   UNL     1       6.674   4.335  14.265  0.00  0.00    +0.000 C 
ATOM     31  O   UNL     1       7.448   5.285  14.337  0.00  0.00    +0.000 OA
ATOM     32  N   UNL     1       5.998   3.847  15.365  0.00  0.00    +0.000 N 
ATOM     33  H   UNL     1       5.232   3.203  15.228  0.00  0.00    +0.000 HD
BRANCH  30  35
ATOM     34  C   UNL     1       4.891   3.675  12.609  0.00  0.00    +0.000 C 
ATOM     35  C   UNL     1       6.376   3.590  12.964  0.00  0.00    +0.000 C 
ATOM     36  C   UNL     1       7.218   4.151  11.820  0.00  0.00    +0.000 C 
ENDBRANCH  30  35
ENDBRANCH  29  32
ENDBRANCH  22  29
ENDBRANCH   1  27
TORSDOF 5
ENDMDL
MODEL 9
REMARK VINA RESULT:      -8.9      1.649      2.027
REMARK  Name = 
REMARK  7 active torsions:
REMARK  status: ('A' for Active; 'I' for Inactive)
REMARK    1  A    between atoms: C_1  and  C_2
REMARK    2  A    between atoms: C_2  and  C_3
REMARK    3  A    between atoms: C_2  and  C_4
REMARK    4  A    between atoms: N_6  and  C_7
REMARK    5  A    between atoms: C_7  and  C_8
REMARK    6  A    between atoms: C_13  and  C_14
REMARK    7  A    between atoms: C_20  and  N_21
REMARK                            x       y       z     vdW  Elec       q    Type
REMARK                         _______ _______ _______ _____ _____    ______ ____
ROOT
ATOM      1  C   UNL     1       2.306   7.117  19.739  0.00  0.00    +0.000 A 
ATOM      2  N   UNL     1       2.183   8.022  18.823  0.00  0.00    +0.000 NA
ATOM      3  C   UNL     1       1.515   9.208  19.153  0.00  0.00    +0.000 A 
ATOM      4  C   UNL     1       1.739  10.359  18.424  0.00  0.00    +0.000 A 
ATOM      5  C   UNL     1       1.092  11.553  18.777  0.00  0.00    +0.000 A 
ATOM      6 CL   UNL     1       1.789  12.978  18.057  0.00  0.00    +0.000 Cl
ATOM      7  C   UNL     1       0.066  11.606  19.766  0.00  0.00    +0.000 A 
ATOM      8  C   UNL     1      -0.108  10.418  20.509  0.00  0.00    +0.000 A 
ATOM      9  C   UNL     1       0.655   9.276  20.238  0.00  0.00    +0.000 A 
ATOM     10  C   UNL     1       0.678   8.095  21.112  0.00  0.00    +0.000 A 
ATOM     11  O   UNL     1      -0.246   7.823  21.863  0.00  0.00    +0.000 OA
ATOM     12  N   UNL     1       1.838   7.343  21.018  0.00  0.00    +0.000 N 
ATOM     13  H   UNL     1       2.557   7.931  21.434  0.00  0.00    +0.000 HD
ENDROOT
BRANCH   7  14
ATOM     14  N   UNL     1      -0.738  12.709  20.011  0.00  0.00    +0.000 N 
ATOM     15  C   UNL     1      -2.119  12.794  19.512  0.00  0.00    +0.000 C 
ATOM     16  C   UNL     1      -3.074  13.007  20.687  0.00  0.00    +0.000 C 
ATOM     17  N   UNL     1      -2.694  14.121  21.524  0.00  0.00    +0.000 N 
ATOM     18  C   UNL     1      -1.377  14.423  21.773  0.00  0.00    +0.000 C 
ATOM     19  O   UNL     1      -1.100  15.177  22.705  0.00  0.00    +0.000 OA
ATOM     20  C   UNL     1      -0.304  13.890  20.800  0.00  0.00    +0.000 C 
ATOM     21  H   UNL     1      -3.332  14.443  22.241  0.00  0.00    +0.000 HD
ENDBRANCH   7  14
BRANCH   1  27
ATOM     22  C   UNL     1       5.039   4.636  18.778  0.00  0.00    +0.000 A 
ATOM     23  C   UNL     1       4.435   3.420  19.106  0.00  0.00    +0.000 A 
ATOM     24  C   UNL     1       3.146   3.392  19.637  0.00  0.00    +0.000 A 
ATOM     25  C   UNL     1       2.426   4.576  19.842  0.00  0.00    +0.000 A 
ATOM     26 CL   UNL     1       0.818   4.372  20.446  0.00  0.00    +0.000 Cl
ATOM     27  C   UNL     1       3.003   5.814  19.514  0.00  0.00    +0.000 A 
ATOM     28  C   UNL     1       4.312   5.826  18.978  0.00  0.00    +0.000 A 
BRANCH  22  29
ATOM     29  C   UNL     1       6.438   4.659  18.216  0.00  0.00    +0.000 C 
BRANCH  29  32
ATOM     30  C   UNL     1       6.982   4.958  15.849  0.00  0.00    +0.000 C 
ATOM     31  O   UNL     1       7.448   6.074  16.060  0.00  0.00    +0.000 OA
ATOM     32  N   UNL     1       6.478   4.165  16.859  0.00  0.00    +0.000 N 
ATOM     33  H   UNL     1       5.931   3.349  16.621  0.00  0.00    +0.000 HD
BRANCH  30  35
ATOM     34  C   UNL     1       5.460   4.093  14.035  0.00  0.00    +0.000 C 
ATOM     35  C   UNL     1       6.911   4.326  14.459  0.00  0.00    +0.000 C 
ATOM     36  C   UNL     1       7.619   5.206  13.432  0.00  0.00    +0.000 C 
ENDBRANCH  30  35
ENDBRANCH  29  32
ENDBRANCH  22  29
ENDBRANCH   1  27
TORSDOF 5
ENDMDL
