MODEL 1
REMARK VINA RESULT:      -6.8      0.000      0.000
REMARK  Name = 
REMARK  10 active torsions:
REMARK  status: ('A' for Active; 'I' for Inactive)
REMARK    1  A    between atoms: C_1  and  O_2
REMARK    2  A    between atoms: O_2  and  C_3
REMARK    3  A    between atoms: C_7  and  C_8
REMARK    4  A    between atoms: C_13  and  C_15
REMARK    5  A    between atoms: C_15  and  C_16
REMARK    6  A    between atoms: C_16  and  C_17
REMARK    7  A    between atoms: C_17  and  C_18
REMARK    8  A    between atoms: C_18  and  C_19
REMARK    9  A    between atoms: C_19  and  C_20
REMARK   10  A    between atoms: C_20  and  S_21
REMARK                            x       y       z     vdW  Elec       q    Type
REMARK                         _______ _______ _______ _____ _____    ______ ____
ROOT
ATOM      1  C   UNL     1       6.561   4.827  16.135  0.00  0.00    +0.000 A 
ATOM      2  C   UNL     1       7.592   4.651  17.039  0.00  0.00    +0.000 A 
ATOM      3  S   UNL     1       7.063   5.084  18.617  0.00  0.00    +0.000 S 
ATOM      4  C   UNL     1       5.507   5.364  17.986  0.00  0.00    +0.000 A 
ATOM      5  N   UNL     1       4.570   5.742  18.904  0.00  0.00    +0.000 N 
ATOM      6  C   UNL     1       3.237   5.821  18.572  0.00  0.00    +0.000 C 
ATOM      7  O   UNL     1       2.719   5.465  17.520  0.00  0.00    +0.000 OA
ATOM      8  N   UNL     1       5.360   5.206  16.700  0.00  0.00    +0.000 NA
ATOM      9  H   UNL     1       4.888   5.910  19.847  0.00  0.00    +0.000 HD
ENDROOT
BRANCH   1  14
ATOM     10  C   UNL     1       6.038   3.514  12.646  0.00  0.00    +0.000 A 
ATOM     11  C   UNL     1       6.986   4.255  11.943  0.00  0.00    +0.000 A 
ATOM     12  C   UNL     1       7.779   5.192  12.603  0.00  0.00    +0.000 A 
ATOM     13  C   UNL     1       7.626   5.388  13.976  0.00  0.00    +0.000 A 
ATOM     14  C   UNL     1       6.669   4.655  14.693  0.00  0.00    +0.000 A 
ATOM     15  C   UNL     1       5.878   3.717  14.018  0.00  0.00    +0.000 A 
BRANCH  10  17
ATOM     16  C   UNL     1       4.184   3.096  11.217  0.00  0.00    +0.000 C 
ATOM     17  O   UNL     1       5.335   2.604  11.895  0.00  0.00    +0.000 OA
ENDBRANCH  10  17
ENDBRANCH   1  14
BRANCH   6  18
ATOM     18  C   UNL     1       2.378   6.387  19.679  0.00  0.00    +0.000 C 
BRANCH  18  19
ATOM     19  C   UNL     1       2.073   5.374  20.779  0.00  0.00    +0.000 C 
BRANCH  19  20
ATOM     20  C   UNL     1       0.906   4.447  20.427  0.00  0.00    +0.000 C 
BRANCH  20  21
ATOM     21  C   UNL     1       1.227   3.001  20.807  0.00  0.00    +0.000 C 
BRANCH  21  22
ATOM     22  C   UNL     1       1.639   2.176  19.586  0.00  0.00    +0.000 C 
BRANCH  22  23
ATOM     23  C   UNL     1       3.159   2.114  19.469  0.00  0.00    +0.000 C 
BRANCH  23  24
ATOM     24  S   UNL     1       3.671   2.037  17.730  0.00  0.00    +0.000 S 
ATOM     25  H   UNL     1       2.512   1.567  17.248  0.00  0.00    +0.000 HD
ENDBRANCH  23  24
ENDBRANCH  22  23
ENDBRANCH  21  22
ENDBRANCH  20  21
ENDBRANCH  19  20
ENDBRANCH  18  19
ENDBRANCH   6  18
TORSDOF 9
ENDMDL
MODEL 2
REMARK VINA RESULT:      -6.7      1.515      2.376
REMARK  Name = 
REMARK  10 active torsions:
REMARK  status: ('A' for Active; 'I' for Inactive)
REMARK    1  A    between atoms: C_1  and  O_2
REMARK    2  A    between atoms: O_2  and  C_3
REMARK    3  A    between atoms: C_7  and  C_8
REMARK    4  A    between atoms: C_13  and  C_15
REMARK    5  A    between atoms: C_15  and  C_16
REMARK    6  A    between atoms: C_16  and  C_17
REMARK    7  A    between atoms: C_17  and  C_18
REMARK    8  A    between atoms: C_18  and  C_19
REMARK    9  A    between atoms: C_19  and  C_20
REMARK   10  A    between atoms: C_20  and  S_21
REMARK                            x       y       z     vdW  Elec       q    Type
REMARK                         _______ _______ _______ _____ _____    ______ ____
ROOT
ATOM      1  C   UNL     1       6.457   4.695  16.103  0.00  0.00    +0.000 A 
ATOM      2  C   UNL     1       7.181   5.543  16.921  0.00  0.00    +0.000 A 
ATOM      3  S   UNL     1       6.569   5.465  18.526  0.00  0.00    +0.000 S 
ATOM      4  C   UNL     1       5.482   4.256  18.023  0.00  0.00    +0.000 A 
ATOM      5  N   UNL     1       4.683   3.750  19.007  0.00  0.00    +0.000 N 
ATOM      6  C   UNL     1       3.893   2.645  18.786  0.00  0.00    +0.000 C 
ATOM      7  O   UNL     1       3.890   1.930  17.791  0.00  0.00    +0.000 OA
ATOM      8  N   UNL     1       5.506   3.938  16.757  0.00  0.00    +0.000 NA
ATOM      9  H   UNL     1       4.735   4.188  19.914  0.00  0.00    +0.000 HD
ENDROOT
BRANCH   1  14
ATOM     10  C   UNL     1       6.054   3.522  12.548  0.00  0.00    +0.000 A 
ATOM     11  C   UNL     1       7.055   4.259  11.916  0.00  0.00    +0.000 A 
ATOM     12  C   UNL     1       7.844   5.147  12.644  0.00  0.00    +0.000 A 
ATOM     13  C   UNL     1       7.634   5.299  14.015  0.00  0.00    +0.000 A 
ATOM     14  C   UNL     1       6.626   4.571  14.661  0.00  0.00    +0.000 A 
ATOM     15  C   UNL     1       5.839   3.682  13.918  0.00  0.00    +0.000 A 
BRANCH  10  17
ATOM     16  C   UNL     1       4.097   3.115  11.263  0.00  0.00    +0.000 C 
ATOM     17  O   UNL     1       5.361   2.661  11.735  0.00  0.00    +0.000 OA
ENDBRANCH  10  17
ENDBRANCH   1  14
BRANCH   6  18
ATOM     18  C   UNL     1       2.981   2.322  19.947  0.00  0.00    +0.000 C 
BRANCH  18  19
ATOM     19  C   UNL     1       1.500   2.403  19.585  0.00  0.00    +0.000 C 
BRANCH  19  20
ATOM     20  C   UNL     1       0.965   3.838  19.580  0.00  0.00    +0.000 C 
BRANCH  20  21
ATOM     21  C   UNL     1       1.505   4.622  20.775  0.00  0.00    +0.000 C 
BRANCH  21  22
ATOM     22  C   UNL     1       1.561   6.123  20.486  0.00  0.00    +0.000 C 
BRANCH  22  23
ATOM     23  C   UNL     1       2.858   6.483  19.765  0.00  0.00    +0.000 C 
BRANCH  23  24
ATOM     24  S   UNL     1       2.515   7.371  18.221  0.00  0.00    +0.000 S 
ATOM     25  H   UNL     1       1.374   6.732  17.924  0.00  0.00    +0.000 HD
ENDBRANCH  23  24
ENDBRANCH  22  23
ENDBRANCH  21  22
ENDBRANCH  20  21
ENDBRANCH  19  20
ENDBRANCH  18  19
ENDBRANCH   6  18
TORSDOF 9
ENDMDL
MODEL 3
REMARK VINA RESULT:      -6.6      2.999      8.070
REMARK  Name = 
REMARK  10 active torsions:
REMARK  status: ('A' for Active; 'I' for Inactive)
REMARK    1  A    between atoms: C_1  and  O_2
REMARK    2  A    between atoms: O_2  and  C_3
REMARK    3  A    between atoms: C_7  and  C_8
REMARK    4  A    between atoms: C_13  and  C_15
REMARK    5  A    between atoms: C_15  and  C_16
REMARK    6  A    between atoms: C_16  and  C_17
REMARK    7  A    between atoms: C_17  and  C_18
REMARK    8  A    between atoms: C_18  and  C_19
REMARK    9  A    between atoms: C_19  and  C_20
REMARK   10  A    between atoms: C_20  and  S_21
REMARK                            x       y       z     vdW  Elec       q    Type
REMARK                         _______ _______ _______ _____ _____    ______ ____
ROOT
ATOM      1  C   UNL     1       3.226   5.756  18.683  0.00  0.00    +0.000 A 
ATOM      2  C   UNL     1       3.180   4.599  19.438  0.00  0.00    +0.000 A 
ATOM      3  S   UNL     1       4.005   3.334  18.616  0.00  0.00    +0.000 S 
ATOM      4  C   UNL     1       4.431   4.444  17.397  0.00  0.00    +0.000 A 
ATOM      5  N   UNL     1       5.202   3.934  16.393  0.00  0.00    +0.000 N 
ATOM      6  C   UNL     1       5.773   4.752  15.446  0.00  0.00    +0.000 C 
ATOM      7  O   UNL     1       5.780   5.977  15.439  0.00  0.00    +0.000 OA
ATOM      8  N   UNL     1       3.976   5.660  17.528  0.00  0.00    +0.000 NA
ATOM      9  H   UNL     1       5.378   2.940  16.405  0.00  0.00    +0.000 HD
ENDROOT
BRANCH   1  14
ATOM     10  C   UNL     1       1.344   8.401  20.590  0.00  0.00    +0.000 A 
ATOM     11  C   UNL     1       1.148   9.353  19.591  0.00  0.00    +0.000 A 
ATOM     12  C   UNL     1       1.645   9.140  18.307  0.00  0.00    +0.000 A 
ATOM     13  C   UNL     1       2.340   7.966  18.017  0.00  0.00    +0.000 A 
ATOM     14  C   UNL     1       2.551   7.004  19.014  0.00  0.00    +0.000 A 
ATOM     15  C   UNL     1       2.047   7.230  20.301  0.00  0.00    +0.000 A 
BRANCH  10  17
ATOM     16  C   UNL     1       0.417  10.068  22.009  0.00  0.00    +0.000 C 
ATOM     17  O   UNL     1       0.788   8.709  21.807  0.00  0.00    +0.000 OA
ENDBRANCH  10  17
ENDBRANCH   1  14
BRANCH   6  18
ATOM     18  C   UNL     1       6.473   3.991  14.343  0.00  0.00    +0.000 C 
BRANCH  18  19
ATOM     19  C   UNL     1       5.779   4.125  12.989  0.00  0.00    +0.000 C 
BRANCH  19  20
ATOM     20  C   UNL     1       6.056   2.941  12.058  0.00  0.00    +0.000 C 
BRANCH  20  21
ATOM     21  C   UNL     1       4.784   2.522  11.321  0.00  0.00    +0.000 C 
BRANCH  21  22
ATOM     22  C   UNL     1       3.875   3.720  11.040  0.00  0.00    +0.000 C 
BRANCH  22  23
ATOM     23  C   UNL     1       2.928   3.415   9.882  0.00  0.00    +0.000 C 
BRANCH  23  24
ATOM     24  S   UNL     1       2.392   4.943   9.064  0.00  0.00    +0.000 S 
ATOM     25  H   UNL     1       3.587   5.271   8.550  0.00  0.00    +0.000 HD
ENDBRANCH  23  24
ENDBRANCH  22  23
ENDBRANCH  21  22
ENDBRANCH  20  21
ENDBRANCH  19  20
ENDBRANCH  18  19
ENDBRANCH   6  18
TORSDOF 9
ENDMDL
MODEL 4
REMARK VINA RESULT:      -6.4      4.035      5.854
REMARK  Name = 
REMARK  10 active torsions:
REMARK  status: ('A' for Active; 'I' for Inactive)
REMARK    1  A    between atoms: C_1  and  O_2
REMARK    2  A    between atoms: O_2  and  C_3
REMARK    3  A    between atoms: C_7  and  C_8
REMARK    4  A    between atoms: C_13  and  C_15
REMARK    5  A    between atoms: C_15  and  C_16
REMARK    6  A    between atoms: C_16  and  C_17
REMARK    7  A    between atoms: C_17  and  C_18
REMARK    8  A    between atoms: C_18  and  C_19
REMARK    9  A    between atoms: C_19  and  C_20
REMARK   10  A    between atoms: C_20  and  S_21
REMARK                            x       y       z     vdW  Elec       q    Type
REMARK                         _______ _______ _______ _____ _____    ______ ____
ROOT
ATOM      1  C   UNL     1       3.816   4.729  18.664  0.00  0.00    +0.000 A 
ATOM      2  C   UNL     1       3.300   3.577  19.228  0.00  0.00    +0.000 A 
ATOM      3  S   UNL     1       2.199   3.987  20.483  0.00  0.00    +0.000 S 
ATOM      4  C   UNL     1       2.423   5.631  20.104  0.00  0.00    +0.000 A 
ATOM      5  N   UNL     1       1.685   6.503  20.851  0.00  0.00    +0.000 N 
ATOM      6  C   UNL     1       1.624   7.840  20.532  0.00  0.00    +0.000 C 
ATOM      7  O   UNL     1       2.083   8.380  19.532  0.00  0.00    +0.000 OA
ATOM      8  N   UNL     1       3.278   5.901  19.156  0.00  0.00    +0.000 NA
ATOM      9  H   UNL     1       1.147   6.118  21.612  0.00  0.00    +0.000 HD
ENDROOT
BRANCH   1  14
ATOM     10  C   UNL     1       6.762   5.861  16.610  0.00  0.00    +0.000 A 
ATOM     11  C   UNL     1       6.751   4.908  15.592  0.00  0.00    +0.000 A 
ATOM     12  C   UNL     1       5.798   3.892  15.587  0.00  0.00    +0.000 A 
ATOM     13  C   UNL     1       4.846   3.827  16.606  0.00  0.00    +0.000 A 
ATOM     14  C   UNL     1       4.852   4.773  17.640  0.00  0.00    +0.000 A 
ATOM     15  C   UNL     1       5.815   5.790  17.633  0.00  0.00    +0.000 A 
BRANCH  10  17
ATOM     16  C   UNL     1       7.693   7.879  17.452  0.00  0.00    +0.000 C 
ATOM     17  O   UNL     1       7.730   6.827  16.494  0.00  0.00    +0.000 OA
ENDBRANCH  10  17
ENDBRANCH   1  14
BRANCH   6  18
ATOM     18  C   UNL     1       0.872   8.664  21.553  0.00  0.00    +0.000 C 
BRANCH  18  19
ATOM     19  C   UNL     1      -0.472   9.173  21.038  0.00  0.00    +0.000 C 
BRANCH  19  20
ATOM     20  C   UNL     1      -0.492  10.690  20.828  0.00  0.00    +0.000 C 
BRANCH  20  21
ATOM     21  C   UNL     1      -0.159  11.043  19.378  0.00  0.00    +0.000 C 
BRANCH  21  22
ATOM     22  C   UNL     1      -1.423  11.287  18.553  0.00  0.00    +0.000 C 
BRANCH  22  23
ATOM     23  C   UNL     1      -1.612  10.178  17.521  0.00  0.00    +0.000 C 
BRANCH  23  24
ATOM     24  S   UNL     1      -2.737  10.708  16.200  0.00  0.00    +0.000 S 
ATOM     25  H   UNL     1      -3.680   9.781  16.418  0.00  0.00    +0.000 HD
ENDBRANCH  23  24
ENDBRANCH  22  23
ENDBRANCH  21  22
ENDBRANCH  20  21
ENDBRANCH  19  20
ENDBRANCH  18  19
ENDBRANCH   6  18
TORSDOF 9
ENDMDL
MODEL 5
REMARK VINA RESULT:      -6.3      1.889      2.908
REMARK  Name = 
REMARK  10 active torsions:
REMARK  status: ('A' for Active; 'I' for Inactive)
REMARK    1  A    between atoms: C_1  and  O_2
REMARK    2  A    between atoms: O_2  and  C_3
REMARK    3  A    between atoms: C_7  and  C_8
REMARK    4  A    between atoms: C_13  and  C_15
REMARK    5  A    between atoms: C_15  and  C_16
REMARK    6  A    between atoms: C_16  and  C_17
REMARK    7  A    between atoms: C_17  and  C_18
REMARK    8  A    between atoms: C_18  and  C_19
REMARK    9  A    between atoms: C_19  and  C_20
REMARK   10  A    between atoms: C_20  and  S_21
REMARK                            x       y       z     vdW  Elec       q    Type
REMARK                         _______ _______ _______ _____ _____    ______ ____
ROOT
ATOM      1  C   UNL     1       6.202   4.603  16.055  0.00  0.00    +0.000 A 
ATOM      2  C   UNL     1       7.125   5.036  16.988  0.00  0.00    +0.000 A 
ATOM      3  S   UNL     1       6.378   5.157  18.533  0.00  0.00    +0.000 S 
ATOM      4  C   UNL     1       4.945   4.536  17.856  0.00  0.00    +0.000 A 
ATOM      5  N   UNL     1       3.913   4.373  18.734  0.00  0.00    +0.000 N 
ATOM      6  C   UNL     1       2.764   3.711  18.369  0.00  0.00    +0.000 C 
ATOM      7  O   UNL     1       2.565   3.104  17.324  0.00  0.00    +0.000 OA
ATOM      8  N   UNL     1       4.963   4.289  16.575  0.00  0.00    +0.000 NA
ATOM      9  H   UNL     1       4.050   4.712  19.675  0.00  0.00    +0.000 HD
ENDROOT
BRANCH   1  14
ATOM     10  C   UNL     1       5.984   3.436  12.482  0.00  0.00    +0.000 A 
ATOM     11  C   UNL     1       7.024   4.163  11.906  0.00  0.00    +0.000 A 
ATOM     12  C   UNL     1       7.780   5.044  12.677  0.00  0.00    +0.000 A 
ATOM     13  C   UNL     1       7.497   5.197  14.035  0.00  0.00    +0.000 A 
ATOM     14  C   UNL     1       6.448   4.478  14.624  0.00  0.00    +0.000 A 
ATOM     15  C   UNL     1       5.696   3.597  13.838  0.00  0.00    +0.000 A 
BRANCH  10  17
ATOM     16  C   UNL     1       6.016   1.387  11.276  0.00  0.00    +0.000 C 
ATOM     17  O   UNL     1       5.328   2.582  11.631  0.00  0.00    +0.000 OA
ENDBRANCH  10  17
ENDBRANCH   1  14
BRANCH   6  18
ATOM     18  C   UNL     1       1.688   3.754  19.430  0.00  0.00    +0.000 C 
BRANCH  18  19
ATOM     19  C   UNL     1       2.048   4.649  20.613  0.00  0.00    +0.000 C 
BRANCH  19  20
ATOM     20  C   UNL     1       1.220   5.936  20.660  0.00  0.00    +0.000 C 
BRANCH  20  21
ATOM     21  C   UNL     1       2.062   7.140  20.236  0.00  0.00    +0.000 C 
BRANCH  21  22
ATOM     22  C   UNL     1       1.408   8.459  20.652  0.00  0.00    +0.000 C 
BRANCH  22  23
ATOM     23  C   UNL     1       1.164   9.344  19.432  0.00  0.00    +0.000 C 
BRANCH  23  24
ATOM     24  S   UNL     1       1.938   8.634  17.953  0.00  0.00    +0.000 S 
ATOM     25  H   UNL     1       3.078   9.337  18.021  0.00  0.00    +0.000 HD
ENDBRANCH  23  24
ENDBRANCH  22  23
ENDBRANCH  21  22
ENDBRANCH  20  21
ENDBRANCH  19  20
ENDBRANCH  18  19
ENDBRANCH   6  18
TORSDOF 9
ENDMDL
MODEL 6
REMARK VINA RESULT:      -6.2      4.176      5.618
REMARK  Name = 
REMARK  10 active torsions:
REMARK  status: ('A' for Active; 'I' for Inactive)
REMARK    1  A    between atoms: C_1  and  O_2
REMARK    2  A    between atoms: O_2  and  C_3
REMARK    3  A    between atoms: C_7  and  C_8
REMARK    4  A    between atoms: C_13  and  C_15
REMARK    5  A    between atoms: C_15  and  C_16
REMARK    6  A    between atoms: C_16  and  C_17
REMARK    7  A    between atoms: C_17  and  C_18
REMARK    8  A    between atoms: C_18  and  C_19
REMARK    9  A    between atoms: C_19  and  C_20
REMARK   10  A    between atoms: C_20  and  S_21
REMARK                            x       y       z     vdW  Elec       q    Type
REMARK                         _______ _______ _______ _____ _____    ______ ____
ROOT
ATOM      1  C   UNL     1       4.011   4.786  18.817  0.00  0.00    +0.000 A 
ATOM      2  C   UNL     1       3.580   3.742  19.614  0.00  0.00    +0.000 A 
ATOM      3  S   UNL     1       2.470   4.328  20.791  0.00  0.00    +0.000 S 
ATOM      4  C   UNL     1       2.581   5.873  20.083  0.00  0.00    +0.000 A 
ATOM      5  N   UNL     1       1.798   6.830  20.659  0.00  0.00    +0.000 N 
ATOM      6  C   UNL     1       1.645   8.069  20.081  0.00  0.00    +0.000 C 
ATOM      7  O   UNL     1       2.054   8.423  18.981  0.00  0.00    +0.000 OA
ATOM      8  N   UNL     1       3.404   5.998  19.078  0.00  0.00    +0.000 NA
ATOM      9  H   UNL     1       1.296   6.574  21.496  0.00  0.00    +0.000 HD
ENDROOT
BRANCH   1  14
ATOM     10  C   UNL     1       5.652   4.370  15.454  0.00  0.00    +0.000 A 
ATOM     11  C   UNL     1       6.997   4.369  15.819  0.00  0.00    +0.000 A 
ATOM     12  C   UNL     1       7.366   4.522  17.153  0.00  0.00    +0.000 A 
ATOM     13  C   UNL     1       6.383   4.674  18.132  0.00  0.00    +0.000 A 
ATOM     14  C   UNL     1       5.027   4.686  17.778  0.00  0.00    +0.000 A 
ATOM     15  C   UNL     1       4.670   4.532  16.433  0.00  0.00    +0.000 A 
BRANCH  10  17
ATOM     16  C   UNL     1       6.546   3.951  13.292  0.00  0.00    +0.000 C 
ATOM     17  O   UNL     1       5.410   4.185  14.115  0.00  0.00    +0.000 OA
ENDBRANCH  10  17
ENDBRANCH   1  14
BRANCH   6  18
ATOM     18  C   UNL     1       0.854   9.034  20.935  0.00  0.00    +0.000 C 
BRANCH  18  19
ATOM     19  C   UNL     1       0.524  10.339  20.215  0.00  0.00    +0.000 C 
BRANCH  19  20
ATOM     20  C   UNL     1      -0.868  10.332  19.577  0.00  0.00    +0.000 C 
BRANCH  20  21
ATOM     21  C   UNL     1      -0.774  10.079  18.072  0.00  0.00    +0.000 C 
BRANCH  21  22
ATOM     22  C   UNL     1      -2.140  10.197  17.394  0.00  0.00    +0.000 C 
BRANCH  22  23
ATOM     23  C   UNL     1      -2.973  11.293  18.053  0.00  0.00    +0.000 C 
BRANCH  23  24
ATOM     24  S   UNL     1      -4.560  11.501  17.199  0.00  0.00    +0.000 S 
ATOM     25  H   UNL     1      -4.122  11.170  15.976  0.00  0.00    +0.000 HD
ENDBRANCH  23  24
ENDBRANCH  22  23
ENDBRANCH  21  22
ENDBRANCH  20  21
ENDBRANCH  19  20
ENDBRANCH  18  19
ENDBRANCH   6  18
TORSDOF 9
ENDMDL
MODEL 7
REMARK VINA RESULT:      -6.2      5.061      6.744
REMARK  Name = 
REMARK  10 active torsions:
REMARK  status: ('A' for Active; 'I' for Inactive)
REMARK    1  A    between atoms: C_1  and  O_2
REMARK    2  A    between atoms: O_2  and  C_3
REMARK    3  A    between atoms: C_7  and  C_8
REMARK    4  A    between atoms: C_13  and  C_15
REMARK    5  A    between atoms: C_15  and  C_16
REMARK    6  A    between atoms: C_16  and  C_17
REMARK    7  A    between atoms: C_17  and  C_18
REMARK    8  A    between atoms: C_18  and  C_19
REMARK    9  A    between atoms: C_19  and  C_20
REMARK   10  A    between atoms: C_20  and  S_21
REMARK                            x       y       z     vdW  Elec       q    Type
REMARK                         _______ _______ _______ _____ _____    ______ ____
ROOT
ATOM      1  C   UNL     1       3.631   5.312  18.937  0.00  0.00    +0.000 A 
ATOM      2  C   UNL     1       3.174   4.286  19.744  0.00  0.00    +0.000 A 
ATOM      3  S   UNL     1       2.052   4.905  20.891  0.00  0.00    +0.000 S 
ATOM      4  C   UNL     1       2.194   6.436  20.159  0.00  0.00    +0.000 A 
ATOM      5  N   UNL     1       1.412   7.413  20.706  0.00  0.00    +0.000 N 
ATOM      6  C   UNL     1       1.284   8.643  20.104  0.00  0.00    +0.000 C 
ATOM      7  O   UNL     1       1.716   8.974  19.006  0.00  0.00    +0.000 OA
ATOM      8  N   UNL     1       3.035   6.535  19.167  0.00  0.00    +0.000 NA
ATOM      9  H   UNL     1       0.893   7.177  21.538  0.00  0.00    +0.000 HD
ENDROOT
BRANCH   1  14
ATOM     10  C   UNL     1       6.657   6.014  16.809  0.00  0.00    +0.000 A 
ATOM     11  C   UNL     1       6.563   4.985  15.875  0.00  0.00    +0.000 A 
ATOM     12  C   UNL     1       5.527   4.055  15.950  0.00  0.00    +0.000 A 
ATOM     13  C   UNL     1       4.576   4.157  16.966  0.00  0.00    +0.000 A 
ATOM     14  C   UNL     1       4.664   5.182  17.918  0.00  0.00    +0.000 A 
ATOM     15  C   UNL     1       5.711   6.109  17.831  0.00  0.00    +0.000 A 
BRANCH  10  17
ATOM     16  C   UNL     1       7.783   7.986  17.512  0.00  0.00    +0.000 C 
ATOM     17  O   UNL     1       7.703   6.882  16.618  0.00  0.00    +0.000 OA
ENDBRANCH  10  17
ENDBRANCH   1  14
BRANCH   6  18
ATOM     18  C   UNL     1       0.490   9.631  20.928  0.00  0.00    +0.000 C 
BRANCH  18  19
ATOM     19  C   UNL     1       0.508   9.316  22.421  0.00  0.00    +0.000 C 
BRANCH  19  20
ATOM     20  C   UNL     1      -0.704   9.886  23.165  0.00  0.00    +0.000 C 
BRANCH  20  21
ATOM     21  C   UNL     1      -0.816  11.394  22.944  0.00  0.00    +0.000 C 
BRANCH  21  22
ATOM     22  C   UNL     1      -2.253  11.811  22.626  0.00  0.00    +0.000 C 
BRANCH  22  23
ATOM     23  C   UNL     1      -2.646  13.043  23.439  0.00  0.00    +0.000 C 
BRANCH  23  24
ATOM     24  S   UNL     1      -4.136  12.721  24.422  0.00  0.00    +0.000 S 
ATOM     25  H   UNL     1      -3.924  11.409  24.600  0.00  0.00    +0.000 HD
ENDBRANCH  23  24
ENDBRANCH  22  23
ENDBRANCH  21  22
ENDBRANCH  20  21
ENDBRANCH  19  20
ENDBRANCH  18  19
ENDBRANCH   6  18
TORSDOF 9
ENDMDL
MODEL 8
REMARK VINA RESULT:      -6.2      4.411      6.153
REMARK  Name = 
REMARK  10 active torsions:
REMARK  status: ('A' for Active; 'I' for Inactive)
REMARK    1  A    between atoms: C_1  and  O_2
REMARK    2  A    between atoms: O_2  and  C_3
REMARK    3  A    between atoms: C_7  and  C_8
REMARK    4  A    between atoms: C_13  and  C_15
REMARK    5  A    between atoms: C_15  and  C_16
REMARK    6  A    between atoms: C_16  and  C_17
REMARK    7  A    between atoms: C_17  and  C_18
REMARK    8  A    between atoms: C_18  and  C_19
REMARK    9  A    between atoms: C_19  and  C_20
REMARK   10  A    between atoms: C_20  and  S_21
REMARK                            x       y       z     vdW  Elec       q    Type
REMARK                         _______ _______ _______ _____ _____    ______ ____
ROOT
ATOM      1  C   UNL     1       3.943   4.911  19.259  0.00  0.00    +0.000 A 
ATOM      2  C   UNL     1       3.387   3.860  19.965  0.00  0.00    +0.000 A 
ATOM      3  S   UNL     1       2.112   4.441  20.963  0.00  0.00    +0.000 S 
ATOM      4  C   UNL     1       2.341   5.993  20.302  0.00  0.00    +0.000 A 
ATOM      5  N   UNL     1       1.483   6.950  20.763  0.00  0.00    +0.000 N 
ATOM      6  C   UNL     1       1.429   8.197  20.184  0.00  0.00    +0.000 C 
ATOM      7  O   UNL     1       2.006   8.561  19.166  0.00  0.00    +0.000 OA
ATOM      8  N   UNL     1       3.310   6.124  19.439  0.00  0.00    +0.000 NA
ATOM      9  H   UNL     1       0.856   6.688  21.508  0.00  0.00    +0.000 HD
ENDROOT
BRANCH   1  14
ATOM     10  C   UNL     1       6.135   4.135  16.298  0.00  0.00    +0.000 A 
ATOM     11  C   UNL     1       7.381   4.526  16.786  0.00  0.00    +0.000 A 
ATOM     12  C   UNL     1       7.501   5.056  18.069  0.00  0.00    +0.000 A 
ATOM     13  C   UNL     1       6.368   5.195  18.872  0.00  0.00    +0.000 A 
ATOM     14  C   UNL     1       5.108   4.815  18.389  0.00  0.00    +0.000 A 
ATOM     15  C   UNL     1       5.001   4.284  17.097  0.00  0.00    +0.000 A 
BRANCH  10  17
ATOM     16  C   UNL     1       6.578   4.465  13.985  0.00  0.00    +0.000 C 
ATOM     17  O   UNL     1       6.145   3.604  15.032  0.00  0.00    +0.000 OA
ENDBRANCH  10  17
ENDBRANCH   1  14
BRANCH   6  18
ATOM     18  C   UNL     1       0.522   9.157  20.918  0.00  0.00    +0.000 C 
BRANCH  18  19
ATOM     19  C   UNL     1       0.765   9.178  22.425  0.00  0.00    +0.000 C 
BRANCH  19  20
ATOM     20  C   UNL     1      -0.388   9.815  23.206  0.00  0.00    +0.000 C 
BRANCH  20  21
ATOM     21  C   UNL     1      -1.022  10.953  22.407  0.00  0.00    +0.000 C 
BRANCH  21  22
ATOM     22  C   UNL     1      -1.850  11.877  23.301  0.00  0.00    +0.000 C 
BRANCH  22  23
ATOM     23  C   UNL     1      -1.303  13.301  23.255  0.00  0.00    +0.000 C 
BRANCH  23  24
ATOM     24  S   UNL     1      -0.151  13.506  21.868  0.00  0.00    +0.000 S 
ATOM     25  H   UNL     1       0.634  14.422  22.453  0.00  0.00    +0.000 HD
ENDBRANCH  23  24
ENDBRANCH  22  23
ENDBRANCH  21  22
ENDBRANCH  20  21
ENDBRANCH  19  20
ENDBRANCH  18  19
ENDBRANCH   6  18
TORSDOF 9
ENDMDL
MODEL 9
REMARK VINA RESULT:      -6.2      2.167      3.099
REMARK  Name = 
REMARK  10 active torsions:
REMARK  status: ('A' for Active; 'I' for Inactive)
REMARK    1  A    between atoms: C_1  and  O_2
REMARK    2  A    between atoms: O_2  and  C_3
REMARK    3  A    between atoms: C_7  and  C_8
REMARK    4  A    between atoms: C_13  and  C_15
REMARK    5  A    between atoms: C_15  and  C_16
REMARK    6  A    between atoms: C_16  and  C_17
REMARK    7  A    between atoms: C_17  and  C_18
REMARK    8  A    between atoms: C_18  and  C_19
REMARK    9  A    between atoms: C_19  and  C_20
REMARK   10  A    between atoms: C_20  and  S_21
REMARK                            x       y       z     vdW  Elec       q    Type
REMARK                         _______ _______ _______ _____ _____    ______ ____
ROOT
ATOM      1  C   UNL     1       6.458   4.598  16.161  0.00  0.00    +0.000 A 
ATOM      2  C   UNL     1       7.406   5.116  17.024  0.00  0.00    +0.000 A 
ATOM      3  S   UNL     1       6.779   5.150  18.625  0.00  0.00    +0.000 S 
ATOM      4  C   UNL     1       5.365   4.391  18.056  0.00  0.00    +0.000 A 
ATOM      5  N   UNL     1       4.429   4.118  19.012  0.00  0.00    +0.000 N 
ATOM      6  C   UNL     1       3.326   3.346  18.730  0.00  0.00    +0.000 C 
ATOM      7  O   UNL     1       3.105   2.729  17.695  0.00  0.00    +0.000 OA
ATOM      8  N   UNL     1       5.303   4.157  16.774  0.00  0.00    +0.000 NA
ATOM      9  H   UNL     1       4.607   4.463  19.943  0.00  0.00    +0.000 HD
ENDROOT
BRANCH   1  14
ATOM     10  C   UNL     1       6.005   3.494  12.590  0.00  0.00    +0.000 A 
ATOM     11  C   UNL     1       6.975   4.265  11.954  0.00  0.00    +0.000 A 
ATOM     12  C   UNL     1       7.761   5.154  12.684  0.00  0.00    +0.000 A 
ATOM     13  C   UNL     1       7.577   5.272  14.063  0.00  0.00    +0.000 A 
ATOM     14  C   UNL     1       6.598   4.509  14.714  0.00  0.00    +0.000 A 
ATOM     15  C   UNL     1       5.815   3.619  13.968  0.00  0.00    +0.000 A 
BRANCH  10  17
ATOM     16  C   UNL     1       4.091   3.125  11.228  0.00  0.00    +0.000 C 
ATOM     17  O   UNL     1       5.312   2.636  11.772  0.00  0.00    +0.000 OA
ENDBRANCH  10  17
ENDBRANCH   1  14
BRANCH   6  18
ATOM     18  C   UNL     1       2.341   3.272  19.874  0.00  0.00    +0.000 C 
BRANCH  18  19
ATOM     19  C   UNL     1       2.399   4.490  20.793  0.00  0.00    +0.000 C 
BRANCH  19  20
ATOM     20  C   UNL     1       1.504   5.638  20.318  0.00  0.00    +0.000 C 
BRANCH  20  21
ATOM     21  C   UNL     1       2.346   6.820  19.839  0.00  0.00    +0.000 C 
BRANCH  21  22
ATOM     22  C   UNL     1       1.595   8.144  19.990  0.00  0.00    +0.000 C 
BRANCH  22  23
ATOM     23  C   UNL     1       1.283   8.419  21.459  0.00  0.00    +0.000 C 
BRANCH  23  24
ATOM     24  S   UNL     1       0.467  10.028  21.657  0.00  0.00    +0.000 S 
ATOM     25  H   UNL     1       0.441  10.349  20.355  0.00  0.00    +0.000 HD
ENDBRANCH  23  24
ENDBRANCH  22  23
ENDBRANCH  21  22
ENDBRANCH  20  21
ENDBRANCH  19  20
ENDBRANCH  18  19
ENDBRANCH   6  18
TORSDOF 9
ENDMDL
