MODEL 1
REMARK VINA RESULT:      -8.3      0.000      0.000
REMARK  Name = 
REMARK  3 active torsions:
REMARK  status: ('A' for Active; 'I' for Inactive)
REMARK    1  A    between atoms: C_2  and  C_3
REMARK    2  A    between atoms: C_3  and  C_4
REMARK    3  A    between atoms: C_4  and  N_5
REMARK                            x       y       z     vdW  Elec       q    Type
REMARK                         _______ _______ _______ _____ _____    ______ ____
ROOT
ATOM      1  O   UNL     1       5.318   3.942  15.720  0.00  0.00    +0.000 OA
ATOM      2  C   UNL     1       4.548   4.375  16.575  0.00  0.00    +0.000 C 
ATOM      3  N   UNL     1       4.704   5.657  17.064  0.00  0.00    +0.000 N 
ATOM      4  C   UNL     1       3.926   6.257  18.056  0.00  0.00    +0.000 A 
ATOM      5  C   UNL     1       3.766   5.640  19.285  0.00  0.00    +0.000 A 
ATOM      6  C   UNL     1       2.897   6.203  20.211  0.00  0.00    +0.000 A 
ATOM      7  C   UNL     1       2.210   7.379  19.903  0.00  0.00    +0.000 A 
ATOM      8  S   UNL     1       1.063   7.961  21.105  0.00  0.00    +0.000 S 
ATOM      9  C   UNL     1       0.442   9.444  20.372  0.00  0.00    +0.000 A 
ATOM     10  C   UNL     1      -0.495  10.162  21.137  0.00  0.00    +0.000 A 
ATOM     11  C   UNL     1      -1.044  11.355  20.668  0.00  0.00    +0.000 A 
ATOM     12  C   UNL     1      -0.664  11.841  19.423  0.00  0.00    +0.000 A 
ATOM     13  C   UNL     1       0.261  11.132  18.652  0.00  0.00    +0.000 A 
ATOM     14  C   UNL     1       0.824   9.929  19.119  0.00  0.00    +0.000 A 
ATOM     15  C   UNL     1       1.809   9.229  18.244  0.00  0.00    +0.000 A 
ATOM     16  O   UNL     1       2.059   9.714  17.138  0.00  0.00    +0.000 OA
ATOM     17  C   UNL     1       2.484   7.969  18.676  0.00  0.00    +0.000 A 
ATOM     18  N   UNL     1       3.360   7.440  17.764  0.00  0.00    +0.000 NA
ATOM     19  H   UNL     1       5.146   6.286  16.406  0.00  0.00    +0.000 HD
ENDROOT
BRANCH   2  20
ATOM     20  C   UNL     1       3.330   3.596  17.048  0.00  0.00    +0.000 C 
BRANCH  20  21
ATOM     21  C   UNL     1       3.655   2.313  17.817  0.00  0.00    +0.000 C 
BRANCH  21  22
ATOM     22  N   UNL     1       2.798   2.168  19.022  0.00  0.00    +0.000 NA
ATOM     23  C   UNL     1       3.519   2.530  20.256  0.00  0.00    +0.000 C 
ATOM     24  C   UNL     1       2.646   2.358  21.498  0.00  0.00    +0.000 C 
ATOM     25  C   UNL     1       1.372   3.178  21.389  0.00  0.00    +0.000 C 
ATOM     26  C   UNL     1       0.651   2.848  20.089  0.00  0.00    +0.000 C 
ATOM     27  C   UNL     1       1.580   2.988  18.878  0.00  0.00    +0.000 C 
ENDBRANCH  21  22
ENDBRANCH  20  21
ENDBRANCH   2  20
TORSDOF 3
ENDMDL
MODEL 2
REMARK VINA RESULT:      -7.4      2.471      4.214
REMARK  Name = 
REMARK  3 active torsions:
REMARK  status: ('A' for Active; 'I' for Inactive)
REMARK    1  A    between atoms: C_2  and  C_3
REMARK    2  A    between atoms: C_3  and  C_4
REMARK    3  A    between atoms: C_4  and  N_5
REMARK                            x       y       z     vdW  Elec       q    Type
REMARK                         _______ _______ _______ _____ _____    ______ ____
ROOT
ATOM      1  O   UNL     1       4.797   3.093  19.817  0.00  0.00    +0.000 OA
ATOM      2  C   UNL     1       4.530   4.248  19.487  0.00  0.00    +0.000 C 
ATOM      3  N   UNL     1       3.230   4.708  19.562  0.00  0.00    +0.000 N 
ATOM      4  C   UNL     1       2.786   5.977  19.188  0.00  0.00    +0.000 A 
ATOM      5  C   UNL     1       3.050   6.461  17.918  0.00  0.00    +0.000 A 
ATOM      6  C   UNL     1       2.696   7.769  17.610  0.00  0.00    +0.000 A 
ATOM      7  C   UNL     1       2.073   8.570  18.570  0.00  0.00    +0.000 A 
ATOM      8  S   UNL     1       1.750  10.239  18.114  0.00  0.00    +0.000 S 
ATOM      9  C   UNL     1       0.951  10.893  19.549  0.00  0.00    +0.000 A 
ATOM     10  C   UNL     1       0.537  12.235  19.465  0.00  0.00    +0.000 A 
ATOM     11  C   UNL     1      -0.116  12.853  20.530  0.00  0.00    +0.000 A 
ATOM     12  C   UNL     1      -0.359  12.137  21.695  0.00  0.00    +0.000 A 
ATOM     13  C   UNL     1       0.053  10.805  21.791  0.00  0.00    +0.000 A 
ATOM     14  C   UNL     1       0.710  10.170  20.720  0.00  0.00    +0.000 A 
ATOM     15  C   UNL     1       1.117   8.745  20.892  0.00  0.00    +0.000 A 
ATOM     16  O   UNL     1       0.893   8.198  21.974  0.00  0.00    +0.000 OA
ATOM     17  C   UNL     1       1.783   7.982  19.794  0.00  0.00    +0.000 A 
ATOM     18  N   UNL     1       2.100   6.685  20.101  0.00  0.00    +0.000 NA
ATOM     19  H   UNL     1       2.677   4.234  20.265  0.00  0.00    +0.000 HD
ENDROOT
BRANCH   2  20
ATOM     20  C   UNL     1       5.602   5.257  19.105  0.00  0.00    +0.000 C 
BRANCH  20  21
ATOM     21  C   UNL     1       6.685   4.711  18.172  0.00  0.00    +0.000 C 
BRANCH  21  22
ATOM     22  N   UNL     1       6.326   4.908  16.745  0.00  0.00    +0.000 NA
ATOM     23  C   UNL     1       7.505   4.819  15.863  0.00  0.00    +0.000 C 
ATOM     24  C   UNL     1       7.140   5.045  14.397  0.00  0.00    +0.000 C 
ATOM     25  C   UNL     1       6.080   4.058  13.938  0.00  0.00    +0.000 C 
ATOM     26  C   UNL     1       4.882   4.106  14.878  0.00  0.00    +0.000 C 
ATOM     27  C   UNL     1       5.304   3.923  16.339  0.00  0.00    +0.000 C 
ENDBRANCH  21  22
ENDBRANCH  20  21
ENDBRANCH   2  20
TORSDOF 3
ENDMDL
MODEL 3
REMARK VINA RESULT:      -7.4      3.076      4.663
REMARK  Name = 
REMARK  3 active torsions:
REMARK  status: ('A' for Active; 'I' for Inactive)
REMARK    1  A    between atoms: C_2  and  C_3
REMARK    2  A    between atoms: C_3  and  C_4
REMARK    3  A    between atoms: C_4  and  N_5
REMARK                            x       y       z     vdW  Elec       q    Type
REMARK                         _______ _______ _______ _____ _____    ______ ____
ROOT
ATOM      1  O   UNL     1       3.305   7.531  17.556  0.00  0.00    +0.000 OA
ATOM      2  C   UNL     1       2.450   8.138  18.199  0.00  0.00    +0.000 C 
ATOM      3  N   UNL     1       1.792   9.213  17.635  0.00  0.00    +0.000 N 
ATOM      4  C   UNL     1       0.830  10.007  18.262  0.00  0.00    +0.000 A 
ATOM      5  C   UNL     1       1.110  10.614  19.475  0.00  0.00    +0.000 A 
ATOM      6  C   UNL     1       0.099  11.304  20.130  0.00  0.00    +0.000 A 
ATOM      7  C   UNL     1      -1.174  11.390  19.561  0.00  0.00    +0.000 A 
ATOM      8  S   UNL     1      -2.410  12.205  20.513  0.00  0.00    +0.000 S 
ATOM      9  C   UNL     1      -3.830  12.131  19.463  0.00  0.00    +0.000 A 
ATOM     10  C   UNL     1      -4.994  12.746  19.957  0.00  0.00    +0.000 A 
ATOM     11  C   UNL     1      -6.171  12.763  19.211  0.00  0.00    +0.000 A 
ATOM     12  C   UNL     1      -6.198  12.159  17.960  0.00  0.00    +0.000 A 
ATOM     13  C   UNL     1      -5.049  11.540  17.462  0.00  0.00    +0.000 A 
ATOM     14  C   UNL     1      -3.854  11.521  18.206  0.00  0.00    +0.000 A 
ATOM     15  C   UNL     1      -2.666  10.846  17.608  0.00  0.00    +0.000 A 
ATOM     16  O   UNL     1      -2.791  10.304  16.507  0.00  0.00    +0.000 OA
ATOM     17  C   UNL     1      -1.348  10.812  18.311  0.00  0.00    +0.000 A 
ATOM     18  N   UNL     1      -0.352  10.153  17.639  0.00  0.00    +0.000 NA
ATOM     19  H   UNL     1       1.737   9.165  16.625  0.00  0.00    +0.000 HD
ENDROOT
BRANCH   2  20
ATOM     20  C   UNL     1       1.982   7.681  19.572  0.00  0.00    +0.000 C 
BRANCH  20  21
ATOM     21  C   UNL     1       2.674   6.418  20.091  0.00  0.00    +0.000 C 
BRANCH  21  22
ATOM     22  N   UNL     1       1.836   5.210  19.876  0.00  0.00    +0.000 NA
ATOM     23  C   UNL     1       2.197   4.505  18.632  0.00  0.00    +0.000 C 
ATOM     24  C   UNL     1       1.319   3.276  18.397  0.00  0.00    +0.000 C 
ATOM     25  C   UNL     1       1.396   2.317  19.572  0.00  0.00    +0.000 C 
ATOM     26  C   UNL     1       1.078   3.053  20.867  0.00  0.00    +0.000 C 
ATOM     27  C   UNL     1       1.949   4.302  21.033  0.00  0.00    +0.000 C 
ENDBRANCH  21  22
ENDBRANCH  20  21
ENDBRANCH   2  20
TORSDOF 3
ENDMDL
MODEL 4
REMARK VINA RESULT:      -7.3      3.125      5.024
REMARK  Name = 
REMARK  3 active torsions:
REMARK  status: ('A' for Active; 'I' for Inactive)
REMARK    1  A    between atoms: C_2  and  C_3
REMARK    2  A    between atoms: C_3  and  C_4
REMARK    3  A    between atoms: C_4  and  N_5
REMARK                            x       y       z     vdW  Elec       q    Type
REMARK                         _______ _______ _______ _____ _____    ______ ____
ROOT
ATOM      1  O   UNL     1       2.746   8.304  17.164  0.00  0.00    +0.000 OA
ATOM      2  C   UNL     1       2.043   8.808  18.038  0.00  0.00    +0.000 C 
ATOM      3  N   UNL     1       1.375   9.992  17.795  0.00  0.00    +0.000 N 
ATOM      4  C   UNL     1       0.576  10.686  18.705  0.00  0.00    +0.000 A 
ATOM      5  C   UNL     1       1.082  11.044  19.944  0.00  0.00    +0.000 A 
ATOM      6  C   UNL     1       0.232  11.633  20.871  0.00  0.00    +0.000 A 
ATOM      7  C   UNL     1      -1.105  11.867  20.546  0.00  0.00    +0.000 A 
ATOM      8  S   UNL     1      -2.122  12.531  21.821  0.00  0.00    +0.000 S 
ATOM      9  C   UNL     1      -3.691  12.704  21.025  0.00  0.00    +0.000 A 
ATOM     10  C   UNL     1      -4.721  13.254  21.809  0.00  0.00    +0.000 A 
ATOM     11  C   UNL     1      -5.997  13.452  21.283  0.00  0.00    +0.000 A 
ATOM     12  C   UNL     1      -6.259  13.096  19.966  0.00  0.00    +0.000 A 
ATOM     13  C   UNL     1      -5.244  12.542  19.181  0.00  0.00    +0.000 A 
ATOM     14  C   UNL     1      -3.951  12.343  19.701  0.00  0.00    +0.000 A 
ATOM     15  C   UNL     1      -2.917  11.752  18.802  0.00  0.00    +0.000 A 
ATOM     16  O   UNL     1      -3.248  11.431  17.658  0.00  0.00    +0.000 OA
ATOM     17  C   UNL     1      -1.510  11.542  19.258  0.00  0.00    +0.000 A 
ATOM     18  N   UNL     1      -0.676  10.987  18.324  0.00  0.00    +0.000 NA
ATOM     19  H   UNL     1       1.160  10.137  16.815  0.00  0.00    +0.000 HD
ENDROOT
BRANCH   2  20
ATOM     20  C   UNL     1       1.767   8.117  19.365  0.00  0.00    +0.000 C 
BRANCH  20  21
ATOM     21  C   UNL     1       2.631   6.881  19.628  0.00  0.00    +0.000 C 
BRANCH  21  22
ATOM     22  N   UNL     1       1.846   5.628  19.484  0.00  0.00    +0.000 NA
ATOM     23  C   UNL     1       2.281   4.839  18.316  0.00  0.00    +0.000 C 
ATOM     24  C   UNL     1       1.459   3.561  18.152  0.00  0.00    +0.000 C 
ATOM     25  C   UNL     1       1.525   2.704  19.404  0.00  0.00    +0.000 C 
ATOM     26  C   UNL     1       1.130   3.529  20.622  0.00  0.00    +0.000 C 
ATOM     27  C   UNL     1       1.948   4.822  20.716  0.00  0.00    +0.000 C 
ENDBRANCH  21  22
ENDBRANCH  20  21
ENDBRANCH   2  20
TORSDOF 3
ENDMDL
MODEL 5
REMARK VINA RESULT:      -7.3      0.363      1.026
REMARK  Name = 
REMARK  3 active torsions:
REMARK  status: ('A' for Active; 'I' for Inactive)
REMARK    1  A    between atoms: C_2  and  C_3
REMARK    2  A    between atoms: C_3  and  C_4
REMARK    3  A    between atoms: C_4  and  N_5
REMARK                            x       y       z     vdW  Elec       q    Type
REMARK                         _______ _______ _______ _____ _____    ______ ____
ROOT
ATOM      1  O   UNL     1       5.228   4.247  15.455  0.00  0.00    +0.000 OA
ATOM      2  C   UNL     1       4.465   4.645  16.334  0.00  0.00    +0.000 C 
ATOM      3  N   UNL     1       4.646   5.894  16.895  0.00  0.00    +0.000 N 
ATOM      4  C   UNL     1       3.879   6.452  17.919  0.00  0.00    +0.000 A 
ATOM      5  C   UNL     1       3.705   5.768  19.111  0.00  0.00    +0.000 A 
ATOM      6  C   UNL     1       2.847   6.294  20.069  0.00  0.00    +0.000 A 
ATOM      7  C   UNL     1       2.183   7.499  19.828  0.00  0.00    +0.000 A 
ATOM      8  S   UNL     1       1.047   8.033  21.061  0.00  0.00    +0.000 S 
ATOM      9  C   UNL     1       0.454   9.567  20.415  0.00  0.00    +0.000 A 
ATOM     10  C   UNL     1      -0.469  10.259  21.220  0.00  0.00    +0.000 A 
ATOM     11  C   UNL     1      -0.994  11.486  20.819  0.00  0.00    +0.000 A 
ATOM     12  C   UNL     1      -0.604  12.036  19.605  0.00  0.00    +0.000 A 
ATOM     13  C   UNL     1       0.307  11.354  18.794  0.00  0.00    +0.000 A 
ATOM     14  C   UNL     1       0.847  10.116  19.191  0.00  0.00    +0.000 A 
ATOM     15  C   UNL     1       1.819   9.448  18.277  0.00  0.00    +0.000 A 
ATOM     16  O   UNL     1       2.079   9.990  17.201  0.00  0.00    +0.000 OA
ATOM     17  C   UNL     1       2.469   8.152  18.636  0.00  0.00    +0.000 A 
ATOM     18  N   UNL     1       3.336   7.660  17.696  0.00  0.00    +0.000 NA
ATOM     19  H   UNL     1       5.101   6.551  16.273  0.00  0.00    +0.000 HD
ENDROOT
BRANCH   2  20
ATOM     20  C   UNL     1       3.232   3.864  16.762  0.00  0.00    +0.000 C 
BRANCH  20  21
ATOM     21  C   UNL     1       3.498   2.781  17.810  0.00  0.00    +0.000 C 
BRANCH  21  22
ATOM     22  N   UNL     1       2.859   3.113  19.110  0.00  0.00    +0.000 NA
ATOM     23  C   UNL     1       1.399   2.910  19.073  0.00  0.00    +0.000 C 
ATOM     24  C   UNL     1       0.738   3.274  20.401  0.00  0.00    +0.000 C 
ATOM     25  C   UNL     1       1.338   2.478  21.547  0.00  0.00    +0.000 C 
ATOM     26  C   UNL     1       2.852   2.640  21.557  0.00  0.00    +0.000 C 
ATOM     27  C   UNL     1       3.463   2.310  20.191  0.00  0.00    +0.000 C 
ENDBRANCH  21  22
ENDBRANCH  20  21
ENDBRANCH   2  20
TORSDOF 3
ENDMDL
MODEL 6
REMARK VINA RESULT:      -7.1      2.679      4.280
REMARK  Name = 
REMARK  3 active torsions:
REMARK  status: ('A' for Active; 'I' for Inactive)
REMARK    1  A    between atoms: C_2  and  C_3
REMARK    2  A    between atoms: C_3  and  C_4
REMARK    3  A    between atoms: C_4  and  N_5
REMARK                            x       y       z     vdW  Elec       q    Type
REMARK                         _______ _______ _______ _____ _____    ______ ____
ROOT
ATOM      1  O   UNL     1       3.053   2.681  21.056  0.00  0.00    +0.000 OA
ATOM      2  C   UNL     1       3.100   3.790  20.527  0.00  0.00    +0.000 C 
ATOM      3  N   UNL     1       1.962   4.568  20.445  0.00  0.00    +0.000 N 
ATOM      4  C   UNL     1       1.868   5.824  19.844  0.00  0.00    +0.000 A 
ATOM      5  C   UNL     1       2.272   5.999  18.531  0.00  0.00    +0.000 A 
ATOM      6  C   UNL     1       2.273   7.280  17.994  0.00  0.00    +0.000 A 
ATOM      7  C   UNL     1       1.860   8.365  18.770  0.00  0.00    +0.000 A 
ATOM      8  S   UNL     1       1.987   9.958  18.030  0.00  0.00    +0.000 S 
ATOM      9  C   UNL     1       1.358  11.029  19.287  0.00  0.00    +0.000 A 
ATOM     10  C   UNL     1       1.306  12.396  18.962  0.00  0.00    +0.000 A 
ATOM     11  C   UNL     1       0.815  13.333  19.869  0.00  0.00    +0.000 A 
ATOM     12  C   UNL     1       0.372  12.913  21.117  0.00  0.00    +0.000 A 
ATOM     13  C   UNL     1       0.425  11.558  21.453  0.00  0.00    +0.000 A 
ATOM     14  C   UNL     1       0.916  10.603  20.542  0.00  0.00    +0.000 A 
ATOM     15  C   UNL     1       0.937   9.173  20.968  0.00  0.00    +0.000 A 
ATOM     16  O   UNL     1       0.559   8.895  22.109  0.00  0.00    +0.000 OA
ATOM     17  C   UNL     1       1.405   8.090  20.052  0.00  0.00    +0.000 A 
ATOM     18  N   UNL     1       1.371   6.828  20.585  0.00  0.00    +0.000 NA
ATOM     19  H   UNL     1       1.291   4.377  21.180  0.00  0.00    +0.000 HD
ENDROOT
BRANCH   2  20
ATOM     20  C   UNL     1       4.403   4.416  20.055  0.00  0.00    +0.000 C 
BRANCH  20  21
ATOM     21  C   UNL     1       5.092   3.664  18.914  0.00  0.00    +0.000 C 
BRANCH  21  22
ATOM     22  N   UNL     1       6.206   4.457  18.333  0.00  0.00    +0.000 NA
ATOM     23  C   UNL     1       5.821   5.096  17.061  0.00  0.00    +0.000 C 
ATOM     24  C   UNL     1       6.974   5.892  16.450  0.00  0.00    +0.000 C 
ATOM     25  C   UNL     1       7.485   6.944  17.420  0.00  0.00    +0.000 C 
ATOM     26  C   UNL     1       7.833   6.298  18.754  0.00  0.00    +0.000 C 
ATOM     27  C   UNL     1       6.664   5.472  19.302  0.00  0.00    +0.000 C 
ENDBRANCH  21  22
ENDBRANCH  20  21
ENDBRANCH   2  20
TORSDOF 3
ENDMDL
MODEL 7
REMARK VINA RESULT:      -6.9      2.630      4.279
REMARK  Name = 
REMARK  3 active torsions:
REMARK  status: ('A' for Active; 'I' for Inactive)
REMARK    1  A    between atoms: C_2  and  C_3
REMARK    2  A    between atoms: C_3  and  C_4
REMARK    3  A    between atoms: C_4  and  N_5
REMARK                            x       y       z     vdW  Elec       q    Type
REMARK                         _______ _______ _______ _____ _____    ______ ____
ROOT
ATOM      1  O   UNL     1       4.111   3.649  19.957  0.00  0.00    +0.000 OA
ATOM      2  C   UNL     1       3.859   4.824  19.695  0.00  0.00    +0.000 C 
ATOM      3  N   UNL     1       2.570   5.304  19.829  0.00  0.00    +0.000 N 
ATOM      4  C   UNL     1       2.142   6.599  19.534  0.00  0.00    +0.000 A 
ATOM      5  C   UNL     1       2.383   7.144  18.284  0.00  0.00    +0.000 A 
ATOM      6  C   UNL     1       2.046   8.472  18.054  0.00  0.00    +0.000 A 
ATOM      7  C   UNL     1       1.466   9.233  19.070  0.00  0.00    +0.000 A 
ATOM      8  S   UNL     1       1.163  10.930  18.711  0.00  0.00    +0.000 S 
ATOM      9  C   UNL     1       0.416  11.522  20.199  0.00  0.00    +0.000 A 
ATOM     10  C   UNL     1       0.027  12.874  20.196  0.00  0.00    +0.000 A 
ATOM     11  C   UNL     1      -0.585  13.448  21.309  0.00  0.00    +0.000 A 
ATOM     12  C   UNL     1      -0.813  12.676  22.441  0.00  0.00    +0.000 A 
ATOM     13  C   UNL     1      -0.424  11.334  22.457  0.00  0.00    +0.000 A 
ATOM     14  C   UNL     1       0.191  10.744  21.337  0.00  0.00    +0.000 A 
ATOM     15  C   UNL     1       0.574   9.304  21.424  0.00  0.00    +0.000 A 
ATOM     16  O   UNL     1       0.368   8.706  22.482  0.00  0.00    +0.000 OA
ATOM     17  C   UNL     1       1.196   8.588  20.270  0.00  0.00    +0.000 A 
ATOM     18  N   UNL     1       1.495   7.270  20.501  0.00  0.00    +0.000 NA
ATOM     19  H   UNL     1       2.026   4.804  20.522  0.00  0.00    +0.000 HD
ENDROOT
BRANCH   2  20
ATOM     20  C   UNL     1       4.940   5.832  19.337  0.00  0.00    +0.000 C 
BRANCH  20  21
ATOM     21  C   UNL     1       6.260   5.210  18.876  0.00  0.00    +0.000 C 
BRANCH  21  22
ATOM     22  N   UNL     1       6.401   5.262  17.398  0.00  0.00    +0.000 NA
ATOM     23  C   UNL     1       6.227   3.934  16.782  0.00  0.00    +0.000 C 
ATOM     24  C   UNL     1       6.395   3.982  15.264  0.00  0.00    +0.000 C 
ATOM     25  C   UNL     1       5.426   4.971  14.637  0.00  0.00    +0.000 C 
ATOM     26  C   UNL     1       5.564   6.331  15.308  0.00  0.00    +0.000 C 
ATOM     27  C   UNL     1       5.436   6.224  16.831  0.00  0.00    +0.000 C 
ENDBRANCH  21  22
ENDBRANCH  20  21
ENDBRANCH   2  20
TORSDOF 3
ENDMDL
MODEL 8
REMARK VINA RESULT:      -6.8      3.287      8.242
REMARK  Name = 
REMARK  3 active torsions:
REMARK  status: ('A' for Active; 'I' for Inactive)
REMARK    1  A    between atoms: C_2  and  C_3
REMARK    2  A    between atoms: C_3  and  C_4
REMARK    3  A    between atoms: C_4  and  N_5
REMARK                            x       y       z     vdW  Elec       q    Type
REMARK                         _______ _______ _______ _____ _____    ______ ____
ROOT
ATOM      1  O   UNL     1      -0.938  11.188  21.486  0.00  0.00    +0.000 OA
ATOM      2  C   UNL     1      -0.396  10.446  20.668  0.00  0.00    +0.000 C 
ATOM      3  N   UNL     1       0.675   9.661  21.047  0.00  0.00    +0.000 N 
ATOM      4  C   UNL     1       1.400   8.805  20.216  0.00  0.00    +0.000 A 
ATOM      5  C   UNL     1       1.963   9.283  19.045  0.00  0.00    +0.000 A 
ATOM      6  C   UNL     1       2.582   8.388  18.182  0.00  0.00    +0.000 A 
ATOM      7  C   UNL     1       2.640   7.030  18.506  0.00  0.00    +0.000 A 
ATOM      8  S   UNL     1       3.360   5.963  17.305  0.00  0.00    +0.000 S 
ATOM      9  C   UNL     1       3.274   4.378  18.082  0.00  0.00    +0.000 A 
ATOM     10  C   UNL     1       3.818   3.305  17.353  0.00  0.00    +0.000 A 
ATOM     11  C   UNL     1       3.819   2.011  17.872  0.00  0.00    +0.000 A 
ATOM     12  C   UNL     1       3.271   1.775  19.126  0.00  0.00    +0.000 A 
ATOM     13  C   UNL     1       2.722   2.832  19.856  0.00  0.00    +0.000 A 
ATOM     14  C   UNL     1       2.720   4.143  19.343  0.00  0.00    +0.000 A 
ATOM     15  C   UNL     1       2.121   5.223  20.180  0.00  0.00    +0.000 A 
ATOM     16  O   UNL     1       1.624   4.916  21.266  0.00  0.00    +0.000 OA
ATOM     17  C   UNL     1       2.111   6.648  19.732  0.00  0.00    +0.000 A 
ATOM     18  N   UNL     1       1.524   7.525  20.606  0.00  0.00    +0.000 NA
ATOM     19  H   UNL     1       0.670   9.424  22.032  0.00  0.00    +0.000 HD
ENDROOT
BRANCH   2  20
ATOM     20  C   UNL     1      -0.932  10.253  19.258  0.00  0.00    +0.000 C 
BRANCH  20  21
ATOM     21  C   UNL     1      -0.997  11.534  18.423  0.00  0.00    +0.000 C 
BRANCH  21  22
ATOM     22  N   UNL     1      -2.369  11.779  17.907  0.00  0.00    +0.000 NA
ATOM     23  C   UNL     1      -2.816  10.705  17.002  0.00  0.00    +0.000 C 
ATOM     24  C   UNL     1      -4.217  10.968  16.452  0.00  0.00    +0.000 C 
ATOM     25  C   UNL     1      -5.222  11.143  17.577  0.00  0.00    +0.000 C 
ATOM     26  C   UNL     1      -4.738  12.214  18.546  0.00  0.00    +0.000 C 
ATOM     27  C   UNL     1      -3.312  11.932  19.031  0.00  0.00    +0.000 C 
ENDBRANCH  21  22
ENDBRANCH  20  21
ENDBRANCH   2  20
TORSDOF 3
ENDMDL
MODEL 9
REMARK VINA RESULT:      -6.8      2.730      4.092
REMARK  Name = 
REMARK  3 active torsions:
REMARK  status: ('A' for Active; 'I' for Inactive)
REMARK    1  A    between atoms: C_2  and  C_3
REMARK    2  A    between atoms: C_3  and  C_4
REMARK    3  A    between atoms: C_4  and  N_5
REMARK                            x       y       z     vdW  Elec       q    Type
REMARK                         _______ _______ _______ _____ _____    ______ ____
ROOT
ATOM      1  O   UNL     1       3.641   6.736  17.392  0.00  0.00    +0.000 OA
ATOM      2  C   UNL     1       2.804   7.366  18.037  0.00  0.00    +0.000 C 
ATOM      3  N   UNL     1       2.270   8.533  17.527  0.00  0.00    +0.000 N 
ATOM      4  C   UNL     1       1.343   9.359  18.166  0.00  0.00    +0.000 A 
ATOM      5  C   UNL     1       1.605   9.848  19.435  0.00  0.00    +0.000 A 
ATOM      6  C   UNL     1       0.619  10.574  20.092  0.00  0.00    +0.000 A 
ATOM      7  C   UNL     1      -0.608  10.811  19.469  0.00  0.00    +0.000 A 
ATOM      8  S   UNL     1      -1.824  11.658  20.419  0.00  0.00    +0.000 S 
ATOM      9  C   UNL     1      -3.184  11.785  19.298  0.00  0.00    +0.000 A 
ATOM     10  C   UNL     1      -4.319  12.461  19.781  0.00  0.00    +0.000 A 
ATOM     11  C   UNL     1      -5.447  12.635  18.981  0.00  0.00    +0.000 A 
ATOM     12  C   UNL     1      -5.454  12.130  17.687  0.00  0.00    +0.000 A 
ATOM     13  C   UNL     1      -4.334  11.452  17.199  0.00  0.00    +0.000 A 
ATOM     14  C   UNL     1      -3.189  11.274  17.997  0.00  0.00    +0.000 A 
ATOM     15  C   UNL     1      -2.029  10.544  17.408  0.00  0.00    +0.000 A 
ATOM     16  O   UNL     1      -2.137  10.098  16.264  0.00  0.00    +0.000 OA
ATOM     17  C   UNL     1      -0.759  10.345  18.170  0.00  0.00    +0.000 A 
ATOM     18  N   UNL     1       0.215   9.652  17.499  0.00  0.00    +0.000 NA
ATOM     19  H   UNL     1       2.268   8.565  16.515  0.00  0.00    +0.000 HD
ENDROOT
BRANCH   2  20
ATOM     20  C   UNL     1       2.224   6.851  19.346  0.00  0.00    +0.000 C 
BRANCH  20  21
ATOM     21  C   UNL     1       3.133   5.883  20.106  0.00  0.00    +0.000 C 
BRANCH  21  22
ATOM     22  N   UNL     1       2.743   4.470  19.869  0.00  0.00    +0.000 NA
ATOM     23  C   UNL     1       1.474   4.366  19.126  0.00  0.00    +0.000 C 
ATOM     24  C   UNL     1       1.060   2.913  18.902  0.00  0.00    +0.000 C 
ATOM     25  C   UNL     1       2.146   2.140  18.174  0.00  0.00    +0.000 C 
ATOM     26  C   UNL     1       3.472   2.288  18.908  0.00  0.00    +0.000 C 
ATOM     27  C   UNL     1       3.820   3.761  19.151  0.00  0.00    +0.000 C 
ENDBRANCH  21  22
ENDBRANCH  20  21
ENDBRANCH   2  20
TORSDOF 3
ENDMDL
