MODEL 1
REMARK VINA RESULT:      -6.6      0.000      0.000
REMARK  Name = 
REMARK  12 active torsions:
REMARK  status: ('A' for Active; 'I' for Inactive)
REMARK    1  A    between atoms: C_1  and  O_2
REMARK    2  A    between atoms: O_2  and  C_3
REMARK    3  A    between atoms: C_3  and  C_4
REMARK    4  A    between atoms: C_4  and  N_5
REMARK    5  A    between atoms: C_6  and  N_7
REMARK    6  A    between atoms: C_8  and  C_9
REMARK    7  A    between atoms: C_9  and  C_11
REMARK    8  A    between atoms: C_11  and  N_12
REMARK    9  A    between atoms: N_12  and  C_13
REMARK   10  A    between atoms: N_12  and  C_14
REMARK   11  A    between atoms: C_18  and  C_19
REMARK   12  A    between atoms: C_20  and  C_21
REMARK                            x       y       z     vdW  Elec       q    Type
REMARK                         _______ _______ _______ _____ _____    ______ ____
ROOT
ATOM      1  N   UNL     1       6.119   4.338  16.272  0.00  0.00    +0.000 N 
ATOM      2  C   UNL     1       5.278   3.810  17.252  0.00  0.00    +0.000 A 
ATOM      3  C   UNL     1       5.432   4.217  18.536  0.00  0.00    +0.000 A 
ATOM      4  C   UNL     1       6.364   5.328  18.827  0.00  0.00    +0.000 A 
ATOM      5  O   UNL     1       6.545   5.762  19.961  0.00  0.00    +0.000 OA
ATOM      6  N   UNL     1       7.007   5.881  17.772  0.00  0.00    +0.000 N 
ATOM      7  C   UNL     1       6.977   5.402  16.502  0.00  0.00    +0.000 A 
ATOM      8  O   UNL     1       7.702   5.910  15.648  0.00  0.00    +0.000 OA
ATOM      9  H   UNL     1       7.647   6.640  17.954  0.00  0.00    +0.000 HD
ENDROOT
BRANCH   2  10
ATOM     10  N   UNL     1       4.308   2.895  16.902  0.00  0.00    +0.000 N 
ATOM     11  H   UNL     1       4.034   2.170  17.548  0.00  0.00    +0.000 HD
ATOM     12  H   UNL     1       3.565   3.233  16.278  0.00  0.00    +0.000 HD
ENDBRANCH   2  10
BRANCH   3  13
ATOM     13  C   UNL     1       4.709   3.501  19.648  0.00  0.00    +0.000 C 
ATOM     14  O   UNL     1       5.078   2.376  20.001  0.00  0.00    +0.000 OA
BRANCH  13  15
ATOM     15  C   UNL     1       3.526   4.236  20.287  0.00  0.00    +0.000 C 
BRANCH  15  16
ATOM     16  N   UNL     1       2.548   4.851  19.352  0.00  0.00    +0.000 N 
ATOM     17  C   UNL     1       1.473   3.958  18.891  0.00  0.00    +0.000 C 
BRANCH  16  18
ATOM     18  C   UNL     1       2.186   6.212  19.582  0.00  0.00    +0.000 A 
ATOM     19  C   UNL     1       1.477   6.563  20.761  0.00  0.00    +0.000 A 
ATOM     20  C   UNL     1       1.018   7.855  21.030  0.00  0.00    +0.000 A 
ATOM     21  C   UNL     1       1.256   8.870  20.125  0.00  0.00    +0.000 A 
ATOM     22  C   UNL     1       1.957   8.605  18.945  0.00  0.00    +0.000 A 
ATOM     23  C   UNL     1       2.183   9.755  17.996  0.00  0.00    +0.000 C 
ATOM     24  C   UNL     1       2.413   7.280  18.655  0.00  0.00    +0.000 A 
ATOM     25  C   UNL     1       3.116   7.081  17.332  0.00  0.00    +0.000 C 
ENDBRANCH  16  18
ENDBRANCH  15  16
ENDBRANCH  13  15
ENDBRANCH   3  13
BRANCH   1  26
ATOM     26  C   UNL     1       6.150   3.755  14.929  0.00  0.00    +0.000 C 
BRANCH  26  27
ATOM     27  C   UNL     1       5.350   4.543  13.896  0.00  0.00    +0.000 C 
BRANCH  27  29
ATOM     28  C   UNL     1       5.943   3.146  12.090  0.00  0.00    +0.000 C 
ATOM     29  O   UNL     1       4.883   3.621  12.907  0.00  0.00    +0.000 OA
ENDBRANCH  27  29
ENDBRANCH  26  27
ENDBRANCH   1  26
TORSDOF 8
ENDMDL
MODEL 2
REMARK VINA RESULT:      -6.5      1.069      1.106
REMARK  Name = 
REMARK  12 active torsions:
REMARK  status: ('A' for Active; 'I' for Inactive)
REMARK    1  A    between atoms: C_1  and  O_2
REMARK    2  A    between atoms: O_2  and  C_3
REMARK    3  A    between atoms: C_3  and  C_4
REMARK    4  A    between atoms: C_4  and  N_5
REMARK    5  A    between atoms: C_6  and  N_7
REMARK    6  A    between atoms: C_8  and  C_9
REMARK    7  A    between atoms: C_9  and  C_11
REMARK    8  A    between atoms: C_11  and  N_12
REMARK    9  A    between atoms: N_12  and  C_13
REMARK   10  A    between atoms: N_12  and  C_14
REMARK   11  A    between atoms: C_18  and  C_19
REMARK   12  A    between atoms: C_20  and  C_21
REMARK                            x       y       z     vdW  Elec       q    Type
REMARK                         _______ _______ _______ _____ _____    ______ ____
ROOT
ATOM      1  N   UNL     1       6.246   4.392  15.349  0.00  0.00    +0.000 N 
ATOM      2  C   UNL     1       5.483   4.200  16.502  0.00  0.00    +0.000 A 
ATOM      3  C   UNL     1       5.862   4.818  17.648  0.00  0.00    +0.000 A 
ATOM      4  C   UNL     1       6.962   5.805  17.599  0.00  0.00    +0.000 A 
ATOM      5  O   UNL     1       7.350   6.415  18.591  0.00  0.00    +0.000 OA
ATOM      6  N   UNL     1       7.523   6.037  16.388  0.00  0.00    +0.000 N 
ATOM      7  C   UNL     1       7.259   5.333  15.258  0.00  0.00    +0.000 A 
ATOM      8  O   UNL     1       7.922   5.548  14.245  0.00  0.00    +0.000 OA
ATOM      9  H   UNL     1       8.276   6.707  16.338  0.00  0.00    +0.000 HD
ENDROOT
BRANCH   2  10
ATOM     10  N   UNL     1       4.363   3.398  16.456  0.00  0.00    +0.000 N 
ATOM     11  H   UNL     1       3.451   3.785  16.650  0.00  0.00    +0.000 HD
ATOM     12  H   UNL     1       4.379   2.628  15.777  0.00  0.00    +0.000 HD
ENDBRANCH   2  10
BRANCH   3  13
ATOM     13  C   UNL     1       5.209   4.451  18.955  0.00  0.00    +0.000 C 
ATOM     14  O   UNL     1       5.355   3.317  19.422  0.00  0.00    +0.000 OA
BRANCH  13  15
ATOM     15  C   UNL     1       4.377   5.541  19.641  0.00  0.00    +0.000 C 
BRANCH  15  16
ATOM     16  N   UNL     1       3.027   5.796  19.075  0.00  0.00    +0.000 N 
ATOM     17  C   UNL     1       2.211   4.595  18.832  0.00  0.00    +0.000 C 
BRANCH  16  18
ATOM     18  C   UNL     1       2.330   6.953  19.534  0.00  0.00    +0.000 A 
ATOM     19  C   UNL     1       1.686   6.932  20.799  0.00  0.00    +0.000 A 
ATOM     20  C   UNL     1       0.920   7.991  21.293  0.00  0.00    +0.000 A 
ATOM     21  C   UNL     1       0.766   9.137  20.539  0.00  0.00    +0.000 A 
ATOM     22  C   UNL     1       1.379   9.237  19.287  0.00  0.00    +0.000 A 
ATOM     23  C   UNL     1       1.171  10.513  18.510  0.00  0.00    +0.000 C 
ATOM     24  C   UNL     1       2.149   8.149  18.767  0.00  0.00    +0.000 A 
ATOM     25  C   UNL     1       2.729   8.331  17.384  0.00  0.00    +0.000 C 
ENDBRANCH  16  18
ENDBRANCH  15  16
ENDBRANCH  13  15
ENDBRANCH   3  13
BRANCH   1  26
ATOM     26  C   UNL     1       6.018   3.564  14.163  0.00  0.00    +0.000 C 
BRANCH  26  27
ATOM     27  C   UNL     1       5.064   4.188  13.149  0.00  0.00    +0.000 C 
BRANCH  27  29
ATOM     28  C   UNL     1       6.283   2.611  11.887  0.00  0.00    +0.000 C 
ATOM     29  O   UNL     1       5.096   3.386  11.965  0.00  0.00    +0.000 OA
ENDBRANCH  27  29
ENDBRANCH  26  27
ENDBRANCH   1  26
TORSDOF 8
ENDMDL
MODEL 3
REMARK VINA RESULT:      -6.4      1.177      1.945
REMARK  Name = 
REMARK  12 active torsions:
REMARK  status: ('A' for Active; 'I' for Inactive)
REMARK    1  A    between atoms: C_1  and  O_2
REMARK    2  A    between atoms: O_2  and  C_3
REMARK    3  A    between atoms: C_3  and  C_4
REMARK    4  A    between atoms: C_4  and  N_5
REMARK    5  A    between atoms: C_6  and  N_7
REMARK    6  A    between atoms: C_8  and  C_9
REMARK    7  A    between atoms: C_9  and  C_11
REMARK    8  A    between atoms: C_11  and  N_12
REMARK    9  A    between atoms: N_12  and  C_13
REMARK   10  A    between atoms: N_12  and  C_14
REMARK   11  A    between atoms: C_18  and  C_19
REMARK   12  A    between atoms: C_20  and  C_21
REMARK                            x       y       z     vdW  Elec       q    Type
REMARK                         _______ _______ _______ _____ _____    ______ ____
ROOT
ATOM      1  N   UNL     1       6.207   4.400  15.273  0.00  0.00    +0.000 N 
ATOM      2  C   UNL     1       5.435   4.280  16.430  0.00  0.00    +0.000 A 
ATOM      3  C   UNL     1       5.818   4.950  17.545  0.00  0.00    +0.000 A 
ATOM      4  C   UNL     1       6.934   5.916  17.452  0.00  0.00    +0.000 A 
ATOM      5  O   UNL     1       7.327   6.570  18.413  0.00  0.00    +0.000 OA
ATOM      6  N   UNL     1       7.506   6.076  16.234  0.00  0.00    +0.000 N 
ATOM      7  C   UNL     1       7.236   5.318  15.140  0.00  0.00    +0.000 A 
ATOM      8  O   UNL     1       7.908   5.470  14.122  0.00  0.00    +0.000 OA
ATOM      9  H   UNL     1       8.269   6.730  16.154  0.00  0.00    +0.000 HD
ENDROOT
BRANCH   2  10
ATOM     10  N   UNL     1       4.302   3.495  16.419  0.00  0.00    +0.000 N 
ATOM     11  H   UNL     1       4.355   2.521  16.679  0.00  0.00    +0.000 HD
ATOM     12  H   UNL     1       3.418   3.964  16.647  0.00  0.00    +0.000 HD
ENDBRANCH   2  10
BRANCH   3  13
ATOM     13  C   UNL     1       5.151   4.662  18.865  0.00  0.00    +0.000 C 
ATOM     14  O   UNL     1       5.363   3.591  19.444  0.00  0.00    +0.000 OA
BRANCH  13  15
ATOM     15  C   UNL     1       4.223   5.748  19.421  0.00  0.00    +0.000 C 
BRANCH  15  16
ATOM     16  N   UNL     1       2.950   5.966  18.687  0.00  0.00    +0.000 N 
ATOM     17  C   UNL     1       2.033   4.815  18.663  0.00  0.00    +0.000 C 
BRANCH  16  18
ATOM     18  C   UNL     1       2.345   7.255  18.789  0.00  0.00    +0.000 A 
ATOM     19  C   UNL     1       2.475   8.181  17.721  0.00  0.00    +0.000 A 
ATOM     20  C   UNL     1       1.981   9.487  17.768  0.00  0.00    +0.000 A 
ATOM     21  C   UNL     1       1.319   9.931  18.895  0.00  0.00    +0.000 A 
ATOM     22  C   UNL     1       1.141   9.073  19.985  0.00  0.00    +0.000 A 
ATOM     23  C   UNL     1       0.412   9.617  21.188  0.00  0.00    +0.000 C 
ATOM     24  C   UNL     1       1.662   7.741  19.951  0.00  0.00    +0.000 A 
ATOM     25  C   UNL     1       1.466   6.906  21.195  0.00  0.00    +0.000 C 
ENDBRANCH  16  18
ENDBRANCH  15  16
ENDBRANCH  13  15
ENDBRANCH   3  13
BRANCH   1  26
ATOM     26  C   UNL     1       5.972   3.515  14.131  0.00  0.00    +0.000 C 
BRANCH  26  27
ATOM     27  C   UNL     1       5.190   4.168  12.995  0.00  0.00    +0.000 C 
BRANCH  27  29
ATOM     28  C   UNL     1       5.850   2.330  11.672  0.00  0.00    +0.000 C 
ATOM     29  O   UNL     1       4.762   3.134  12.105  0.00  0.00    +0.000 OA
ENDBRANCH  27  29
ENDBRANCH  26  27
ENDBRANCH   1  26
TORSDOF 8
ENDMDL
MODEL 4
REMARK VINA RESULT:      -6.3      2.689      6.578
REMARK  Name = 
REMARK  12 active torsions:
REMARK  status: ('A' for Active; 'I' for Inactive)
REMARK    1  A    between atoms: C_1  and  O_2
REMARK    2  A    between atoms: O_2  and  C_3
REMARK    3  A    between atoms: C_3  and  C_4
REMARK    4  A    between atoms: C_4  and  N_5
REMARK    5  A    between atoms: C_6  and  N_7
REMARK    6  A    between atoms: C_8  and  C_9
REMARK    7  A    between atoms: C_9  and  C_11
REMARK    8  A    between atoms: C_11  and  N_12
REMARK    9  A    between atoms: N_12  and  C_13
REMARK   10  A    between atoms: N_12  and  C_14
REMARK   11  A    between atoms: C_18  and  C_19
REMARK   12  A    between atoms: C_20  and  C_21
REMARK                            x       y       z     vdW  Elec       q    Type
REMARK                         _______ _______ _______ _____ _____    ______ ____
ROOT
ATOM      1  N   UNL     1       2.864   3.383  18.274  0.00  0.00    +0.000 N 
ATOM      2  C   UNL     1       4.188   3.564  18.678  0.00  0.00    +0.000 A 
ATOM      3  C   UNL     1       4.784   4.760  18.452  0.00  0.00    +0.000 A 
ATOM      4  C   UNL     1       3.965   5.884  17.947  0.00  0.00    +0.000 A 
ATOM      5  O   UNL     1       4.430   6.999  17.733  0.00  0.00    +0.000 OA
ATOM      6  N   UNL     1       2.648   5.640  17.747  0.00  0.00    +0.000 N 
ATOM      7  C   UNL     1       2.059   4.420  17.830  0.00  0.00    +0.000 A 
ATOM      8  O   UNL     1       0.880   4.296  17.503  0.00  0.00    +0.000 OA
ATOM      9  H   UNL     1       2.075   6.396  17.401  0.00  0.00    +0.000 HD
ENDROOT
BRANCH   2  10
ATOM     10  N   UNL     1       4.860   2.534  19.300  0.00  0.00    +0.000 N 
ATOM     11  H   UNL     1       4.847   2.451  20.306  0.00  0.00    +0.000 HD
ATOM     12  H   UNL     1       4.914   1.646  18.786  0.00  0.00    +0.000 HD
ENDBRANCH   2  10
BRANCH   3  13
ATOM     13  C   UNL     1       6.268   4.915  18.657  0.00  0.00    +0.000 C 
ATOM     14  O   UNL     1       6.714   5.177  19.779  0.00  0.00    +0.000 OA
BRANCH  13  15
ATOM     15  C   UNL     1       7.158   4.736  17.421  0.00  0.00    +0.000 C 
BRANCH  15  16
ATOM     16  N   UNL     1       6.971   5.722  16.325  0.00  0.00    +0.000 N 
ATOM     17  C   UNL     1       7.517   7.064  16.588  0.00  0.00    +0.000 C 
BRANCH  16  18
ATOM     18  C   UNL     1       7.084   5.244  14.985  0.00  0.00    +0.000 A 
ATOM     19  C   UNL     1       8.128   5.723  14.152  0.00  0.00    +0.000 A 
ATOM     20  C   UNL     1       8.268   5.366  12.808  0.00  0.00    +0.000 A 
ATOM     21  C   UNL     1       7.363   4.499  12.230  0.00  0.00    +0.000 A 
ATOM     22  C   UNL     1       6.313   3.976  12.990  0.00  0.00    +0.000 A 
ATOM     23  C   UNL     1       5.356   3.035  12.301  0.00  0.00    +0.000 C 
ATOM     24  C   UNL     1       6.153   4.352  14.361  0.00  0.00    +0.000 A 
ATOM     25  C   UNL     1       4.958   3.776  15.085  0.00  0.00    +0.000 C 
ENDBRANCH  16  18
ENDBRANCH  15  16
ENDBRANCH  13  15
ENDBRANCH   3  13
BRANCH   1  26
ATOM     26  C   UNL     1       2.264   2.048  18.277  0.00  0.00    +0.000 C 
BRANCH  26  27
ATOM     27  C   UNL     1       1.577   1.683  19.590  0.00  0.00    +0.000 C 
BRANCH  27  29
ATOM     28  C   UNL     1       1.814   2.798  21.655  0.00  0.00    +0.000 C 
ATOM     29  O   UNL     1       1.349   2.894  20.317  0.00  0.00    +0.000 OA
ENDBRANCH  27  29
ENDBRANCH  26  27
ENDBRANCH   1  26
TORSDOF 8
ENDMDL
MODEL 5
REMARK VINA RESULT:      -6.3      1.759      3.070
REMARK  Name = 
REMARK  12 active torsions:
REMARK  status: ('A' for Active; 'I' for Inactive)
REMARK    1  A    between atoms: C_1  and  O_2
REMARK    2  A    between atoms: O_2  and  C_3
REMARK    3  A    between atoms: C_3  and  C_4
REMARK    4  A    between atoms: C_4  and  N_5
REMARK    5  A    between atoms: C_6  and  N_7
REMARK    6  A    between atoms: C_8  and  C_9
REMARK    7  A    between atoms: C_9  and  C_11
REMARK    8  A    between atoms: C_11  and  N_12
REMARK    9  A    between atoms: N_12  and  C_13
REMARK   10  A    between atoms: N_12  and  C_14
REMARK   11  A    between atoms: C_18  and  C_19
REMARK   12  A    between atoms: C_20  and  C_21
REMARK                            x       y       z     vdW  Elec       q    Type
REMARK                         _______ _______ _______ _____ _____    ______ ____
ROOT
ATOM      1  N   UNL     1       6.423   4.379  15.160  0.00  0.00    +0.000 N 
ATOM      2  C   UNL     1       5.722   4.273  16.363  0.00  0.00    +0.000 A 
ATOM      3  C   UNL     1       6.118   5.024  17.419  0.00  0.00    +0.000 A 
ATOM      4  C   UNL     1       7.163   6.051  17.216  0.00  0.00    +0.000 A 
ATOM      5  O   UNL     1       7.561   6.779  18.120  0.00  0.00    +0.000 OA
ATOM      6  N   UNL     1       7.658   6.182  15.962  0.00  0.00    +0.000 N 
ATOM      7  C   UNL     1       7.381   5.352  14.925  0.00  0.00    +0.000 A 
ATOM      8  O   UNL     1       7.987   5.491  13.864  0.00  0.00    +0.000 OA
ATOM      9  H   UNL     1       8.372   6.877  15.807  0.00  0.00    +0.000 HD
ENDROOT
BRANCH   2  10
ATOM     10  N   UNL     1       4.644   3.419  16.454  0.00  0.00    +0.000 N 
ATOM     11  H   UNL     1       4.581   2.611  15.852  0.00  0.00    +0.000 HD
ATOM     12  H   UNL     1       4.226   3.307  17.385  0.00  0.00    +0.000 HD
ENDBRANCH   2  10
BRANCH   3  13
ATOM     13  C   UNL     1       5.542   4.766  18.788  0.00  0.00    +0.000 C 
ATOM     14  O   UNL     1       5.628   3.642  19.293  0.00  0.00    +0.000 OA
BRANCH  13  15
ATOM     15  C   UNL     1       4.864   5.951  19.486  0.00  0.00    +0.000 C 
BRANCH  15  16
ATOM     16  N   UNL     1       3.383   6.017  19.383  0.00  0.00    +0.000 N 
ATOM     17  C   UNL     1       2.866   6.705  18.188  0.00  0.00    +0.000 C 
BRANCH  16  18
ATOM     18  C   UNL     1       2.642   4.882  19.830  0.00  0.00    +0.000 A 
ATOM     19  C   UNL     1       2.685   4.507  21.198  0.00  0.00    +0.000 A 
ATOM     20  C   UNL     1       2.052   3.369  21.706  0.00  0.00    +0.000 A 
ATOM     21  C   UNL     1       1.332   2.549  20.861  0.00  0.00    +0.000 A 
ATOM     22  C   UNL     1       1.233   2.859  19.502  0.00  0.00    +0.000 A 
ATOM     23  C   UNL     1       0.434   1.923  18.630  0.00  0.00    +0.000 C 
ATOM     24  C   UNL     1       1.895   4.012  18.971  0.00  0.00    +0.000 A 
ATOM     25  C   UNL     1       1.774   4.236  17.482  0.00  0.00    +0.000 C 
ENDBRANCH  16  18
ENDBRANCH  15  16
ENDBRANCH  13  15
ENDBRANCH   3  13
BRANCH   1  26
ATOM     26  C   UNL     1       6.186   3.421  14.078  0.00  0.00    +0.000 C 
BRANCH  26  27
ATOM     27  C   UNL     1       5.028   3.800  13.161  0.00  0.00    +0.000 C 
BRANCH  27  29
ATOM     28  C   UNL     1       4.047   3.176  11.109  0.00  0.00    +0.000 C 
ATOM     29  O   UNL     1       5.215   3.124  11.915  0.00  0.00    +0.000 OA
ENDBRANCH  27  29
ENDBRANCH  26  27
ENDBRANCH   1  26
TORSDOF 8
ENDMDL
MODEL 6
REMARK VINA RESULT:      -6.2      4.293      6.645
REMARK  Name = 
REMARK  12 active torsions:
REMARK  status: ('A' for Active; 'I' for Inactive)
REMARK    1  A    between atoms: C_1  and  O_2
REMARK    2  A    between atoms: O_2  and  C_3
REMARK    3  A    between atoms: C_3  and  C_4
REMARK    4  A    between atoms: C_4  and  N_5
REMARK    5  A    between atoms: C_6  and  N_7
REMARK    6  A    between atoms: C_8  and  C_9
REMARK    7  A    between atoms: C_9  and  C_11
REMARK    8  A    between atoms: C_11  and  N_12
REMARK    9  A    between atoms: N_12  and  C_13
REMARK   10  A    between atoms: N_12  and  C_14
REMARK   11  A    between atoms: C_18  and  C_19
REMARK   12  A    between atoms: C_20  and  C_21
REMARK                            x       y       z     vdW  Elec       q    Type
REMARK                         _______ _______ _______ _____ _____    ______ ____
ROOT
ATOM      1  N   UNL     1       3.125   6.476  19.122  0.00  0.00    +0.000 N 
ATOM      2  C   UNL     1       2.180   7.203  19.847  0.00  0.00    +0.000 A 
ATOM      3  C   UNL     1       1.772   8.405  19.371  0.00  0.00    +0.000 A 
ATOM      4  C   UNL     1       2.207   8.825  18.021  0.00  0.00    +0.000 A 
ATOM      5  O   UNL     1       1.866   9.890  17.517  0.00  0.00    +0.000 OA
ATOM      6  N   UNL     1       2.992   7.961  17.334  0.00  0.00    +0.000 N 
ATOM      7  C   UNL     1       3.527   6.821  17.841  0.00  0.00    +0.000 A 
ATOM      8  O   UNL     1       4.329   6.180  17.166  0.00  0.00    +0.000 OA
ATOM      9  H   UNL     1       3.298   8.233  16.412  0.00  0.00    +0.000 HD
ENDROOT
BRANCH   2  10
ATOM     10  N   UNL     1       1.677   6.689  21.023  0.00  0.00    +0.000 N 
ATOM     11  H   UNL     1       2.247   6.671  21.857  0.00  0.00    +0.000 HD
ATOM     12  H   UNL     1       0.670   6.811  21.182  0.00  0.00    +0.000 HD
ENDBRANCH   2  10
BRANCH   3  13
ATOM     13  C   UNL     1       0.940   9.317  20.235  0.00  0.00    +0.000 C 
ATOM     14  O   UNL     1       1.467   9.937  21.165  0.00  0.00    +0.000 OA
BRANCH  13  15
ATOM     15  C   UNL     1      -0.551   9.419  19.896  0.00  0.00    +0.000 C 
BRANCH  15  16
ATOM     16  N   UNL     1      -1.019  10.726  19.365  0.00  0.00    +0.000 N 
ATOM     17  C   UNL     1       0.015  11.770  19.266  0.00  0.00    +0.000 C 
BRANCH  16  18
ATOM     18  C   UNL     1      -1.994  10.701  18.323  0.00  0.00    +0.000 A 
ATOM     19  C   UNL     1      -1.730   9.983  17.128  0.00  0.00    +0.000 A 
ATOM     20  C   UNL     1      -2.594   9.967  16.030  0.00  0.00    +0.000 A 
ATOM     21  C   UNL     1      -3.781  10.671  16.080  0.00  0.00    +0.000 A 
ATOM     22  C   UNL     1      -4.117  11.394  17.228  0.00  0.00    +0.000 A 
ATOM     23  C   UNL     1      -5.425  12.144  17.221  0.00  0.00    +0.000 C 
ATOM     24  C   UNL     1      -3.227  11.430  18.349  0.00  0.00    +0.000 A 
ATOM     25  C   UNL     1      -3.652  12.280  19.523  0.00  0.00    +0.000 C 
ENDBRANCH  16  18
ENDBRANCH  15  16
ENDBRANCH  13  15
ENDBRANCH   3  13
BRANCH   1  26
ATOM     26  C   UNL     1       3.768   5.300  19.711  0.00  0.00    +0.000 C 
BRANCH  26  27
ATOM     27  C   UNL     1       2.998   4.002  19.494  0.00  0.00    +0.000 C 
BRANCH  27  29
ATOM     28  C   UNL     1       1.080   3.012  20.447  0.00  0.00    +0.000 C 
ATOM     29  O   UNL     1       2.295   3.700  20.703  0.00  0.00    +0.000 OA
ENDBRANCH  27  29
ENDBRANCH  26  27
ENDBRANCH   1  26
TORSDOF 8
ENDMDL
MODEL 7
REMARK VINA RESULT:      -6.1      1.989      2.583
REMARK  Name = 
REMARK  12 active torsions:
REMARK  status: ('A' for Active; 'I' for Inactive)
REMARK    1  A    between atoms: C_1  and  O_2
REMARK    2  A    between atoms: O_2  and  C_3
REMARK    3  A    between atoms: C_3  and  C_4
REMARK    4  A    between atoms: C_4  and  N_5
REMARK    5  A    between atoms: C_6  and  N_7
REMARK    6  A    between atoms: C_8  and  C_9
REMARK    7  A    between atoms: C_9  and  C_11
REMARK    8  A    between atoms: C_11  and  N_12
REMARK    9  A    between atoms: N_12  and  C_13
REMARK   10  A    between atoms: N_12  and  C_14
REMARK   11  A    between atoms: C_18  and  C_19
REMARK   12  A    between atoms: C_20  and  C_21
REMARK                            x       y       z     vdW  Elec       q    Type
REMARK                         _______ _______ _______ _____ _____    ______ ____
ROOT
ATOM      1  N   UNL     1       6.509   5.207  16.556  0.00  0.00    +0.000 N 
ATOM      2  C   UNL     1       5.270   5.804  16.793  0.00  0.00    +0.000 A 
ATOM      3  C   UNL     1       4.652   5.579  17.978  0.00  0.00    +0.000 A 
ATOM      4  C   UNL     1       5.383   4.855  19.042  0.00  0.00    +0.000 A 
ATOM      5  O   UNL     1       4.895   4.628  20.145  0.00  0.00    +0.000 OA
ATOM      6  N   UNL     1       6.648   4.465  18.758  0.00  0.00    +0.000 N 
ATOM      7  C   UNL     1       7.237   4.553  17.538  0.00  0.00    +0.000 A 
ATOM      8  O   UNL     1       8.346   4.051  17.366  0.00  0.00    +0.000 OA
ATOM      9  H   UNL     1       7.160   3.970  19.473  0.00  0.00    +0.000 HD
ENDROOT
BRANCH   2  10
ATOM     10  N   UNL     1       4.703   6.610  15.830  0.00  0.00    +0.000 N 
ATOM     11  H   UNL     1       4.371   6.212  14.963  0.00  0.00    +0.000 HD
ATOM     12  H   UNL     1       4.182   7.428  16.166  0.00  0.00    +0.000 HD
ENDBRANCH   2  10
BRANCH   3  13
ATOM     13  C   UNL     1       3.221   6.007  18.177  0.00  0.00    +0.000 C 
ATOM     14  O   UNL     1       2.306   5.382  17.630  0.00  0.00    +0.000 OA
BRANCH  13  15
ATOM     15  C   UNL     1       2.984   7.231  19.070  0.00  0.00    +0.000 C 
BRANCH  15  16
ATOM     16  N   UNL     1       1.770   7.197  19.926  0.00  0.00    +0.000 N 
ATOM     17  C   UNL     1       1.688   6.059  20.856  0.00  0.00    +0.000 C 
BRANCH  16  18
ATOM     18  C   UNL     1       1.271   8.444  20.408  0.00  0.00    +0.000 A 
ATOM     19  C   UNL     1       1.062   8.630  21.799  0.00  0.00    +0.000 A 
ATOM     20  C   UNL     1       0.508   9.789  22.349  0.00  0.00    +0.000 A 
ATOM     21  C   UNL     1       0.138  10.831  21.522  0.00  0.00    +0.000 A 
ATOM     22  C   UNL     1       0.322  10.728  20.141  0.00  0.00    +0.000 A 
ATOM     23  C   UNL     1      -0.104  11.899  19.292  0.00  0.00    +0.000 C 
ATOM     24  C   UNL     1       0.872   9.536  19.570  0.00  0.00    +0.000 A 
ATOM     25  C   UNL     1       0.985   9.497  18.064  0.00  0.00    +0.000 C 
ENDBRANCH  16  18
ENDBRANCH  15  16
ENDBRANCH  13  15
ENDBRANCH   3  13
BRANCH   1  26
ATOM     26  C   UNL     1       7.095   5.224  15.214  0.00  0.00    +0.000 C 
BRANCH  26  27
ATOM     27  C   UNL     1       6.581   4.114  14.302  0.00  0.00    +0.000 C 
BRANCH  27  29
ATOM     28  C   UNL     1       6.513   3.470  12.034  0.00  0.00    +0.000 C 
ATOM     29  O   UNL     1       7.067   4.371  12.982  0.00  0.00    +0.000 OA
ENDBRANCH  27  29
ENDBRANCH  26  27
ENDBRANCH   1  26
TORSDOF 8
ENDMDL
MODEL 8
REMARK VINA RESULT:      -6.1      1.869      3.438
REMARK  Name = 
REMARK  12 active torsions:
REMARK  status: ('A' for Active; 'I' for Inactive)
REMARK    1  A    between atoms: C_1  and  O_2
REMARK    2  A    between atoms: O_2  and  C_3
REMARK    3  A    between atoms: C_3  and  C_4
REMARK    4  A    between atoms: C_4  and  N_5
REMARK    5  A    between atoms: C_6  and  N_7
REMARK    6  A    between atoms: C_8  and  C_9
REMARK    7  A    between atoms: C_9  and  C_11
REMARK    8  A    between atoms: C_11  and  N_12
REMARK    9  A    between atoms: N_12  and  C_13
REMARK   10  A    between atoms: N_12  and  C_14
REMARK   11  A    between atoms: C_18  and  C_19
REMARK   12  A    between atoms: C_20  and  C_21
REMARK                            x       y       z     vdW  Elec       q    Type
REMARK                         _______ _______ _______ _____ _____    ______ ____
ROOT
ATOM      1  N   UNL     1       7.238   5.911  17.910  0.00  0.00    +0.000 N 
ATOM      2  C   UNL     1       6.572   5.152  18.873  0.00  0.00    +0.000 A 
ATOM      3  C   UNL     1       5.532   4.372  18.488  0.00  0.00    +0.000 A 
ATOM      4  C   UNL     1       5.250   4.218  17.044  0.00  0.00    +0.000 A 
ATOM      5  O   UNL     1       4.337   3.517  16.619  0.00  0.00    +0.000 OA
ATOM      6  N   UNL     1       6.069   4.871  16.186  0.00  0.00    +0.000 N 
ATOM      7  C   UNL     1       7.024   5.766  16.548  0.00  0.00    +0.000 A 
ATOM      8  O   UNL     1       7.622   6.395  15.677  0.00  0.00    +0.000 OA
ATOM      9  H   UNL     1       5.889   4.777  15.198  0.00  0.00    +0.000 HD
ENDROOT
BRANCH   2  10
ATOM     10  N   UNL     1       6.982   5.203  20.188  0.00  0.00    +0.000 N 
ATOM     11  H   UNL     1       7.728   4.605  20.513  0.00  0.00    +0.000 HD
ATOM     12  H   UNL     1       6.916   6.116  20.654  0.00  0.00    +0.000 HD
ENDBRANCH   2  10
BRANCH   3  13
ATOM     13  C   UNL     1       4.647   3.728  19.523  0.00  0.00    +0.000 C 
ATOM     14  O   UNL     1       4.842   2.556  19.860  0.00  0.00    +0.000 OA
BRANCH  13  15
ATOM     15  C   UNL     1       3.525   4.594  20.107  0.00  0.00    +0.000 C 
BRANCH  15  16
ATOM     16  N   UNL     1       2.656   5.298  19.128  0.00  0.00    +0.000 N 
ATOM     17  C   UNL     1       1.701   4.441  18.406  0.00  0.00    +0.000 C 
BRANCH  16  18
ATOM     18  C   UNL     1       2.198   6.603  19.476  0.00  0.00    +0.000 A 
ATOM     19  C   UNL     1       1.536   6.811  20.714  0.00  0.00    +0.000 A 
ATOM     20  C   UNL     1       0.989   8.037  21.101  0.00  0.00    +0.000 A 
ATOM     21  C   UNL     1       1.087   9.128  20.260  0.00  0.00    +0.000 A 
ATOM     22  C   UNL     1       1.734   9.006  19.028  0.00  0.00    +0.000 A 
ATOM     23  C   UNL     1       1.806  10.232  18.153  0.00  0.00    +0.000 C 
ATOM     24  C   UNL     1       2.279   7.747  18.617  0.00  0.00    +0.000 A 
ATOM     25  C   UNL     1       2.914   7.700  17.247  0.00  0.00    +0.000 C 
ENDBRANCH  16  18
ENDBRANCH  15  16
ENDBRANCH  13  15
ENDBRANCH   3  13
BRANCH   1  26
ATOM     26  C   UNL     1       8.199   6.941  18.312  0.00  0.00    +0.000 C 
BRANCH  26  27
ATOM     27  C   UNL     1       7.800   8.353  17.894  0.00  0.00    +0.000 C 
BRANCH  27  29
ATOM     28  C   UNL     1       8.723  10.523  17.946  0.00  0.00    +0.000 C 
ATOM     29  O   UNL     1       8.626   9.273  18.613  0.00  0.00    +0.000 OA
ENDBRANCH  27  29
ENDBRANCH  26  27
ENDBRANCH   1  26
TORSDOF 8
ENDMDL
MODEL 9
REMARK VINA RESULT:      -6.1      1.758      3.304
REMARK  Name = 
REMARK  12 active torsions:
REMARK  status: ('A' for Active; 'I' for Inactive)
REMARK    1  A    between atoms: C_1  and  O_2
REMARK    2  A    between atoms: O_2  and  C_3
REMARK    3  A    between atoms: C_3  and  C_4
REMARK    4  A    between atoms: C_4  and  N_5
REMARK    5  A    between atoms: C_6  and  N_7
REMARK    6  A    between atoms: C_8  and  C_9
REMARK    7  A    between atoms: C_9  and  C_11
REMARK    8  A    between atoms: C_11  and  N_12
REMARK    9  A    between atoms: N_12  and  C_13
REMARK   10  A    between atoms: N_12  and  C_14
REMARK   11  A    between atoms: C_18  and  C_19
REMARK   12  A    between atoms: C_20  and  C_21
REMARK                            x       y       z     vdW  Elec       q    Type
REMARK                         _______ _______ _______ _____ _____    ______ ____
ROOT
ATOM      1  N   UNL     1       6.311   4.428  15.099  0.00  0.00    +0.000 N 
ATOM      2  C   UNL     1       5.587   4.354  16.290  0.00  0.00    +0.000 A 
ATOM      3  C   UNL     1       6.013   5.069  17.360  0.00  0.00    +0.000 A 
ATOM      4  C   UNL     1       7.123   6.031  17.183  0.00  0.00    +0.000 A 
ATOM      5  O   UNL     1       7.552   6.723  18.101  0.00  0.00    +0.000 OA
ATOM      6  N   UNL     1       7.644   6.142  15.938  0.00  0.00    +0.000 N 
ATOM      7  C   UNL     1       7.332   5.341  14.888  0.00  0.00    +0.000 A 
ATOM      8  O   UNL     1       7.961   5.452  13.837  0.00  0.00    +0.000 OA
ATOM      9  H   UNL     1       8.402   6.793  15.801  0.00  0.00    +0.000 HD
ENDROOT
BRANCH   2  10
ATOM     10  N   UNL     1       4.456   3.568  16.356  0.00  0.00    +0.000 N 
ATOM     11  H   UNL     1       3.546   3.969  16.180  0.00  0.00    +0.000 HD
ATOM     12  H   UNL     1       4.565   2.586  16.079  0.00  0.00    +0.000 HD
ENDBRANCH   2  10
BRANCH   3  13
ATOM     13  C   UNL     1       5.401   4.834  18.717  0.00  0.00    +0.000 C 
ATOM     14  O   UNL     1       5.540   3.741  19.277  0.00  0.00    +0.000 OA
BRANCH  13  15
ATOM     15  C   UNL     1       4.620   6.000  19.334  0.00  0.00    +0.000 C 
BRANCH  15  16
ATOM     16  N   UNL     1       3.167   6.057  19.026  0.00  0.00    +0.000 N 
ATOM     17  C   UNL     1       2.799   6.925  17.896  0.00  0.00    +0.000 C 
BRANCH  16  18
ATOM     18  C   UNL     1       2.418   4.851  19.167  0.00  0.00    +0.000 A 
ATOM     19  C   UNL     1       1.800   4.267  18.031  0.00  0.00    +0.000 A 
ATOM     20  C   UNL     1       0.988   3.132  18.091  0.00  0.00    +0.000 A 
ATOM     21  C   UNL     1       0.759   2.515  19.305  0.00  0.00    +0.000 A 
ATOM     22  C   UNL     1       1.342   3.025  20.469  0.00  0.00    +0.000 A 
ATOM     23  C   UNL     1       1.053   2.309  21.764  0.00  0.00    +0.000 C 
ATOM     24  C   UNL     1       2.159   4.198  20.416  0.00  0.00    +0.000 A 
ATOM     25  C   UNL     1       2.703   4.703  21.732  0.00  0.00    +0.000 C 
ENDBRANCH  16  18
ENDBRANCH  15  16
ENDBRANCH  13  15
ENDBRANCH   3  13
BRANCH   1  26
ATOM     26  C   UNL     1       6.032   3.498  14.003  0.00  0.00    +0.000 C 
BRANCH  26  27
ATOM     27  C   UNL     1       5.213   4.107  12.870  0.00  0.00    +0.000 C 
BRANCH  27  29
ATOM     28  C   UNL     1       5.881   2.235  11.601  0.00  0.00    +0.000 C 
ATOM     29  O   UNL     1       4.789   3.043  12.013  0.00  0.00    +0.000 OA
ENDBRANCH  27  29
ENDBRANCH  26  27
ENDBRANCH   1  26
TORSDOF 8
ENDMDL
