MODEL 1
REMARK VINA RESULT:      -6.9      0.000      0.000
REMARK  Name = 
REMARK  12 active torsions:
REMARK  status: ('A' for Active; 'I' for Inactive)
REMARK    1  A    between atoms: C_1  and  C_2
REMARK    2  A    between atoms: C_5  and  O_6
REMARK    3  A    between atoms: C_15  and  C_16
REMARK    4  A    between atoms: C_17  and  O_18
REMARK    5  A    between atoms: O_18  and  C_19
REMARK    6  A    between atoms: C_19  and  C_21
REMARK    7  A    between atoms: C_21  and  N_22
REMARK    8  A    between atoms: C_21  and  C_23
REMARK    9  A    between atoms: C_23  and  C_24
REMARK   10  A    between atoms: C_24  and  C_25
REMARK   11  A    between atoms: C_25  and  C_26
REMARK   12  A    between atoms: C_26  and  N_27
REMARK                            x       y       z     vdW  Elec       q    Type
REMARK                         _______ _______ _______ _____ _____    ______ ____
ROOT
ATOM      1  C   UNL     1      -1.078   8.902  20.271  0.00  0.00    +0.000 C 
ATOM      2  C   UNL     1       0.278   9.466  20.760  0.00  0.00    +0.000 C 
ATOM      3  C   UNL     1       0.294   9.442  22.319  0.00  0.00    +0.000 C 
ATOM      4  C   UNL     1      -0.667  10.439  22.957  0.00  0.00    +0.000 C 
ATOM      5  C   UNL     1      -0.448  11.856  22.430  0.00  0.00    +0.000 C 
ATOM      6  C   UNL     1      -0.502  11.911  20.904  0.00  0.00    +0.000 C 
ATOM      7  C   UNL     1       0.513  10.937  20.300  0.00  0.00    +0.000 C 
ATOM      8  C   UNL     1       0.599  11.064  18.775  0.00  0.00    +0.000 C 
ATOM      9  C   UNL     1       1.758  10.231  18.234  0.00  0.00    +0.000 C 
ATOM     10  C   UNL     1       1.674   8.761  18.663  0.00  0.00    +0.000 C 
ATOM     11  C   UNL     1       1.460   8.608  20.207  0.00  0.00    +0.000 C 
ATOM     12  C   UNL     1       1.375   7.119  20.605  0.00  0.00    +0.000 C 
ATOM     13  C   UNL     1       2.595   6.330  20.145  0.00  0.00    +0.000 C 
ATOM     14  C   UNL     1       2.860   6.497  18.645  0.00  0.00    +0.000 C 
ATOM     15  C   UNL     1       1.776   5.735  17.837  0.00  0.00    +0.000 C 
ATOM     16  C   UNL     1       4.269   6.044  18.210  0.00  0.00    +0.000 C 
ATOM     17  C   UNL     1       4.485   6.810  16.877  0.00  0.00    +0.000 C 
ATOM     18  C   UNL     1       3.504   8.004  16.888  0.00  0.00    +0.000 C 
ATOM     19  C   UNL     1       2.959   7.998  18.312  0.00  0.00    +0.000 C 
ENDROOT
BRANCH   5  20
ATOM     20  O   UNL     1      -1.433  12.729  22.977  0.00  0.00    +0.000 OA
ATOM     21  H   UNL     1      -1.100  13.627  22.925  0.00  0.00    +0.000 HD
ENDBRANCH   5  20
BRANCH  16  22
ATOM     22  O   UNL     1       4.374   4.631  18.014  0.00  0.00    +0.000 OA
BRANCH  22  23
ATOM     23  C   UNL     1       5.115   3.942  18.925  0.00  0.00    +0.000 C 
ATOM     24  O   UNL     1       6.300   4.153  19.195  0.00  0.00    +0.000 OA
BRANCH  23  25
ATOM     25  C   UNL     1       4.293   2.804  19.538  0.00  0.00    +0.000 C 
BRANCH  25  26
ATOM     26  N   UNL     1       5.202   1.717  19.977  0.00  0.00    +0.000 NA
ATOM     27  H   UNL     1       6.108   1.865  19.531  0.00  0.00    +0.000 HD
ATOM     28  H   UNL     1       4.867   0.822  19.634  0.00  0.00    +0.000 HD
ENDBRANCH  25  26
BRANCH  25  29
ATOM     29  C   UNL     1       3.279   2.309  18.496  0.00  0.00    +0.000 C 
BRANCH  29  30
ATOM     30  C   UNL     1       2.017   1.723  19.139  0.00  0.00    +0.000 C 
BRANCH  30  31
ATOM     31  C   UNL     1       0.786   2.600  18.931  0.00  0.00    +0.000 C 
BRANCH  31  32
ATOM     32  C   UNL     1       0.517   3.400  20.207  0.00  0.00    +0.000 C 
BRANCH  32  33
ATOM     33  N   UNL     1       1.141   2.757  21.353  0.00  0.00    +0.000 NA
ATOM     34  H   UNL     1       2.063   3.156  21.507  0.00  0.00    +0.000 HD
ATOM     35  H   UNL     1       1.291   1.769  21.139  0.00  0.00    +0.000 HD
ENDBRANCH  32  33
ENDBRANCH  31  32
ENDBRANCH  30  31
ENDBRANCH  29  30
ENDBRANCH  25  29
ENDBRANCH  23  25
ENDBRANCH  22  23
ENDBRANCH  16  22
TORSDOF 10
ENDMDL
MODEL 2
REMARK VINA RESULT:      -6.4      0.884      1.026
REMARK  Name = 
REMARK  12 active torsions:
REMARK  status: ('A' for Active; 'I' for Inactive)
REMARK    1  A    between atoms: C_1  and  C_2
REMARK    2  A    between atoms: C_5  and  O_6
REMARK    3  A    between atoms: C_15  and  C_16
REMARK    4  A    between atoms: C_17  and  O_18
REMARK    5  A    between atoms: O_18  and  C_19
REMARK    6  A    between atoms: C_19  and  C_21
REMARK    7  A    between atoms: C_21  and  N_22
REMARK    8  A    between atoms: C_21  and  C_23
REMARK    9  A    between atoms: C_23  and  C_24
REMARK   10  A    between atoms: C_24  and  C_25
REMARK   11  A    between atoms: C_25  and  C_26
REMARK   12  A    between atoms: C_26  and  N_27
REMARK                            x       y       z     vdW  Elec       q    Type
REMARK                         _______ _______ _______ _____ _____    ______ ____
ROOT
ATOM      1  C   UNL     1      -1.079   8.665  20.424  0.00  0.00    +0.000 C 
ATOM      2  C   UNL     1       0.266   9.293  20.859  0.00  0.00    +0.000 C 
ATOM      3  C   UNL     1       0.333   9.303  22.416  0.00  0.00    +0.000 C 
ATOM      4  C   UNL     1      -0.649  10.274  23.065  0.00  0.00    +0.000 C 
ATOM      5  C   UNL     1      -0.505  11.688  22.503  0.00  0.00    +0.000 C 
ATOM      6  C   UNL     1      -0.608  11.708  20.979  0.00  0.00    +0.000 C 
ATOM      7  C   UNL     1       0.427  10.763  20.362  0.00  0.00    +0.000 C 
ATOM      8  C   UNL     1       0.460  10.861  18.833  0.00  0.00    +0.000 C 
ATOM      9  C   UNL     1       1.635  10.063  18.272  0.00  0.00    +0.000 C 
ATOM     10  C   UNL     1       1.625   8.601  18.733  0.00  0.00    +0.000 C 
ATOM     11  C   UNL     1       1.465   8.473  20.285  0.00  0.00    +0.000 C 
ATOM     12  C   UNL     1       1.454   6.990  20.715  0.00  0.00    +0.000 C 
ATOM     13  C   UNL     1       2.690   6.242  20.232  0.00  0.00    +0.000 C 
ATOM     14  C   UNL     1       2.901   6.387  18.722  0.00  0.00    +0.000 C 
ATOM     15  C   UNL     1       1.825   5.564  17.965  0.00  0.00    +0.000 C 
ATOM     16  C   UNL     1       4.314   5.982  18.251  0.00  0.00    +0.000 C 
ATOM     17  C   UNL     1       4.456   6.727  16.897  0.00  0.00    +0.000 C 
ATOM     18  C   UNL     1       3.428   7.881  16.915  0.00  0.00    +0.000 C 
ATOM     19  C   UNL     1       2.928   7.883  18.356  0.00  0.00    +0.000 C 
ENDROOT
BRANCH   5  20
ATOM     20  O   UNL     1      -1.506  12.531  23.064  0.00  0.00    +0.000 OA
ATOM     21  H   UNL     1      -1.475  13.376  22.611  0.00  0.00    +0.000 HD
ENDBRANCH   5  20
BRANCH  16  22
ATOM     22  O   UNL     1       4.470   4.570  18.080  0.00  0.00    +0.000 OA
BRANCH  22  23
ATOM     23  C   UNL     1       5.068   3.895  19.100  0.00  0.00    +0.000 C 
ATOM     24  O   UNL     1       5.954   4.340  19.835  0.00  0.00    +0.000 OA
BRANCH  23  25
ATOM     25  C   UNL     1       4.540   2.460  19.179  0.00  0.00    +0.000 C 
BRANCH  25  26
ATOM     26  N   UNL     1       3.485   2.264  18.155  0.00  0.00    +0.000 NA
ATOM     27  H   UNL     1       3.807   2.690  17.285  0.00  0.00    +0.000 HD
ATOM     28  H   UNL     1       2.645   2.771  18.418  0.00  0.00    +0.000 HD
ENDBRANCH  25  26
BRANCH  25  29
ATOM     29  C   UNL     1       4.008   2.204  20.597  0.00  0.00    +0.000 C 
BRANCH  29  30
ATOM     30  C   UNL     1       2.899   3.184  20.993  0.00  0.00    +0.000 C 
BRANCH  30  31
ATOM     31  C   UNL     1       1.532   2.515  21.107  0.00  0.00    +0.000 C 
BRANCH  31  32
ATOM     32  C   UNL     1       0.580   3.140  20.086  0.00  0.00    +0.000 C 
BRANCH  32  33
ATOM     33  N   UNL     1       0.457   2.285  18.914  0.00  0.00    +0.000 NA
ATOM     34  H   UNL     1      -0.310   1.632  19.049  0.00  0.00    +0.000 HD
ATOM     35  H   UNL     1       1.303   1.719  18.827  0.00  0.00    +0.000 HD
ENDBRANCH  32  33
ENDBRANCH  31  32
ENDBRANCH  30  31
ENDBRANCH  29  30
ENDBRANCH  25  29
ENDBRANCH  23  25
ENDBRANCH  22  23
ENDBRANCH  16  22
TORSDOF 10
ENDMDL
MODEL 3
REMARK VINA RESULT:      -6.4      4.569      9.359
REMARK  Name = 
REMARK  12 active torsions:
REMARK  status: ('A' for Active; 'I' for Inactive)
REMARK    1  A    between atoms: C_1  and  C_2
REMARK    2  A    between atoms: C_5  and  O_6
REMARK    3  A    between atoms: C_15  and  C_16
REMARK    4  A    between atoms: C_17  and  O_18
REMARK    5  A    between atoms: O_18  and  C_19
REMARK    6  A    between atoms: C_19  and  C_21
REMARK    7  A    between atoms: C_21  and  N_22
REMARK    8  A    between atoms: C_21  and  C_23
REMARK    9  A    between atoms: C_23  and  C_24
REMARK   10  A    between atoms: C_24  and  C_25
REMARK   11  A    between atoms: C_25  and  C_26
REMARK   12  A    between atoms: C_26  and  N_27
REMARK                            x       y       z     vdW  Elec       q    Type
REMARK                         _______ _______ _______ _____ _____    ______ ____
ROOT
ATOM      1  C   UNL     1       1.651   5.268  17.786  0.00  0.00    +0.000 C 
ATOM      2  C   UNL     1       2.748   5.883  18.687  0.00  0.00    +0.000 C 
ATOM      3  C   UNL     1       4.128   5.706  17.984  0.00  0.00    +0.000 C 
ATOM      4  C   UNL     1       4.602   4.258  17.918  0.00  0.00    +0.000 C 
ATOM      5  C   UNL     1       4.603   3.598  19.296  0.00  0.00    +0.000 C 
ATOM      6  C   UNL     1       3.247   3.722  19.989  0.00  0.00    +0.000 C 
ATOM      7  C   UNL     1       2.830   5.192  20.083  0.00  0.00    +0.000 C 
ATOM      8  C   UNL     1       1.546   5.377  20.901  0.00  0.00    +0.000 C 
ATOM      9  C   UNL     1       1.278   6.860  21.145  0.00  0.00    +0.000 C 
ATOM     10  C   UNL     1       1.227   7.669  19.844  0.00  0.00    +0.000 C 
ATOM     11  C   UNL     1       2.471   7.400  18.932  0.00  0.00    +0.000 C 
ATOM     12  C   UNL     1       2.387   8.225  17.630  0.00  0.00    +0.000 C 
ATOM     13  C   UNL     1       2.224   9.715  17.903  0.00  0.00    +0.000 C 
ATOM     14  C   UNL     1       1.042  10.009  18.831  0.00  0.00    +0.000 C 
ATOM     15  C   UNL     1      -0.289   9.769  18.070  0.00  0.00    +0.000 C 
ATOM     16  C   UNL     1       1.065  11.428  19.436  0.00  0.00    +0.000 C 
ATOM     17  C   UNL     1       0.174  11.282  20.699  0.00  0.00    +0.000 C 
ATOM     18  C   UNL     1       0.138   9.777  21.046  0.00  0.00    +0.000 C 
ATOM     19  C   UNL     1       1.192   9.179  20.121  0.00  0.00    +0.000 C 
ENDROOT
BRANCH   5  20
ATOM     20  O   UNL     1       4.954   2.223  19.169  0.00  0.00    +0.000 OA
ATOM     21  H   UNL     1       5.562   2.136  18.432  0.00  0.00    +0.000 HD
ENDBRANCH   5  20
BRANCH  16  22
ATOM     22  O   UNL     1       0.546  12.427  18.553  0.00  0.00    +0.000 OA
BRANCH  22  23
ATOM     23  C   UNL     1       1.245  13.593  18.475  0.00  0.00    +0.000 C 
ATOM     24  O   UNL     1       2.356  13.732  17.956  0.00  0.00    +0.000 OA
BRANCH  23  25
ATOM     25  C   UNL     1       0.494  14.721  19.188  0.00  0.00    +0.000 C 
BRANCH  25  26
ATOM     26  N   UNL     1      -0.945  14.657  18.835  0.00  0.00    +0.000 NA
ATOM     27  H   UNL     1      -1.091  15.227  18.000  0.00  0.00    +0.000 HD
ATOM     28  H   UNL     1      -1.504  15.089  19.565  0.00  0.00    +0.000 HD
ENDBRANCH  25  26
BRANCH  25  29
ATOM     29  C   UNL     1       1.117  16.065  18.785  0.00  0.00    +0.000 C 
BRANCH  29  30
ATOM     30  C   UNL     1       0.711  17.206  19.723  0.00  0.00    +0.000 C 
BRANCH  30  31
ATOM     31  C   UNL     1      -0.246  18.199  19.068  0.00  0.00    +0.000 C 
BRANCH  31  32
ATOM     32  C   UNL     1      -1.561  18.220  19.848  0.00  0.00    +0.000 C 
BRANCH  32  33
ATOM     33  N   UNL     1      -2.489  17.236  19.311  0.00  0.00    +0.000 NA
ATOM     34  H   UNL     1      -1.983  16.575  18.727  0.00  0.00    +0.000 HD
ATOM     35  H   UNL     1      -3.154  17.709  18.696  0.00  0.00    +0.000 HD
ENDBRANCH  32  33
ENDBRANCH  31  32
ENDBRANCH  30  31
ENDBRANCH  29  30
ENDBRANCH  25  29
ENDBRANCH  23  25
ENDBRANCH  22  23
ENDBRANCH  16  22
TORSDOF 10
ENDMDL
MODEL 4
REMARK VINA RESULT:      -6.4      1.948      3.860
REMARK  Name = 
REMARK  12 active torsions:
REMARK  status: ('A' for Active; 'I' for Inactive)
REMARK    1  A    between atoms: C_1  and  C_2
REMARK    2  A    between atoms: C_5  and  O_6
REMARK    3  A    between atoms: C_15  and  C_16
REMARK    4  A    between atoms: C_17  and  O_18
REMARK    5  A    between atoms: O_18  and  C_19
REMARK    6  A    between atoms: C_19  and  C_21
REMARK    7  A    between atoms: C_21  and  N_22
REMARK    8  A    between atoms: C_21  and  C_23
REMARK    9  A    between atoms: C_23  and  C_24
REMARK   10  A    between atoms: C_24  and  C_25
REMARK   11  A    between atoms: C_25  and  C_26
REMARK   12  A    between atoms: C_26  and  N_27
REMARK                            x       y       z     vdW  Elec       q    Type
REMARK                         _______ _______ _______ _____ _____    ______ ____
ROOT
ATOM      1  C   UNL     1       1.537  11.774  19.926  0.00  0.00    +0.000 C 
ATOM      2  C   UNL     1       0.256  10.926  19.745  0.00  0.00    +0.000 C 
ATOM      3  C   UNL     1      -0.644  11.604  18.667  0.00  0.00    +0.000 C 
ATOM      4  C   UNL     1      -1.249  12.929  19.119  0.00  0.00    +0.000 C 
ATOM      5  C   UNL     1      -1.997  12.789  20.444  0.00  0.00    +0.000 C 
ATOM      6  C   UNL     1      -1.120  12.164  21.529  0.00  0.00    +0.000 C 
ATOM      7  C   UNL     1      -0.575  10.812  21.060  0.00  0.00    +0.000 C 
ATOM      8  C   UNL     1       0.189  10.081  22.170  0.00  0.00    +0.000 C 
ATOM      9  C   UNL     1       0.538   8.661  21.732  0.00  0.00    +0.000 C 
ATOM     10  C   UNL     1       1.315   8.629  20.411  0.00  0.00    +0.000 C 
ATOM     11  C   UNL     1       0.617   9.475  19.294  0.00  0.00    +0.000 C 
ATOM     12  C   UNL     1       1.427   9.426  17.981  0.00  0.00    +0.000 C 
ATOM     13  C   UNL     1       1.671   7.999  17.509  0.00  0.00    +0.000 C 
ATOM     14  C   UNL     1       2.312   7.130  18.596  0.00  0.00    +0.000 C 
ATOM     15  C   UNL     1       3.789   7.559  18.801  0.00  0.00    +0.000 C 
ATOM     16  C   UNL     1       2.229   5.616  18.311  0.00  0.00    +0.000 C 
ATOM     17  C   UNL     1       2.391   4.987  19.721  0.00  0.00    +0.000 C 
ATOM     18  C   UNL     1       2.027   6.088  20.742  0.00  0.00    +0.000 C 
ATOM     19  C   UNL     1       1.449   7.198  19.871  0.00  0.00    +0.000 C 
ENDROOT
BRANCH   5  20
ATOM     20  O   UNL     1      -2.455  14.068  20.874  0.00  0.00    +0.000 OA
ATOM     21  H   UNL     1      -3.369  13.981  21.150  0.00  0.00    +0.000 HD
ENDBRANCH   5  20
BRANCH  16  22
ATOM     22  O   UNL     1       3.247   5.151  17.420  0.00  0.00    +0.000 OA
BRANCH  22  23
ATOM     23  C   UNL     1       3.310   3.807  17.215  0.00  0.00    +0.000 C 
ATOM     24  O   UNL     1       2.346   3.064  17.012  0.00  0.00    +0.000 OA
BRANCH  23  25
ATOM     25  C   UNL     1       4.754   3.311  17.338  0.00  0.00    +0.000 C 
BRANCH  25  26
ATOM     26  N   UNL     1       5.097   3.136  18.770  0.00  0.00    +0.000 NA
ATOM     27  H   UNL     1       4.468   2.433  19.162  0.00  0.00    +0.000 HD
ATOM     28  H   UNL     1       4.909   3.993  19.282  0.00  0.00    +0.000 HD
ENDBRANCH  25  26
BRANCH  25  29
ATOM     29  C   UNL     1       5.685   4.320  16.651  0.00  0.00    +0.000 C 
BRANCH  29  30
ATOM     30  C   UNL     1       6.925   4.641  17.492  0.00  0.00    +0.000 C 
BRANCH  30  31
ATOM     31  C   UNL     1       7.029   6.121  17.851  0.00  0.00    +0.000 C 
BRANCH  31  32
ATOM     32  C   UNL     1       8.065   6.298  18.961  0.00  0.00    +0.000 C 
BRANCH  32  33
ATOM     33  N   UNL     1       7.744   5.450  20.099  0.00  0.00    +0.000 NA
ATOM     34  H   UNL     1       7.835   5.985  20.959  0.00  0.00    +0.000 HD
ATOM     35  H   UNL     1       8.433   4.698  20.157  0.00  0.00    +0.000 HD
ENDBRANCH  32  33
ENDBRANCH  31  32
ENDBRANCH  30  31
ENDBRANCH  29  30
ENDBRANCH  25  29
ENDBRANCH  23  25
ENDBRANCH  22  23
ENDBRANCH  16  22
TORSDOF 10
ENDMDL
MODEL 5
REMARK VINA RESULT:      -6.4      4.474      9.036
REMARK  Name = 
REMARK  12 active torsions:
REMARK  status: ('A' for Active; 'I' for Inactive)
REMARK    1  A    between atoms: C_1  and  C_2
REMARK    2  A    between atoms: C_5  and  O_6
REMARK    3  A    between atoms: C_15  and  C_16
REMARK    4  A    between atoms: C_17  and  O_18
REMARK    5  A    between atoms: O_18  and  C_19
REMARK    6  A    between atoms: C_19  and  C_21
REMARK    7  A    between atoms: C_21  and  N_22
REMARK    8  A    between atoms: C_21  and  C_23
REMARK    9  A    between atoms: C_23  and  C_24
REMARK   10  A    between atoms: C_24  and  C_25
REMARK   11  A    between atoms: C_25  and  C_26
REMARK   12  A    between atoms: C_26  and  N_27
REMARK                            x       y       z     vdW  Elec       q    Type
REMARK                         _______ _______ _______ _____ _____    ______ ____
ROOT
ATOM      1  C   UNL     1       1.766   5.261  17.752  0.00  0.00    +0.000 C 
ATOM      2  C   UNL     1       2.805   5.887  18.712  0.00  0.00    +0.000 C 
ATOM      3  C   UNL     1       4.218   5.765  18.066  0.00  0.00    +0.000 C 
ATOM      4  C   UNL     1       4.737   4.333  17.991  0.00  0.00    +0.000 C 
ATOM      5  C   UNL     1       4.699   3.643  19.353  0.00  0.00    +0.000 C 
ATOM      6  C   UNL     1       3.310   3.713  19.989  0.00  0.00    +0.000 C 
ATOM      7  C   UNL     1       2.847   5.169  20.096  0.00  0.00    +0.000 C 
ATOM      8  C   UNL     1       1.525   5.299  20.860  0.00  0.00    +0.000 C 
ATOM      9  C   UNL     1       1.202   6.768  21.124  0.00  0.00    +0.000 C 
ATOM     10  C   UNL     1       1.184   7.603  19.838  0.00  0.00    +0.000 C 
ATOM     11  C   UNL     1       2.473   7.390  18.976  0.00  0.00    +0.000 C 
ATOM     12  C   UNL     1       2.420   8.241  17.689  0.00  0.00    +0.000 C 
ATOM     13  C   UNL     1       2.203   9.719  17.985  0.00  0.00    +0.000 C 
ATOM     14  C   UNL     1       0.973   9.958  18.867  0.00  0.00    +0.000 C 
ATOM     15  C   UNL     1      -0.316   9.698  18.045  0.00  0.00    +0.000 C 
ATOM     16  C   UNL     1       0.929  11.364  19.501  0.00  0.00    +0.000 C 
ATOM     17  C   UNL     1      -0.011  11.166  20.721  0.00  0.00    +0.000 C 
ATOM     18  C   UNL     1      -0.017   9.653  21.035  0.00  0.00    +0.000 C 
ATOM     19  C   UNL     1       1.093   9.105  20.145  0.00  0.00    +0.000 C 
ENDROOT
BRANCH   5  20
ATOM     20  O   UNL     1       5.095   2.282  19.213  0.00  0.00    +0.000 OA
ATOM     21  H   UNL     1       5.396   1.967  20.068  0.00  0.00    +0.000 HD
ENDBRANCH   5  20
BRANCH  16  22
ATOM     22  O   UNL     1       0.420  12.368  18.618  0.00  0.00    +0.000 OA
BRANCH  22  23
ATOM     23  C   UNL     1       0.816  13.648  18.857  0.00  0.00    +0.000 C 
ATOM     24  O   UNL     1       0.120  14.656  18.709  0.00  0.00    +0.000 OA
BRANCH  23  25
ATOM     25  C   UNL     1       2.289  13.687  19.275  0.00  0.00    +0.000 C 
BRANCH  25  26
ATOM     26  N   UNL     1       2.427  14.469  20.528  0.00  0.00    +0.000 NA
ATOM     27  H   UNL     1       2.066  15.408  20.356  0.00  0.00    +0.000 HD
ATOM     28  H   UNL     1       3.409  14.588  20.759  0.00  0.00    +0.000 HD
ENDBRANCH  25  26
BRANCH  25  29
ATOM     29  C   UNL     1       3.114  14.297  18.133  0.00  0.00    +0.000 C 
BRANCH  29  30
ATOM     30  C   UNL     1       4.269  15.164  18.641  0.00  0.00    +0.000 C 
BRANCH  30  31
ATOM     31  C   UNL     1       4.064  16.650  18.357  0.00  0.00    +0.000 C 
BRANCH  31  32
ATOM     32  C   UNL     1       2.643  16.871  17.836  0.00  0.00    +0.000 C 
BRANCH  32  33
ATOM     33  N   UNL     1       2.671  17.559  16.553  0.00  0.00    +0.000 NA
ATOM     34  H   UNL     1       2.249  16.969  15.842  0.00  0.00    +0.000 HD
ATOM     35  H   UNL     1       3.644  17.695  16.272  0.00  0.00    +0.000 HD
ENDBRANCH  32  33
ENDBRANCH  31  32
ENDBRANCH  30  31
ENDBRANCH  29  30
ENDBRANCH  25  29
ENDBRANCH  23  25
ENDBRANCH  22  23
ENDBRANCH  16  22
TORSDOF 10
ENDMDL
MODEL 6
REMARK VINA RESULT:      -6.4      4.170      8.986
REMARK  Name = 
REMARK  12 active torsions:
REMARK  status: ('A' for Active; 'I' for Inactive)
REMARK    1  A    between atoms: C_1  and  C_2
REMARK    2  A    between atoms: C_5  and  O_6
REMARK    3  A    between atoms: C_15  and  C_16
REMARK    4  A    between atoms: C_17  and  O_18
REMARK    5  A    between atoms: O_18  and  C_19
REMARK    6  A    between atoms: C_19  and  C_21
REMARK    7  A    between atoms: C_21  and  N_22
REMARK    8  A    between atoms: C_21  and  C_23
REMARK    9  A    between atoms: C_23  and  C_24
REMARK   10  A    between atoms: C_24  and  C_25
REMARK   11  A    between atoms: C_25  and  C_26
REMARK   12  A    between atoms: C_26  and  N_27
REMARK                            x       y       z     vdW  Elec       q    Type
REMARK                         _______ _______ _______ _____ _____    ______ ____
ROOT
ATOM      1  C   UNL     1       1.703   5.479  17.780  0.00  0.00    +0.000 C 
ATOM      2  C   UNL     1       2.776   6.114  18.696  0.00  0.00    +0.000 C 
ATOM      3  C   UNL     1       4.167   5.974  18.008  0.00  0.00    +0.000 C 
ATOM      4  C   UNL     1       4.676   4.537  17.941  0.00  0.00    +0.000 C 
ATOM      5  C   UNL     1       4.677   3.870  19.315  0.00  0.00    +0.000 C 
ATOM      6  C   UNL     1       3.310   3.959  19.993  0.00  0.00    +0.000 C 
ATOM      7  C   UNL     1       2.858   5.419  20.090  0.00  0.00    +0.000 C 
ATOM      8  C   UNL     1       1.561   5.569  20.893  0.00  0.00    +0.000 C 
ATOM      9  C   UNL     1       1.255   7.044  21.142  0.00  0.00    +0.000 C 
ATOM     10  C   UNL     1       1.200   7.858  19.844  0.00  0.00    +0.000 C 
ATOM     11  C   UNL     1       2.460   7.623  18.946  0.00  0.00    +0.000 C 
ATOM     12  C   UNL     1       2.371   8.453  17.647  0.00  0.00    +0.000 C 
ATOM     13  C   UNL     1       2.171   9.937  17.925  0.00  0.00    +0.000 C 
ATOM     14  C   UNL     1       0.971  10.198  18.841  0.00  0.00    +0.000 C 
ATOM     15  C   UNL     1      -0.345   9.931  18.064  0.00  0.00    +0.000 C 
ATOM     16  C   UNL     1       0.954  11.614  19.453  0.00  0.00    +0.000 C 
ATOM     17  C   UNL     1       0.052  11.442  20.705  0.00  0.00    +0.000 C 
ATOM     18  C   UNL     1       0.048   9.934  21.044  0.00  0.00    +0.000 C 
ATOM     19  C   UNL     1       1.127   9.365  20.128  0.00  0.00    +0.000 C 
ENDROOT
BRANCH   5  20
ATOM     20  O   UNL     1       5.061   2.505  19.185  0.00  0.00    +0.000 OA
ATOM     21  H   UNL     1       4.274   1.963  19.264  0.00  0.00    +0.000 HD
ENDBRANCH   5  20
BRANCH  16  22
ATOM     22  O   UNL     1       0.422  12.606  18.569  0.00  0.00    +0.000 OA
BRANCH  22  23
ATOM     23  C   UNL     1       0.298  13.866  19.071  0.00  0.00    +0.000 C 
ATOM     24  O   UNL     1      -0.764  14.426  19.353  0.00  0.00    +0.000 OA
BRANCH  23  25
ATOM     25  C   UNL     1       1.669  14.540  19.178  0.00  0.00    +0.000 C 
BRANCH  25  26
ATOM     26  N   UNL     1       2.071  14.619  20.603  0.00  0.00    +0.000 NA
ATOM     27  H   UNL     1       3.076  14.444  20.658  0.00  0.00    +0.000 HD
ATOM     28  H   UNL     1       1.631  13.872  21.133  0.00  0.00    +0.000 HD
ENDBRANCH  25  26
BRANCH  25  29
ATOM     29  C   UNL     1       1.589  15.932  18.534  0.00  0.00    +0.000 C 
BRANCH  29  30
ATOM     30  C   UNL     1       2.935  16.391  17.962  0.00  0.00    +0.000 C 
BRANCH  30  31
ATOM     31  C   UNL     1       3.854  15.227  17.603  0.00  0.00    +0.000 C 
BRANCH  31  32
ATOM     32  C   UNL     1       5.215  15.436  18.269  0.00  0.00    +0.000 C 
BRANCH  32  33
ATOM     33  N   UNL     1       5.163  15.046  19.670  0.00  0.00    +0.000 NA
ATOM     34  H   UNL     1       4.250  14.651  19.879  0.00  0.00    +0.000 HD
ATOM     35  H   UNL     1       5.250  15.883  20.250  0.00  0.00    +0.000 HD
ENDBRANCH  32  33
ENDBRANCH  31  32
ENDBRANCH  30  31
ENDBRANCH  29  30
ENDBRANCH  25  29
ENDBRANCH  23  25
ENDBRANCH  22  23
ENDBRANCH  16  22
TORSDOF 10
ENDMDL
MODEL 7
REMARK VINA RESULT:      -6.3      4.330      9.120
REMARK  Name = 
REMARK  12 active torsions:
REMARK  status: ('A' for Active; 'I' for Inactive)
REMARK    1  A    between atoms: C_1  and  C_2
REMARK    2  A    between atoms: C_5  and  O_6
REMARK    3  A    between atoms: C_15  and  C_16
REMARK    4  A    between atoms: C_17  and  O_18
REMARK    5  A    between atoms: O_18  and  C_19
REMARK    6  A    between atoms: C_19  and  C_21
REMARK    7  A    between atoms: C_21  and  N_22
REMARK    8  A    between atoms: C_21  and  C_23
REMARK    9  A    between atoms: C_23  and  C_24
REMARK   10  A    between atoms: C_24  and  C_25
REMARK   11  A    between atoms: C_25  and  C_26
REMARK   12  A    between atoms: C_26  and  N_27
REMARK                            x       y       z     vdW  Elec       q    Type
REMARK                         _______ _______ _______ _____ _____    ______ ____
ROOT
ATOM      1  C   UNL     1       1.725   5.223  17.796  0.00  0.00    +0.000 C 
ATOM      2  C   UNL     1       2.791   5.815  18.748  0.00  0.00    +0.000 C 
ATOM      3  C   UNL     1       4.197   5.628  18.102  0.00  0.00    +0.000 C 
ATOM      4  C   UNL     1       4.656   4.174  18.043  0.00  0.00    +0.000 C 
ATOM      5  C   UNL     1       4.590   3.501  19.413  0.00  0.00    +0.000 C 
ATOM      6  C   UNL     1       3.207   3.637  20.049  0.00  0.00    +0.000 C 
ATOM      7  C   UNL     1       2.805   5.111  20.140  0.00  0.00    +0.000 C 
ATOM      8  C   UNL     1       1.490   5.305  20.904  0.00  0.00    +0.000 C 
ATOM      9  C   UNL     1       1.230   6.789  21.151  0.00  0.00    +0.000 C 
ATOM     10  C   UNL     1       1.244   7.610  19.857  0.00  0.00    +0.000 C 
ATOM     11  C   UNL     1       2.522   7.334  18.996  0.00  0.00    +0.000 C 
ATOM     12  C   UNL     1       2.504   8.172  17.699  0.00  0.00    +0.000 C 
ATOM     13  C   UNL     1       2.349   9.661  17.979  0.00  0.00    +0.000 C 
ATOM     14  C   UNL     1       1.132   9.961  18.860  0.00  0.00    +0.000 C 
ATOM     15  C   UNL     1      -0.168   9.746  18.041  0.00  0.00    +0.000 C 
ATOM     16  C   UNL     1       1.146  11.375  19.478  0.00  0.00    +0.000 C 
ATOM     17  C   UNL     1       0.201  11.229  20.701  0.00  0.00    +0.000 C 
ATOM     18  C   UNL     1       0.132   9.721  21.031  0.00  0.00    +0.000 C 
ATOM     19  C   UNL     1       1.217   9.118  20.146  0.00  0.00    +0.000 C 
ENDROOT
BRANCH   5  20
ATOM     20  O   UNL     1       4.929   2.123  19.288  0.00  0.00    +0.000 OA
ATOM     21  H   UNL     1       5.667   1.942  19.872  0.00  0.00    +0.000 HD
ENDBRANCH   5  20
BRANCH  16  22
ATOM     22  O   UNL     1       0.679  12.389  18.584  0.00  0.00    +0.000 OA
BRANCH  22  23
ATOM     23  C   UNL     1       0.984  13.676  18.908  0.00  0.00    +0.000 C 
ATOM     24  O   UNL     1       0.415  14.355  19.766  0.00  0.00    +0.000 OA
BRANCH  23  25
ATOM     25  C   UNL     1       2.102  14.207  18.006  0.00  0.00    +0.000 C 
BRANCH  25  26
ATOM     26  N   UNL     1       3.115  13.145  17.795  0.00  0.00    +0.000 NA
ATOM     27  H   UNL     1       2.867  12.638  16.944  0.00  0.00    +0.000 HD
ATOM     28  H   UNL     1       3.069  12.464  18.547  0.00  0.00    +0.000 HD
ENDBRANCH  25  26
BRANCH  25  29
ATOM     29  C   UNL     1       2.715  15.454  18.660  0.00  0.00    +0.000 C 
BRANCH  29  30
ATOM     30  C   UNL     1       2.339  16.746  17.927  0.00  0.00    +0.000 C 
BRANCH  30  31
ATOM     31  C   UNL     1       1.435  17.655  18.756  0.00  0.00    +0.000 C 
BRANCH  31  32
ATOM     32  C   UNL     1       0.116  17.868  18.012  0.00  0.00    +0.000 C 
BRANCH  32  33
ATOM     33  N   UNL     1      -0.758  16.718  18.184  0.00  0.00    +0.000 NA
ATOM     34  H   UNL     1      -1.644  17.020  18.580  0.00  0.00    +0.000 HD
ATOM     35  H   UNL     1      -0.342  16.084  18.869  0.00  0.00    +0.000 HD
ENDBRANCH  32  33
ENDBRANCH  31  32
ENDBRANCH  30  31
ENDBRANCH  29  30
ENDBRANCH  25  29
ENDBRANCH  23  25
ENDBRANCH  22  23
ENDBRANCH  16  22
TORSDOF 10
ENDMDL
MODEL 8
REMARK VINA RESULT:      -6.3      2.275      4.086
REMARK  Name = 
REMARK  12 active torsions:
REMARK  status: ('A' for Active; 'I' for Inactive)
REMARK    1  A    between atoms: C_1  and  C_2
REMARK    2  A    between atoms: C_5  and  O_6
REMARK    3  A    between atoms: C_15  and  C_16
REMARK    4  A    between atoms: C_17  and  O_18
REMARK    5  A    between atoms: O_18  and  C_19
REMARK    6  A    between atoms: C_19  and  C_21
REMARK    7  A    between atoms: C_21  and  N_22
REMARK    8  A    between atoms: C_21  and  C_23
REMARK    9  A    between atoms: C_23  and  C_24
REMARK   10  A    between atoms: C_24  and  C_25
REMARK   11  A    between atoms: C_25  and  C_26
REMARK   12  A    between atoms: C_26  and  N_27
REMARK                            x       y       z     vdW  Elec       q    Type
REMARK                         _______ _______ _______ _____ _____    ______ ____
ROOT
ATOM      1  C   UNL     1       1.631  11.222  19.577  0.00  0.00    +0.000 C 
ATOM      2  C   UNL     1       0.400  10.306  19.377  0.00  0.00    +0.000 C 
ATOM      3  C   UNL     1      -0.396  10.804  18.133  0.00  0.00    +0.000 C 
ATOM      4  C   UNL     1      -1.084  12.149  18.344  0.00  0.00    +0.000 C 
ATOM      5  C   UNL     1      -1.965  12.148  19.592  0.00  0.00    +0.000 C 
ATOM      6  C   UNL     1      -1.193  11.702  20.834  0.00  0.00    +0.000 C 
ATOM      7  C   UNL     1      -0.563  10.325  20.603  0.00  0.00    +0.000 C 
ATOM      8  C   UNL     1       0.097   9.773  21.872  0.00  0.00    +0.000 C 
ATOM      9  C   UNL     1       0.529   8.324  21.661  0.00  0.00    +0.000 C 
ATOM     10  C   UNL     1       1.445   8.158  20.443  0.00  0.00    +0.000 C 
ATOM     11  C   UNL     1       0.848   8.826  19.159  0.00  0.00    +0.000 C 
ATOM     12  C   UNL     1       1.795   8.644  17.954  0.00  0.00    +0.000 C 
ATOM     13  C   UNL     1       2.128   7.179  17.700  0.00  0.00    +0.000 C 
ATOM     14  C   UNL     1       2.672   6.483  18.952  0.00  0.00    +0.000 C 
ATOM     15  C   UNL     1       4.106   6.995  19.250  0.00  0.00    +0.000 C 
ATOM     16  C   UNL     1       2.662   4.943  18.859  0.00  0.00    +0.000 C 
ATOM     17  C   UNL     1       2.689   4.505  20.348  0.00  0.00    +0.000 C 
ATOM     18  C   UNL     1       2.187   5.711  21.175  0.00  0.00    +0.000 C 
ATOM     19  C   UNL     1       1.676   6.677  20.111  0.00  0.00    +0.000 C 
ENDROOT
BRANCH   5  20
ATOM     20  O   UNL     1      -2.502  13.450  19.801  0.00  0.00    +0.000 OA
ATOM     21  H   UNL     1      -3.295  13.537  19.270  0.00  0.00    +0.000 HD
ENDBRANCH   5  20
BRANCH  16  22
ATOM     22  O   UNL     1       3.783   4.411  18.146  0.00  0.00    +0.000 OA
BRANCH  22  23
ATOM     23  C   UNL     1       3.528   3.881  16.918  0.00  0.00    +0.000 C 
ATOM     24  O   UNL     1       2.533   3.219  16.614  0.00  0.00    +0.000 OA
BRANCH  23  25
ATOM     25  C   UNL     1       4.691   4.157  15.961  0.00  0.00    +0.000 C 
BRANCH  25  26
ATOM     26  N   UNL     1       5.806   3.225  16.255  0.00  0.00    +0.000 NA
ATOM     27  H   UNL     1       6.588   3.772  16.618  0.00  0.00    +0.000 HD
ATOM     28  H   UNL     1       6.142   2.799  15.395  0.00  0.00    +0.000 HD
ENDBRANCH  25  26
BRANCH  25  29
ATOM     29  C   UNL     1       5.122   5.623  16.113  0.00  0.00    +0.000 C 
BRANCH  29  30
ATOM     30  C   UNL     1       6.635   5.773  16.300  0.00  0.00    +0.000 C 
BRANCH  30  31
ATOM     31  C   UNL     1       7.001   6.798  17.370  0.00  0.00    +0.000 C 
BRANCH  31  32
ATOM     32  C   UNL     1       7.733   6.092  18.513  0.00  0.00    +0.000 C 
BRANCH  32  33
ATOM     33  N   UNL     1       7.590   4.649  18.396  0.00  0.00    +0.000 NA
ATOM     34  H   UNL     1       8.478   4.241  18.116  0.00  0.00    +0.000 HD
ATOM     35  H   UNL     1       6.931   4.441  17.644  0.00  0.00    +0.000 HD
ENDBRANCH  32  33
ENDBRANCH  31  32
ENDBRANCH  30  31
ENDBRANCH  29  30
ENDBRANCH  25  29
ENDBRANCH  23  25
ENDBRANCH  22  23
ENDBRANCH  16  22
TORSDOF 10
ENDMDL
MODEL 9
REMARK VINA RESULT:      -6.3      4.164      8.950
REMARK  Name = 
REMARK  12 active torsions:
REMARK  status: ('A' for Active; 'I' for Inactive)
REMARK    1  A    between atoms: C_1  and  C_2
REMARK    2  A    between atoms: C_5  and  O_6
REMARK    3  A    between atoms: C_15  and  C_16
REMARK    4  A    between atoms: C_17  and  O_18
REMARK    5  A    between atoms: O_18  and  C_19
REMARK    6  A    between atoms: C_19  and  C_21
REMARK    7  A    between atoms: C_21  and  N_22
REMARK    8  A    between atoms: C_21  and  C_23
REMARK    9  A    between atoms: C_23  and  C_24
REMARK   10  A    between atoms: C_24  and  C_25
REMARK   11  A    between atoms: C_25  and  C_26
REMARK   12  A    between atoms: C_26  and  N_27
REMARK                            x       y       z     vdW  Elec       q    Type
REMARK                         _______ _______ _______ _____ _____    ______ ____
ROOT
ATOM      1  C   UNL     1       1.717   5.692  17.724  0.00  0.00    +0.000 C 
ATOM      2  C   UNL     1       2.771   6.344  18.650  0.00  0.00    +0.000 C 
ATOM      3  C   UNL     1       4.159   6.291  17.941  0.00  0.00    +0.000 C 
ATOM      4  C   UNL     1       4.731   4.882  17.819  0.00  0.00    +0.000 C 
ATOM      5  C   UNL     1       4.780   4.170  19.170  0.00  0.00    +0.000 C 
ATOM      6  C   UNL     1       3.419   4.174  19.866  0.00  0.00    +0.000 C 
ATOM      7  C   UNL     1       2.902   5.607  20.018  0.00  0.00    +0.000 C 
ATOM      8  C   UNL     1       1.611   5.671  20.840  0.00  0.00    +0.000 C 
ATOM      9  C   UNL     1       1.241   7.121  21.143  0.00  0.00    +0.000 C 
ATOM     10  C   UNL     1       1.133   7.975  19.875  0.00  0.00    +0.000 C 
ATOM     11  C   UNL     1       2.391   7.828  18.954  0.00  0.00    +0.000 C 
ATOM     12  C   UNL     1       2.248   8.696  17.686  0.00  0.00    +0.000 C 
ATOM     13  C   UNL     1       1.984  10.159  18.016  0.00  0.00    +0.000 C 
ATOM     14  C   UNL     1       0.786  10.334  18.955  0.00  0.00    +0.000 C 
ATOM     15  C   UNL     1      -0.526  10.034  18.184  0.00  0.00    +0.000 C 
ATOM     16  C   UNL     1       0.713  11.727  19.615  0.00  0.00    +0.000 C 
ATOM     17  C   UNL     1      -0.164  11.471  20.870  0.00  0.00    +0.000 C 
ATOM     18  C   UNL     1      -0.096   9.954  21.158  0.00  0.00    +0.000 C 
ATOM     19  C   UNL     1       0.996   9.467  20.211  0.00  0.00    +0.000 C 
ENDROOT
BRANCH   5  20
ATOM     20  O   UNL     1       5.224   2.828  18.989  0.00  0.00    +0.000 OA
ATOM     21  H   UNL     1       4.642   2.251  19.487  0.00  0.00    +0.000 HD
ENDBRANCH   5  20
BRANCH  16  22
ATOM     22  O   UNL     1       0.125  12.723  18.772  0.00  0.00    +0.000 OA
BRANCH  22  23
ATOM     23  C   UNL     1       0.769  13.921  18.703  0.00  0.00    +0.000 C 
ATOM     24  O   UNL     1       1.869  14.116  18.179  0.00  0.00    +0.000 OA
BRANCH  23  25
ATOM     25  C   UNL     1      -0.029  15.004  19.434  0.00  0.00    +0.000 C 
BRANCH  25  26
ATOM     26  N   UNL     1      -0.594  15.955  18.445  0.00  0.00    +0.000 NA
ATOM     27  H   UNL     1      -0.107  16.846  18.551  0.00  0.00    +0.000 HD
ATOM     28  H   UNL     1      -1.569  16.144  18.659  0.00  0.00    +0.000 HD
ENDBRANCH  25  26
BRANCH  25  29
ATOM     29  C   UNL     1       0.895  15.711  20.436  0.00  0.00    +0.000 C 
BRANCH  29  30
ATOM     30  C   UNL     1       1.360  14.781  21.561  0.00  0.00    +0.000 C 
BRANCH  30  31
ATOM     31  C   UNL     1       2.858  14.886  21.835  0.00  0.00    +0.000 C 
BRANCH  31  32
ATOM     32  C   UNL     1       3.514  15.718  20.731  0.00  0.00    +0.000 C 
BRANCH  32  33
ATOM     33  N   UNL     1       4.304  14.868  19.852  0.00  0.00    +0.000 NA
ATOM     34  H   UNL     1       3.871  14.834  18.934  0.00  0.00    +0.000 HD
ATOM     35  H   UNL     1       4.284  13.911  20.212  0.00  0.00    +0.000 HD
ENDBRANCH  32  33
ENDBRANCH  31  32
ENDBRANCH  30  31
ENDBRANCH  29  30
ENDBRANCH  25  29
ENDBRANCH  23  25
ENDBRANCH  22  23
ENDBRANCH  16  22
TORSDOF 10
ENDMDL
