MODEL 1
REMARK VINA RESULT:      -7.5      0.000      0.000
REMARK  Name = 
REMARK  8 active torsions:
REMARK  status: ('A' for Active; 'I' for Inactive)
REMARK    1  A    between atoms: C_1  and  C_2
REMARK    2  A    between atoms: C_2  and  O_3
REMARK    3  A    between atoms: O_3  and  C_4
REMARK    4  A    between atoms: C_4  and  C_6
REMARK    5  A    between atoms: C_7  and  C_8
REMARK    6  A    between atoms: C_13  and  C_14
REMARK    7  A    between atoms: C_22  and  O_23
REMARK    8  A    between atoms: O_23  and  C_24
REMARK                            x       y       z     vdW  Elec       q    Type
REMARK                         _______ _______ _______ _____ _____    ______ ____
ROOT
ATOM      1  C   UNL     1       3.583   5.074  18.772  0.00  0.00    +0.000 C 
ATOM      2  C   UNL     1       2.686   5.422  19.723  0.00  0.00    +0.000 C 
ATOM      3  C   UNL     1       2.263   4.650  20.947  0.00  0.00    +0.000 C 
ATOM      4  N   UNL     1       2.031   6.635  19.604  0.00  0.00    +0.000 N 
ATOM      5  C   UNL     1       2.320   7.596  18.688  0.00  0.00    +0.000 C 
ATOM      6  S   UNL     1       1.560   9.071  18.699  0.00  0.00    +0.000 S 
ATOM      7  N   UNL     1       3.294   7.312  17.795  0.00  0.00    +0.000 N 
ATOM      8  C   UNL     1       3.805   5.970  17.571  0.00  0.00    +0.000 C 
ATOM      9  H   UNL     1       1.339   6.891  20.301  0.00  0.00    +0.000 HD
ATOM     10  H   UNL     1       3.487   8.031  17.109  0.00  0.00    +0.000 HD
ENDROOT
BRANCH   8  11
ATOM     11  C   UNL     1       5.223   6.144  17.053  0.00  0.00    +0.000 A 
ATOM     12  C   UNL     1       6.089   6.902  17.748  0.00  0.00    +0.000 A 
ATOM     13  C   UNL     1       7.488   7.125  17.362  0.00  0.00    +0.000 A 
ATOM     14  O   UNL     1       8.225   7.812  18.058  0.00  0.00    +0.000 OA
ATOM     15  O   UNL     1       7.913   6.526  16.194  0.00  0.00    +0.000 OA
ATOM     16  C   UNL     1       7.041   5.722  15.436  0.00  0.00    +0.000 A 
ATOM     17  C   UNL     1       7.588   5.155  14.286  0.00  0.00    +0.000 A 
ATOM     18  C   UNL     1       6.797   4.341  13.479  0.00  0.00    +0.000 A 
ATOM     19  C   UNL     1       5.472   4.097  13.831  0.00  0.00    +0.000 A 
ATOM     20  C   UNL     1       4.945   4.672  14.998  0.00  0.00    +0.000 A 
ATOM     21  C   UNL     1       5.717   5.502  15.821  0.00  0.00    +0.000 A 
BRANCH  19  22
ATOM     22  O   UNL     1       4.585   3.321  13.135  0.00  0.00    +0.000 OA
ATOM     23  C   UNL     1       4.761   3.251  11.726  0.00  0.00    +0.000 C 
ENDBRANCH  19  22
ENDBRANCH   8  11
BRANCH   1  24
ATOM     24  C   UNL     1       4.334   3.789  18.852  0.00  0.00    +0.000 C 
ATOM     25  O   UNL     1       5.313   3.597  19.556  0.00  0.00    +0.000 OA
BRANCH  24  26
ATOM     26  O   UNL     1       3.801   2.859  18.018  0.00  0.00    +0.000 OA
BRANCH  26  28
ATOM     27  C   UNL     1       1.566   2.033  18.580  0.00  0.00    +0.000 C 
ATOM     28  C   UNL     1       3.067   1.803  18.661  0.00  0.00    +0.000 C 
ENDBRANCH  26  28
ENDBRANCH  24  26
ENDBRANCH   1  24
TORSDOF 5
ENDMDL
MODEL 2
REMARK VINA RESULT:      -7.0      1.936      2.305
REMARK  Name = 
REMARK  8 active torsions:
REMARK  status: ('A' for Active; 'I' for Inactive)
REMARK    1  A    between atoms: C_1  and  C_2
REMARK    2  A    between atoms: C_2  and  O_3
REMARK    3  A    between atoms: O_3  and  C_4
REMARK    4  A    between atoms: C_4  and  C_6
REMARK    5  A    between atoms: C_7  and  C_8
REMARK    6  A    between atoms: C_13  and  C_14
REMARK    7  A    between atoms: C_22  and  O_23
REMARK    8  A    between atoms: O_23  and  C_24
REMARK                            x       y       z     vdW  Elec       q    Type
REMARK                         _______ _______ _______ _____ _____    ______ ____
ROOT
ATOM      1  C   UNL     1       3.264   3.551  19.684  0.00  0.00    +0.000 C 
ATOM      2  C   UNL     1       2.284   3.707  20.602  0.00  0.00    +0.000 C 
ATOM      3  C   UNL     1       1.689   2.678  21.531  0.00  0.00    +0.000 C 
ATOM      4  N   UNL     1       1.705   4.955  20.748  0.00  0.00    +0.000 N 
ATOM      5  C   UNL     1       2.141   6.096  20.154  0.00  0.00    +0.000 C 
ATOM      6  S   UNL     1       1.456   7.571  20.484  0.00  0.00    +0.000 S 
ATOM      7  N   UNL     1       3.194   5.981  19.315  0.00  0.00    +0.000 N 
ATOM      8  C   UNL     1       3.662   4.708  18.792  0.00  0.00    +0.000 C 
ATOM      9  H   UNL     1       0.952   5.074  21.419  0.00  0.00    +0.000 HD
ATOM     10  H   UNL     1       3.497   6.836  18.867  0.00  0.00    +0.000 HD
ENDROOT
BRANCH   8  11
ATOM     11  C   UNL     1       5.136   4.903  18.477  0.00  0.00    +0.000 A 
ATOM     12  C   UNL     1       5.990   5.194  19.475  0.00  0.00    +0.000 A 
ATOM     13  C   UNL     1       7.435   5.381  19.299  0.00  0.00    +0.000 A 
ATOM     14  O   UNL     1       8.154   5.624  20.261  0.00  0.00    +0.000 OA
ATOM     15  O   UNL     1       7.925   5.268  18.015  0.00  0.00    +0.000 OA
ATOM     16  C   UNL     1       7.069   4.962  16.940  0.00  0.00    +0.000 A 
ATOM     17  C   UNL     1       7.679   4.855  15.692  0.00  0.00    +0.000 A 
ATOM     18  C   UNL     1       6.908   4.549  14.573  0.00  0.00    +0.000 A 
ATOM     19  C   UNL     1       5.537   4.348  14.713  0.00  0.00    +0.000 A 
ATOM     20  C   UNL     1       4.945   4.454  15.982  0.00  0.00    +0.000 A 
ATOM     21  C   UNL     1       5.697   4.769  17.121  0.00  0.00    +0.000 A 
BRANCH  19  22
ATOM     22  O   UNL     1       4.661   4.045  13.706  0.00  0.00    +0.000 OA
ATOM     23  C   UNL     1       5.214   3.489  12.520  0.00  0.00    +0.000 C 
ENDBRANCH  19  22
ENDBRANCH   8  11
BRANCH   1  24
ATOM     24  C   UNL     1       3.940   2.236  19.491  0.00  0.00    +0.000 C 
ATOM     25  O   UNL     1       3.690   1.450  18.591  0.00  0.00    +0.000 OA
BRANCH  24  26
ATOM     26  O   UNL     1       4.859   2.013  20.466  0.00  0.00    +0.000 OA
BRANCH  26  28
ATOM     27  C   UNL     1       5.935   0.429  21.990  0.00  0.00    +0.000 C 
ATOM     28  C   UNL     1       5.233   0.638  20.658  0.00  0.00    +0.000 C 
ENDBRANCH  26  28
ENDBRANCH  24  26
ENDBRANCH   1  24
TORSDOF 5
ENDMDL
MODEL 3
REMARK VINA RESULT:      -6.9      1.528      1.663
REMARK  Name = 
REMARK  8 active torsions:
REMARK  status: ('A' for Active; 'I' for Inactive)
REMARK    1  A    between atoms: C_1  and  C_2
REMARK    2  A    between atoms: C_2  and  O_3
REMARK    3  A    between atoms: O_3  and  C_4
REMARK    4  A    between atoms: C_4  and  C_6
REMARK    5  A    between atoms: C_7  and  C_8
REMARK    6  A    between atoms: C_13  and  C_14
REMARK    7  A    between atoms: C_22  and  O_23
REMARK    8  A    between atoms: O_23  and  C_24
REMARK                            x       y       z     vdW  Elec       q    Type
REMARK                         _______ _______ _______ _____ _____    ______ ____
ROOT
ATOM      1  C   UNL     1       3.329   3.787  19.744  0.00  0.00    +0.000 C 
ATOM      2  C   UNL     1       2.378   4.042  20.671  0.00  0.00    +0.000 C 
ATOM      3  C   UNL     1       1.780   3.105  21.691  0.00  0.00    +0.000 C 
ATOM      4  N   UNL     1       1.837   5.314  20.733  0.00  0.00    +0.000 N 
ATOM      5  C   UNL     1       2.287   6.392  20.040  0.00  0.00    +0.000 C 
ATOM      6  S   UNL     1       1.650   7.907  20.270  0.00  0.00    +0.000 S 
ATOM      7  N   UNL     1       3.314   6.182  19.188  0.00  0.00    +0.000 N 
ATOM      8  C   UNL     1       3.734   4.860  18.754  0.00  0.00    +0.000 C 
ATOM      9  H   UNL     1       1.104   5.506  21.409  0.00  0.00    +0.000 HD
ATOM     10  H   UNL     1       3.628   6.991  18.667  0.00  0.00    +0.000 HD
ENDROOT
BRANCH   8  11
ATOM     11  C   UNL     1       5.204   4.988  18.390  0.00  0.00    +0.000 A 
ATOM     12  C   UNL     1       6.099   5.272  19.353  0.00  0.00    +0.000 A 
ATOM     13  C   UNL     1       7.544   5.397  19.128  0.00  0.00    +0.000 A 
ATOM     14  O   UNL     1       8.302   5.638  20.061  0.00  0.00    +0.000 OA
ATOM     15  O   UNL     1       7.988   5.229  17.833  0.00  0.00    +0.000 OA
ATOM     16  C   UNL     1       7.088   4.927  16.794  0.00  0.00    +0.000 A 
ATOM     17  C   UNL     1       7.655   4.761  15.532  0.00  0.00    +0.000 A 
ATOM     18  C   UNL     1       6.837   4.455  14.446  0.00  0.00    +0.000 A 
ATOM     19  C   UNL     1       5.465   4.313  14.633  0.00  0.00    +0.000 A 
ATOM     20  C   UNL     1       4.917   4.477  15.915  0.00  0.00    +0.000 A 
ATOM     21  C   UNL     1       5.716   4.793  17.022  0.00  0.00    +0.000 A 
BRANCH  19  22
ATOM     22  O   UNL     1       4.547   4.016  13.662  0.00  0.00    +0.000 OA
ATOM     23  C   UNL     1       5.055   3.544  12.421  0.00  0.00    +0.000 C 
ENDBRANCH  19  22
ENDBRANCH   8  11
BRANCH   1  24
ATOM     24  C   UNL     1       3.964   2.442  19.638  0.00  0.00    +0.000 C 
ATOM     25  O   UNL     1       4.952   2.088  20.261  0.00  0.00    +0.000 OA
BRANCH  24  26
ATOM     26  O   UNL     1       3.311   1.664  18.737  0.00  0.00    +0.000 OA
BRANCH  26  28
ATOM     27  C   UNL     1       0.902   1.993  18.445  0.00  0.00    +0.000 C 
ATOM     28  C   UNL     1       2.302   2.335  17.961  0.00  0.00    +0.000 C 
ENDBRANCH  26  28
ENDBRANCH  24  26
ENDBRANCH   1  24
TORSDOF 5
ENDMDL
MODEL 4
REMARK VINA RESULT:      -6.5      0.826      1.076
REMARK  Name = 
REMARK  8 active torsions:
REMARK  status: ('A' for Active; 'I' for Inactive)
REMARK    1  A    between atoms: C_1  and  C_2
REMARK    2  A    between atoms: C_2  and  O_3
REMARK    3  A    between atoms: O_3  and  C_4
REMARK    4  A    between atoms: C_4  and  C_6
REMARK    5  A    between atoms: C_7  and  C_8
REMARK    6  A    between atoms: C_13  and  C_14
REMARK    7  A    between atoms: C_22  and  O_23
REMARK    8  A    between atoms: O_23  and  C_24
REMARK                            x       y       z     vdW  Elec       q    Type
REMARK                         _______ _______ _______ _____ _____    ______ ____
ROOT
ATOM      1  C   UNL     1       3.122   5.198  18.389  0.00  0.00    +0.000 C 
ATOM      2  C   UNL     1       2.174   5.606  19.263  0.00  0.00    +0.000 C 
ATOM      3  C   UNL     1       1.498   4.819  20.357  0.00  0.00    +0.000 C 
ATOM      4  N   UNL     1       1.719   6.911  19.185  0.00  0.00    +0.000 N 
ATOM      5  C   UNL     1       2.253   7.882  18.399  0.00  0.00    +0.000 C 
ATOM      6  S   UNL     1       1.715   9.451  18.462  0.00  0.00    +0.000 S 
ATOM      7  N   UNL     1       3.278   7.520  17.596  0.00  0.00    +0.000 N 
ATOM      8  C   UNL     1       3.615   6.136  17.307  0.00  0.00    +0.000 C 
ATOM      9  H   UNL     1       0.990   7.218  19.822  0.00  0.00    +0.000 HD
ATOM     10  H   UNL     1       3.654   8.250  17.005  0.00  0.00    +0.000 HD
ENDROOT
BRANCH   8  11
ATOM     11  C   UNL     1       5.096   6.131  16.967  0.00  0.00    +0.000 A 
ATOM     12  C   UNL     1       5.964   6.743  17.792  0.00  0.00    +0.000 A 
ATOM     13  C   UNL     1       7.417   6.784  17.583  0.00  0.00    +0.000 A 
ATOM     14  O   UNL     1       8.148   7.344  18.391  0.00  0.00    +0.000 OA
ATOM     15  O   UNL     1       7.898   6.166  16.447  0.00  0.00    +0.000 OA
ATOM     16  C   UNL     1       7.027   5.511  15.557  0.00  0.00    +0.000 A 
ATOM     17  C   UNL     1       7.630   4.907  14.455  0.00  0.00    +0.000 A 
ATOM     18  C   UNL     1       6.843   4.231  13.525  0.00  0.00    +0.000 A 
ATOM     19  C   UNL     1       5.464   4.160  13.708  0.00  0.00    +0.000 A 
ATOM     20  C   UNL     1       4.880   4.769  14.830  0.00  0.00    +0.000 A 
ATOM     21  C   UNL     1       5.648   5.462  15.775  0.00  0.00    +0.000 A 
BRANCH  19  22
ATOM     22  O   UNL     1       4.574   3.533  12.879  0.00  0.00    +0.000 OA
ATOM     23  C   UNL     1       5.111   2.882  11.736  0.00  0.00    +0.000 C 
ENDBRANCH  19  22
ENDBRANCH   8  11
BRANCH   1  24
ATOM     24  C   UNL     1       3.667   3.811  18.433  0.00  0.00    +0.000 C 
ATOM     25  O   UNL     1       3.384   2.926  17.641  0.00  0.00    +0.000 OA
BRANCH  24  26
ATOM     26  O   UNL     1       4.506   3.651  19.489  0.00  0.00    +0.000 OA
BRANCH  26  28
ATOM     27  C   UNL     1       3.359   2.252  21.139  0.00  0.00    +0.000 C 
ATOM     28  C   UNL     1       4.475   2.354  20.111  0.00  0.00    +0.000 C 
ENDBRANCH  26  28
ENDBRANCH  24  26
ENDBRANCH   1  24
TORSDOF 5
ENDMDL
MODEL 5
REMARK VINA RESULT:      -6.2      7.795     10.076
REMARK  Name = 
REMARK  8 active torsions:
REMARK  status: ('A' for Active; 'I' for Inactive)
REMARK    1  A    between atoms: C_1  and  C_2
REMARK    2  A    between atoms: C_2  and  O_3
REMARK    3  A    between atoms: O_3  and  C_4
REMARK    4  A    between atoms: C_4  and  C_6
REMARK    5  A    between atoms: C_7  and  C_8
REMARK    6  A    between atoms: C_13  and  C_14
REMARK    7  A    between atoms: C_22  and  O_23
REMARK    8  A    between atoms: O_23  and  C_24
REMARK                            x       y       z     vdW  Elec       q    Type
REMARK                         _______ _______ _______ _____ _____    ______ ____
ROOT
ATOM      1  C   UNL     1      -2.366  12.596  22.157  0.00  0.00    +0.000 C 
ATOM      2  C   UNL     1      -3.594  12.630  22.721  0.00  0.00    +0.000 C 
ATOM      3  C   UNL     1      -3.960  12.703  24.182  0.00  0.00    +0.000 C 
ATOM      4  N   UNL     1      -4.704  12.588  21.895  0.00  0.00    +0.000 N 
ATOM      5  C   UNL     1      -4.676  12.670  20.539  0.00  0.00    +0.000 C 
ATOM      6  S   UNL     1      -6.068  12.731  19.639  0.00  0.00    +0.000 S 
ATOM      7  N   UNL     1      -3.458  12.749  19.959  0.00  0.00    +0.000 N 
ATOM      8  C   UNL     1      -2.220  12.442  20.657  0.00  0.00    +0.000 C 
ATOM      9  H   UNL     1      -5.629  12.589  22.312  0.00  0.00    +0.000 HD
ATOM     10  H   UNL     1      -3.453  12.793  18.948  0.00  0.00    +0.000 HD
ENDROOT
BRANCH   8  11
ATOM     11  C   UNL     1      -1.136  13.238  19.951  0.00  0.00    +0.000 A 
ATOM     12  C   UNL     1      -1.226  14.579  19.907  0.00  0.00    +0.000 A 
ATOM     13  C   UNL     1      -0.231  15.456  19.276  0.00  0.00    +0.000 A 
ATOM     14  O   UNL     1      -0.371  16.673  19.294  0.00  0.00    +0.000 OA
ATOM     15  O   UNL     1       0.848  14.840  18.678  0.00  0.00    +0.000 OA
ATOM     16  C   UNL     1       0.986  13.439  18.703  0.00  0.00    +0.000 A 
ATOM     17  C   UNL     1       2.127  12.932  18.082  0.00  0.00    +0.000 A 
ATOM     18  C   UNL     1       2.346  11.557  18.064  0.00  0.00    +0.000 A 
ATOM     19  C   UNL     1       1.427  10.703  18.671  0.00  0.00    +0.000 A 
ATOM     20  C   UNL     1       0.290  11.237  19.297  0.00  0.00    +0.000 A 
ATOM     21  C   UNL     1       0.042  12.615  19.321  0.00  0.00    +0.000 A 
BRANCH  19  22
ATOM     22  O   UNL     1       1.515   9.339  18.728  0.00  0.00    +0.000 OA
ATOM     23  C   UNL     1       2.335   8.706  17.755  0.00  0.00    +0.000 C 
ENDBRANCH  19  22
ENDBRANCH   8  11
BRANCH   1  24
ATOM     24  C   UNL     1      -1.131  12.657  22.991  0.00  0.00    +0.000 C 
ATOM     25  O   UNL     1      -0.841  13.577  23.739  0.00  0.00    +0.000 OA
BRANCH  24  26
ATOM     26  O   UNL     1      -0.354  11.561  22.792  0.00  0.00    +0.000 OA
BRANCH  26  28
ATOM     27  C   UNL     1      -0.356   9.140  22.427  0.00  0.00    +0.000 C 
ATOM     28  C   UNL     1      -0.934  10.311  23.205  0.00  0.00    +0.000 C 
ENDBRANCH  26  28
ENDBRANCH  24  26
ENDBRANCH   1  24
TORSDOF 5
ENDMDL
MODEL 6
REMARK VINA RESULT:      -5.8      8.602     10.926
REMARK  Name = 
REMARK  8 active torsions:
REMARK  status: ('A' for Active; 'I' for Inactive)
REMARK    1  A    between atoms: C_1  and  C_2
REMARK    2  A    between atoms: C_2  and  O_3
REMARK    3  A    between atoms: O_3  and  C_4
REMARK    4  A    between atoms: C_4  and  C_6
REMARK    5  A    between atoms: C_7  and  C_8
REMARK    6  A    between atoms: C_13  and  C_14
REMARK    7  A    between atoms: C_22  and  O_23
REMARK    8  A    between atoms: O_23  and  C_24
REMARK                            x       y       z     vdW  Elec       q    Type
REMARK                         _______ _______ _______ _____ _____    ______ ____
ROOT
ATOM      1  C   UNL     1      -1.951  13.684  22.193  0.00  0.00    +0.000 C 
ATOM      2  C   UNL     1      -1.669  14.796  22.909  0.00  0.00    +0.000 C 
ATOM      3  C   UNL     1      -1.512  14.942  24.402  0.00  0.00    +0.000 C 
ATOM      4  N   UNL     1      -1.498  15.993  22.236  0.00  0.00    +0.000 N 
ATOM      5  C   UNL     1      -1.435  16.131  20.886  0.00  0.00    +0.000 C 
ATOM      6  S   UNL     1      -1.108  17.592  20.171  0.00  0.00    +0.000 S 
ATOM      7  N   UNL     1      -1.604  15.010  20.151  0.00  0.00    +0.000 N 
ATOM      8  C   UNL     1      -2.144  13.774  20.693  0.00  0.00    +0.000 C 
ATOM      9  H   UNL     1      -1.310  16.836  22.769  0.00  0.00    +0.000 HD
ATOM     10  H   UNL     1      -1.571  15.132  19.147  0.00  0.00    +0.000 HD
ENDROOT
BRANCH   8  11
ATOM     11  C   UNL     1      -1.584  12.659  19.826  0.00  0.00    +0.000 A 
ATOM     12  C   UNL     1      -0.260  12.427  19.824  0.00  0.00    +0.000 A 
ATOM     13  C   UNL     1       0.394  11.367  19.047  0.00  0.00    +0.000 A 
ATOM     14  O   UNL     1       1.606  11.203  19.112  0.00  0.00    +0.000 OA
ATOM     15  O   UNL     1      -0.421  10.581  18.259  0.00  0.00    +0.000 OA
ATOM     16  C   UNL     1      -1.814  10.786  18.232  0.00  0.00    +0.000 A 
ATOM     17  C   UNL     1      -2.537   9.919  17.414  0.00  0.00    +0.000 A 
ATOM     18  C   UNL     1      -3.921  10.047  17.331  0.00  0.00    +0.000 A 
ATOM     19  C   UNL     1      -4.570  11.033  18.071  0.00  0.00    +0.000 A 
ATOM     20  C   UNL     1      -3.822  11.888  18.895  0.00  0.00    +0.000 A 
ATOM     21  C   UNL     1      -2.428  11.787  18.988  0.00  0.00    +0.000 A 
BRANCH  19  22
ATOM     22  O   UNL     1      -5.917  11.271  18.086  0.00  0.00    +0.000 OA
ATOM     23  C   UNL     1      -6.371  12.440  17.417  0.00  0.00    +0.000 C 
ENDBRANCH  19  22
ENDBRANCH   8  11
BRANCH   1  24
ATOM     24  C   UNL     1      -2.128  12.362  22.857  0.00  0.00    +0.000 C 
ATOM     25  O   UNL     1      -3.205  11.870  23.154  0.00  0.00    +0.000 OA
BRANCH  24  26
ATOM     26  O   UNL     1      -0.927  11.781  23.113  0.00  0.00    +0.000 OA
BRANCH  26  28
ATOM     27  C   UNL     1       0.231   9.741  22.409  0.00  0.00    +0.000 C 
ATOM     28  C   UNL     1      -0.938  10.344  23.173  0.00  0.00    +0.000 C 
ENDBRANCH  26  28
ENDBRANCH  24  26
ENDBRANCH   1  24
TORSDOF 5
ENDMDL
MODEL 7
REMARK VINA RESULT:      -5.8      2.970      6.367
REMARK  Name = 
REMARK  8 active torsions:
REMARK  status: ('A' for Active; 'I' for Inactive)
REMARK    1  A    between atoms: C_1  and  C_2
REMARK    2  A    between atoms: C_2  and  O_3
REMARK    3  A    between atoms: O_3  and  C_4
REMARK    4  A    between atoms: C_4  and  C_6
REMARK    5  A    between atoms: C_7  and  C_8
REMARK    6  A    between atoms: C_13  and  C_14
REMARK    7  A    between atoms: C_22  and  O_23
REMARK    8  A    between atoms: O_23  and  C_24
REMARK                            x       y       z     vdW  Elec       q    Type
REMARK                         _______ _______ _______ _____ _____    ______ ____
ROOT
ATOM      1  C   UNL     1       6.480   5.432  15.359  0.00  0.00    +0.000 C 
ATOM      2  C   UNL     1       7.251   5.110  14.295  0.00  0.00    +0.000 C 
ATOM      3  C   UNL     1       8.714   5.397  14.070  0.00  0.00    +0.000 C 
ATOM      4  N   UNL     1       6.670   4.434  13.237  0.00  0.00    +0.000 N 
ATOM      5  C   UNL     1       5.414   3.917  13.230  0.00  0.00    +0.000 C 
ATOM      6  S   UNL     1       4.846   3.016  11.959  0.00  0.00    +0.000 S 
ATOM      7  N   UNL     1       4.662   4.132  14.333  0.00  0.00    +0.000 N 
ATOM      8  C   UNL     1       4.999   5.115  15.349  0.00  0.00    +0.000 C 
ATOM      9  H   UNL     1       7.237   4.211  12.424  0.00  0.00    +0.000 HD
ATOM     10  H   UNL     1       3.723   3.756  14.306  0.00  0.00    +0.000 HD
ENDROOT
BRANCH   8  11
ATOM     11  C   UNL     1       4.358   4.621  16.635  0.00  0.00    +0.000 A 
ATOM     12  C   UNL     1       4.460   3.321  16.965  0.00  0.00    +0.000 A 
ATOM     13  C   UNL     1       3.904   2.732  18.190  0.00  0.00    +0.000 A 
ATOM     14  O   UNL     1       4.056   1.541  18.433  0.00  0.00    +0.000 OA
ATOM     15  O   UNL     1       3.218   3.582  19.032  0.00  0.00    +0.000 OA
ATOM     16  C   UNL     1       3.089   4.950  18.729  0.00  0.00    +0.000 A 
ATOM     17  C   UNL     1       2.391   5.714  19.663  0.00  0.00    +0.000 A 
ATOM     18  C   UNL     1       2.220   7.079  19.445  0.00  0.00    +0.000 A 
ATOM     19  C   UNL     1       2.753   7.668  18.301  0.00  0.00    +0.000 A 
ATOM     20  C   UNL     1       3.458   6.881  17.378  0.00  0.00    +0.000 A 
ATOM     21  C   UNL     1       3.636   5.505  17.569  0.00  0.00    +0.000 A 
BRANCH  19  22
ATOM     22  O   UNL     1       2.661   8.990  17.960  0.00  0.00    +0.000 OA
ATOM     23  C   UNL     1       1.496   9.685  18.387  0.00  0.00    +0.000 C 
ENDBRANCH  19  22
ENDBRANCH   8  11
BRANCH   1  24
ATOM     24  C   UNL     1       7.049   6.144  16.538  0.00  0.00    +0.000 C 
ATOM     25  O   UNL     1       6.962   7.346  16.735  0.00  0.00    +0.000 OA
BRANCH  24  26
ATOM     26  O   UNL     1       7.702   5.282  17.360  0.00  0.00    +0.000 OA
BRANCH  26  28
ATOM     27  C   UNL     1       6.592   5.333  19.541  0.00  0.00    +0.000 C 
ATOM     28  C   UNL     1       7.822   5.706  18.729  0.00  0.00    +0.000 C 
ENDBRANCH  26  28
ENDBRANCH  24  26
ENDBRANCH   1  24
TORSDOF 5
ENDMDL
MODEL 8
REMARK VINA RESULT:      -5.7      9.407     11.870
REMARK  Name = 
REMARK  8 active torsions:
REMARK  status: ('A' for Active; 'I' for Inactive)
REMARK    1  A    between atoms: C_1  and  C_2
REMARK    2  A    between atoms: C_2  and  O_3
REMARK    3  A    between atoms: O_3  and  C_4
REMARK    4  A    between atoms: C_4  and  C_6
REMARK    5  A    between atoms: C_7  and  C_8
REMARK    6  A    between atoms: C_13  and  C_14
REMARK    7  A    between atoms: C_22  and  O_23
REMARK    8  A    between atoms: O_23  and  C_24
REMARK                            x       y       z     vdW  Elec       q    Type
REMARK                         _______ _______ _______ _____ _____    ______ ____
ROOT
ATOM      1  C   UNL     1      -3.574  14.070  22.238  0.00  0.00    +0.000 C 
ATOM      2  C   UNL     1      -3.686  15.203  22.969  0.00  0.00    +0.000 C 
ATOM      3  C   UNL     1      -4.257  15.379  24.354  0.00  0.00    +0.000 C 
ATOM      4  N   UNL     1      -3.242  16.393  22.420  0.00  0.00    +0.000 N 
ATOM      5  C   UNL     1      -2.551  16.510  21.256  0.00  0.00    +0.000 C 
ATOM      6  S   UNL     1      -1.953  17.968  20.737  0.00  0.00    +0.000 S 
ATOM      7  N   UNL     1      -2.330  15.371  20.563  0.00  0.00    +0.000 N 
ATOM      8  C   UNL     1      -3.037  14.128  20.823  0.00  0.00    +0.000 C 
ATOM      9  H   UNL     1      -3.345  17.251  22.953  0.00  0.00    +0.000 HD
ATOM     10  H   UNL     1      -1.828  15.476  19.690  0.00  0.00    +0.000 HD
ENDROOT
BRANCH   8  11
ATOM     11  C   UNL     1      -2.112  13.016  20.357  0.00  0.00    +0.000 A 
ATOM     12  C   UNL     1      -0.876  12.925  20.879  0.00  0.00    +0.000 A 
ATOM     13  C   UNL     1       0.097  11.885  20.526  0.00  0.00    +0.000 A 
ATOM     14  O   UNL     1       1.200  11.854  21.060  0.00  0.00    +0.000 OA
ATOM     15  O   UNL     1      -0.296  10.962  19.579  0.00  0.00    +0.000 OA
ATOM     16  C   UNL     1      -1.581  11.016  19.008  0.00  0.00    +0.000 A 
ATOM     17  C   UNL     1      -1.872  10.021  18.076  0.00  0.00    +0.000 A 
ATOM     18  C   UNL     1      -3.124   9.996  17.466  0.00  0.00    +0.000 A 
ATOM     19  C   UNL     1      -4.073  10.961  17.795  0.00  0.00    +0.000 A 
ATOM     20  C   UNL     1      -3.760  11.949  18.741  0.00  0.00    +0.000 A 
ATOM     21  C   UNL     1      -2.506  12.001  19.363  0.00  0.00    +0.000 A 
BRANCH  19  22
ATOM     22  O   UNL     1      -5.335  11.057  17.275  0.00  0.00    +0.000 OA
ATOM     23  C   UNL     1      -6.410  11.104  18.204  0.00  0.00    +0.000 C 
ENDBRANCH  19  22
ENDBRANCH   8  11
BRANCH   1  24
ATOM     24  C   UNL     1      -4.018  12.754  22.780  0.00  0.00    +0.000 C 
ATOM     25  O   UNL     1      -3.432  12.125  23.646  0.00  0.00    +0.000 OA
BRANCH  24  26
ATOM     26  O   UNL     1      -5.153  12.332  22.166  0.00  0.00    +0.000 OA
BRANCH  26  28
ATOM     27  C   UNL     1      -7.076  12.524  23.669  0.00  0.00    +0.000 C 
ATOM     28  C   UNL     1      -6.336  13.092  22.468  0.00  0.00    +0.000 C 
ENDBRANCH  26  28
ENDBRANCH  24  26
ENDBRANCH   1  24
TORSDOF 5
ENDMDL
MODEL 9
REMARK VINA RESULT:      -5.6      9.227     12.229
REMARK  Name = 
REMARK  8 active torsions:
REMARK  status: ('A' for Active; 'I' for Inactive)
REMARK    1  A    between atoms: C_1  and  C_2
REMARK    2  A    between atoms: C_2  and  O_3
REMARK    3  A    between atoms: O_3  and  C_4
REMARK    4  A    between atoms: C_4  and  C_6
REMARK    5  A    between atoms: C_7  and  C_8
REMARK    6  A    between atoms: C_13  and  C_14
REMARK    7  A    between atoms: C_22  and  O_23
REMARK    8  A    between atoms: O_23  and  C_24
REMARK                            x       y       z     vdW  Elec       q    Type
REMARK                         _______ _______ _______ _____ _____    ______ ____
ROOT
ATOM      1  C   UNL     1      -2.337  11.865  19.259  0.00  0.00    +0.000 C 
ATOM      2  C   UNL     1      -2.879  11.101  18.283  0.00  0.00    +0.000 C 
ATOM      3  C   UNL     1      -2.236   9.994  17.486  0.00  0.00    +0.000 C 
ATOM      4  N   UNL     1      -4.194  11.327  17.918  0.00  0.00    +0.000 N 
ATOM      5  C   UNL     1      -5.057  12.154  18.564  0.00  0.00    +0.000 C 
ATOM      6  S   UNL     1      -6.653  12.268  18.125  0.00  0.00    +0.000 S 
ATOM      7  N   UNL     1      -4.565  12.845  19.616  0.00  0.00    +0.000 N 
ATOM      8  C   UNL     1      -3.142  12.986  19.883  0.00  0.00    +0.000 C 
ATOM      9  H   UNL     1      -4.600  10.774  17.169  0.00  0.00    +0.000 HD
ATOM     10  H   UNL     1      -5.214  13.469  20.077  0.00  0.00    +0.000 HD
ENDROOT
BRANCH   8  11
ATOM     11  C   UNL     1      -3.020  13.216  21.380  0.00  0.00    +0.000 A 
ATOM     12  C   UNL     1      -3.808  12.521  22.220  0.00  0.00    +0.000 A 
ATOM     13  C   UNL     1      -3.766  12.639  23.682  0.00  0.00    +0.000 A 
ATOM     14  O   UNL     1      -4.501  11.956  24.385  0.00  0.00    +0.000 OA
ATOM     15  O   UNL     1      -2.866  13.543  24.207  0.00  0.00    +0.000 OA
ATOM     16  C   UNL     1      -2.020  14.290  23.366  0.00  0.00    +0.000 A 
ATOM     17  C   UNL     1      -1.140  15.159  24.010  0.00  0.00    +0.000 A 
ATOM     18  C   UNL     1      -0.262  15.933  23.255  0.00  0.00    +0.000 A 
ATOM     19  C   UNL     1      -0.268  15.828  21.866  0.00  0.00    +0.000 A 
ATOM     20  C   UNL     1      -1.157  14.941  21.240  0.00  0.00    +0.000 A 
ATOM     21  C   UNL     1      -2.056  14.158  21.976  0.00  0.00    +0.000 A 
BRANCH  19  22
ATOM     22  O   UNL     1       0.535  16.525  21.004  0.00  0.00    +0.000 OA
ATOM     23  C   UNL     1       0.994  15.831  19.852  0.00  0.00    +0.000 C 
ENDBRANCH  19  22
ENDBRANCH   8  11
BRANCH   1  24
ATOM     24  C   UNL     1      -0.931  11.660  19.710  0.00  0.00    +0.000 C 
ATOM     25  O   UNL     1       0.028  12.301  19.312  0.00  0.00    +0.000 OA
BRANCH  24  26
ATOM     26  O   UNL     1      -0.852  10.646  20.610  0.00  0.00    +0.000 OA
BRANCH  26  28
ATOM     27  C   UNL     1      -0.830  10.481  23.052  0.00  0.00    +0.000 C 
ATOM     28  C   UNL     1      -0.098  10.935  21.800  0.00  0.00    +0.000 C 
ENDBRANCH  26  28
ENDBRANCH  24  26
ENDBRANCH   1  24
TORSDOF 5
ENDMDL
