MODEL 1
REMARK VINA RESULT:      -7.8      0.000      0.000
REMARK  Name = 
REMARK  4 active torsions:
REMARK  status: ('A' for Active; 'I' for Inactive)
REMARK    1  A    between atoms: C_2  and  O_3
REMARK    2  A    between atoms: C_2  and  C_16
REMARK    3  A    between atoms: O_3  and  C_4
REMARK    4  A    between atoms: C_7  and  C_8
REMARK                            x       y       z     vdW  Elec       q    Type
REMARK                         _______ _______ _______ _____ _____    ______ ____
ROOT
ATOM      1  C   UNL     1       4.438   5.604  18.150  0.00  0.00    +0.000 A 
ATOM      2  C   UNL     1       4.676   6.596  17.203  0.00  0.00    +0.000 A 
ATOM      3  C   UNL     1       5.157   6.248  15.933  0.00  0.00    +0.000 A 
ATOM      4  C   UNL     1       5.436   4.911  15.586  0.00  0.00    +0.000 A 
ATOM      5  C   UNL     1       5.173   3.933  16.566  0.00  0.00    +0.000 A 
ATOM      6  C   UNL     1       4.683   4.272  17.836  0.00  0.00    +0.000 A 
ENDROOT
BRANCH   4   7
ATOM      7  C   UNL     1       6.008   4.554  14.260  0.00  0.00    +0.000 A 
ATOM      8  C   UNL     1       5.365   3.632  13.408  0.00  0.00    +0.000 A 
ATOM      9  C   UNL     1       5.896   3.288  12.159  0.00  0.00    +0.000 A 
ATOM     10  C   UNL     1       7.080   3.868  11.722  0.00  0.00    +0.000 A 
ATOM     11  C   UNL     1       7.732   4.791  12.531  0.00  0.00    +0.000 A 
ATOM     12  C   UNL     1       7.204   5.124  13.786  0.00  0.00    +0.000 A 
ENDBRANCH   4   7
BRANCH   1  13
ATOM     13  O   UNL     1       4.057   6.046  19.437  0.00  0.00    +0.000 OA
BRANCH  13  15
ATOM     14  O   UNL     1       2.038   7.179  19.758  0.00  0.00    +0.000 OA
ATOM     15  C   UNL     1       2.722   6.164  19.794  0.00  0.00    +0.000 C 
BRANCH  15  16
ATOM     16  C   UNL     1       2.183   4.852  20.230  0.00  0.00    +0.000 A 
ATOM     17  C   UNL     1       2.558   4.366  21.476  0.00  0.00    +0.000 A 
ATOM     18  N   UNL     1       2.087   3.195  21.980  0.00  0.00    +0.000 NA
ATOM     19  C   UNL     1       1.227   2.525  21.181  0.00  0.00    +0.000 A 
ATOM     20  C   UNL     1       0.859   2.999  19.930  0.00  0.00    +0.000 A 
ATOM     21  N   UNL     1       1.322   4.169  19.423  0.00  0.00    +0.000 NA
ENDBRANCH  15  16
ENDBRANCH  13  15
ENDBRANCH   1  13
TORSDOF 4
ENDMDL
MODEL 2
REMARK VINA RESULT:      -7.7      0.321      1.064
REMARK  Name = 
REMARK  4 active torsions:
REMARK  status: ('A' for Active; 'I' for Inactive)
REMARK    1  A    between atoms: C_2  and  O_3
REMARK    2  A    between atoms: C_2  and  C_16
REMARK    3  A    between atoms: O_3  and  C_4
REMARK    4  A    between atoms: C_7  and  C_8
REMARK                            x       y       z     vdW  Elec       q    Type
REMARK                         _______ _______ _______ _____ _____    ______ ____
ROOT
ATOM      1  C   UNL     1       4.807   5.715  18.270  0.00  0.00    +0.000 A 
ATOM      2  C   UNL     1       5.452   4.499  18.061  0.00  0.00    +0.000 A 
ATOM      3  C   UNL     1       5.931   4.175  16.784  0.00  0.00    +0.000 A 
ATOM      4  C   UNL     1       5.757   5.038  15.684  0.00  0.00    +0.000 A 
ATOM      5  C   UNL     1       5.109   6.264  15.936  0.00  0.00    +0.000 A 
ATOM      6  C   UNL     1       4.635   6.601  17.213  0.00  0.00    +0.000 A 
ENDROOT
BRANCH   4   7
ATOM      7  C   UNL     1       6.209   4.659  14.319  0.00  0.00    +0.000 A 
ATOM      8  C   UNL     1       5.500   3.715  13.548  0.00  0.00    +0.000 A 
ATOM      9  C   UNL     1       5.918   3.349  12.262  0.00  0.00    +0.000 A 
ATOM     10  C   UNL     1       7.050   3.930  11.706  0.00  0.00    +0.000 A 
ATOM     11  C   UNL     1       7.764   4.875  12.433  0.00  0.00    +0.000 A 
ATOM     12  C   UNL     1       7.350   5.230  13.725  0.00  0.00    +0.000 A 
ENDBRANCH   4   7
BRANCH   1  13
ATOM     13  O   UNL     1       4.260   5.920  19.557  0.00  0.00    +0.000 OA
BRANCH  13  15
ATOM     14  O   UNL     1       2.247   7.108  19.592  0.00  0.00    +0.000 OA
ATOM     15  C   UNL     1       2.895   6.080  19.743  0.00  0.00    +0.000 C 
BRANCH  15  16
ATOM     16  C   UNL     1       2.273   4.795  20.150  0.00  0.00    +0.000 A 
ATOM     17  C   UNL     1       2.524   4.317  21.430  0.00  0.00    +0.000 A 
ATOM     18  N   UNL     1       1.970   3.172  21.908  0.00  0.00    +0.000 NA
ATOM     19  C   UNL     1       1.154   2.522  21.050  0.00  0.00    +0.000 A 
ATOM     20  C   UNL     1       0.908   2.988  19.766  0.00  0.00    +0.000 A 
ATOM     21  N   UNL     1       1.455   4.132  19.284  0.00  0.00    +0.000 NA
ENDBRANCH  15  16
ENDBRANCH  13  15
ENDBRANCH   1  13
TORSDOF 4
ENDMDL
MODEL 3
REMARK VINA RESULT:      -7.7      0.152      1.058
REMARK  Name = 
REMARK  4 active torsions:
REMARK  status: ('A' for Active; 'I' for Inactive)
REMARK    1  A    between atoms: C_2  and  O_3
REMARK    2  A    between atoms: C_2  and  C_16
REMARK    3  A    between atoms: O_3  and  C_4
REMARK    4  A    between atoms: C_7  and  C_8
REMARK                            x       y       z     vdW  Elec       q    Type
REMARK                         _______ _______ _______ _____ _____    ______ ____
ROOT
ATOM      1  C   UNL     1       4.445   5.599  18.173  0.00  0.00    +0.000 A 
ATOM      2  C   UNL     1       4.940   6.605  17.349  0.00  0.00    +0.000 A 
ATOM      3  C   UNL     1       5.434   6.285  16.076  0.00  0.00    +0.000 A 
ATOM      4  C   UNL     1       5.470   4.956  15.607  0.00  0.00    +0.000 A 
ATOM      5  C   UNL     1       4.952   3.966  16.465  0.00  0.00    +0.000 A 
ATOM      6  C   UNL     1       4.447   4.279  17.736  0.00  0.00    +0.000 A 
ENDROOT
BRANCH   4   7
ATOM      7  C   UNL     1       6.056   4.615  14.283  0.00  0.00    +0.000 A 
ATOM      8  C   UNL     1       7.245   5.222  13.829  0.00  0.00    +0.000 A 
ATOM      9  C   UNL     1       7.804   4.910  12.584  0.00  0.00    +0.000 A 
ATOM     10  C   UNL     1       7.195   3.968  11.763  0.00  0.00    +0.000 A 
ATOM     11  C   UNL     1       6.030   3.340  12.187  0.00  0.00    +0.000 A 
ATOM     12  C   UNL     1       5.467   3.664  13.429  0.00  0.00    +0.000 A 
ENDBRANCH   4   7
BRANCH   1  13
ATOM     13  O   UNL     1       4.066   5.989  19.478  0.00  0.00    +0.000 OA
BRANCH  13  15
ATOM     14  O   UNL     1       2.057   7.147  19.773  0.00  0.00    +0.000 OA
ATOM     15  C   UNL     1       2.732   6.127  19.831  0.00  0.00    +0.000 C 
BRANCH  15  16
ATOM     16  C   UNL     1       2.180   4.829  20.294  0.00  0.00    +0.000 A 
ATOM     17  C   UNL     1       2.584   4.345  21.533  0.00  0.00    +0.000 A 
ATOM     18  N   UNL     1       2.105   3.188  22.060  0.00  0.00    +0.000 NA
ATOM     19  C   UNL     1       1.208   2.530  21.294  0.00  0.00    +0.000 A 
ATOM     20  C   UNL     1       0.810   3.002  20.051  0.00  0.00    +0.000 A 
ATOM     21  N   UNL     1       1.281   4.158  19.520  0.00  0.00    +0.000 NA
ENDBRANCH  15  16
ENDBRANCH  13  15
ENDBRANCH   1  13
TORSDOF 4
ENDMDL
MODEL 4
REMARK VINA RESULT:      -7.6      3.644      7.844
REMARK  Name = 
REMARK  4 active torsions:
REMARK  status: ('A' for Active; 'I' for Inactive)
REMARK    1  A    between atoms: C_2  and  O_3
REMARK    2  A    between atoms: C_2  and  C_16
REMARK    3  A    between atoms: O_3  and  C_4
REMARK    4  A    between atoms: C_7  and  C_8
REMARK                            x       y       z     vdW  Elec       q    Type
REMARK                         _______ _______ _______ _____ _____    ______ ____
ROOT
ATOM      1  C   UNL     1       4.655   5.224  17.073  0.00  0.00    +0.000 A 
ATOM      2  C   UNL     1       3.705   4.786  17.991  0.00  0.00    +0.000 A 
ATOM      3  C   UNL     1       2.835   5.708  18.588  0.00  0.00    +0.000 A 
ATOM      4  C   UNL     1       2.907   7.088  18.307  0.00  0.00    +0.000 A 
ATOM      5  C   UNL     1       3.874   7.493  17.366  0.00  0.00    +0.000 A 
ATOM      6  C   UNL     1       4.743   6.575  16.756  0.00  0.00    +0.000 A 
ENDROOT
BRANCH   4   7
ATOM      7  C   UNL     1       2.026   8.069  18.994  0.00  0.00    +0.000 A 
ATOM      8  C   UNL     1       1.510   9.192  18.314  0.00  0.00    +0.000 A 
ATOM      9  C   UNL     1       0.681  10.124  18.951  0.00  0.00    +0.000 A 
ATOM     10  C   UNL     1       0.333   9.949  20.285  0.00  0.00    +0.000 A 
ATOM     11  C   UNL     1       0.812   8.845  20.980  0.00  0.00    +0.000 A 
ATOM     12  C   UNL     1       1.652   7.921  20.342  0.00  0.00    +0.000 A 
ENDBRANCH   4   7
BRANCH   1  13
ATOM     13  O   UNL     1       5.563   4.251  16.598  0.00  0.00    +0.000 OA
BRANCH  13  15
ATOM     14  O   UNL     1       7.784   4.848  17.016  0.00  0.00    +0.000 OA
ATOM     15  C   UNL     1       6.864   4.585  16.252  0.00  0.00    +0.000 C 
BRANCH  15  16
ATOM     16  C   UNL     1       7.029   4.571  14.777  0.00  0.00    +0.000 A 
ATOM     17  C   UNL     1       6.244   3.699  14.033  0.00  0.00    +0.000 A 
ATOM     18  N   UNL     1       6.294   3.640  12.677  0.00  0.00    +0.000 NA
ATOM     19  C   UNL     1       7.167   4.490  12.093  0.00  0.00    +0.000 A 
ATOM     20  C   UNL     1       7.962   5.356  12.830  0.00  0.00    +0.000 A 
ATOM     21  N   UNL     1       7.915   5.422  14.184  0.00  0.00    +0.000 NA
ENDBRANCH  15  16
ENDBRANCH  13  15
ENDBRANCH   1  13
TORSDOF 4
ENDMDL
MODEL 5
REMARK VINA RESULT:      -7.6      0.641      1.532
REMARK  Name = 
REMARK  4 active torsions:
REMARK  status: ('A' for Active; 'I' for Inactive)
REMARK    1  A    between atoms: C_2  and  O_3
REMARK    2  A    between atoms: C_2  and  C_16
REMARK    3  A    between atoms: O_3  and  C_4
REMARK    4  A    between atoms: C_7  and  C_8
REMARK                            x       y       z     vdW  Elec       q    Type
REMARK                         _______ _______ _______ _____ _____    ______ ____
ROOT
ATOM      1  C   UNL     1       4.761   5.702  18.243  0.00  0.00    +0.000 A 
ATOM      2  C   UNL     1       5.259   4.423  18.007  0.00  0.00    +0.000 A 
ATOM      3  C   UNL     1       5.743   4.088  16.735  0.00  0.00    +0.000 A 
ATOM      4  C   UNL     1       5.719   5.005  15.665  0.00  0.00    +0.000 A 
ATOM      5  C   UNL     1       5.217   6.291  15.943  0.00  0.00    +0.000 A 
ATOM      6  C   UNL     1       4.739   6.639  17.216  0.00  0.00    +0.000 A 
ENDROOT
BRANCH   4   7
ATOM      7  C   UNL     1       6.173   4.621  14.301  0.00  0.00    +0.000 A 
ATOM      8  C   UNL     1       5.458   3.684  13.527  0.00  0.00    +0.000 A 
ATOM      9  C   UNL     1       5.878   3.314  12.243  0.00  0.00    +0.000 A 
ATOM     10  C   UNL     1       7.018   3.884  11.692  0.00  0.00    +0.000 A 
ATOM     11  C   UNL     1       7.739   4.822  12.423  0.00  0.00    +0.000 A 
ATOM     12  C   UNL     1       7.322   5.180  13.712  0.00  0.00    +0.000 A 
ENDBRANCH   4   7
BRANCH   1  13
ATOM     13  O   UNL     1       4.194   5.927  19.517  0.00  0.00    +0.000 OA
BRANCH  13  15
ATOM     14  O   UNL     1       2.214   7.166  19.622  0.00  0.00    +0.000 OA
ATOM     15  C   UNL     1       2.828   6.108  19.677  0.00  0.00    +0.000 C 
BRANCH  15  16
ATOM     16  C   UNL     1       2.156   4.807  19.920  0.00  0.00    +0.000 A 
ATOM     17  C   UNL     1       1.592   4.144  18.837  0.00  0.00    +0.000 A 
ATOM     18  N   UNL     1       0.991   2.931  18.950  0.00  0.00    +0.000 NA
ATOM     19  C   UNL     1       0.973   2.408  20.196  0.00  0.00    +0.000 A 
ATOM     20  C   UNL     1       1.524   3.070  21.284  0.00  0.00    +0.000 A 
ATOM     21  N   UNL     1       2.129   4.280  21.177  0.00  0.00    +0.000 NA
ENDBRANCH  15  16
ENDBRANCH  13  15
ENDBRANCH   1  13
TORSDOF 4
ENDMDL
MODEL 6
REMARK VINA RESULT:      -7.6      3.529      8.009
REMARK  Name = 
REMARK  4 active torsions:
REMARK  status: ('A' for Active; 'I' for Inactive)
REMARK    1  A    between atoms: C_2  and  O_3
REMARK    2  A    between atoms: C_2  and  C_16
REMARK    3  A    between atoms: O_3  and  C_4
REMARK    4  A    between atoms: C_7  and  C_8
REMARK                            x       y       z     vdW  Elec       q    Type
REMARK                         _______ _______ _______ _____ _____    ______ ____
ROOT
ATOM      1  C   UNL     1       2.898   5.511  19.027  0.00  0.00    +0.000 A 
ATOM      2  C   UNL     1       2.883   6.749  18.392  0.00  0.00    +0.000 A 
ATOM      3  C   UNL     1       2.255   7.841  19.008  0.00  0.00    +0.000 A 
ATOM      4  C   UNL     1       1.605   7.718  20.253  0.00  0.00    +0.000 A 
ATOM      5  C   UNL     1       1.649   6.453  20.869  0.00  0.00    +0.000 A 
ATOM      6  C   UNL     1       2.285   5.357  20.265  0.00  0.00    +0.000 A 
ENDROOT
BRANCH   4   7
ATOM      7  C   UNL     1       0.884   8.863  20.870  0.00  0.00    +0.000 A 
ATOM      8  C   UNL     1       0.630  10.046  20.145  0.00  0.00    +0.000 A 
ATOM      9  C   UNL     1      -0.047  11.131  20.716  0.00  0.00    +0.000 A 
ATOM     10  C   UNL     1      -0.501  11.056  22.027  0.00  0.00    +0.000 A 
ATOM     11  C   UNL     1      -0.280   9.899  22.765  0.00  0.00    +0.000 A 
ATOM     12  C   UNL     1       0.408   8.820  22.194  0.00  0.00    +0.000 A 
ENDBRANCH   4   7
BRANCH   1  13
ATOM     13  O   UNL     1       3.456   4.439  18.294  0.00  0.00    +0.000 OA
BRANCH  13  15
ATOM     14  O   UNL     1       5.345   3.643  19.417  0.00  0.00    +0.000 OA
ATOM     15  C   UNL     1       4.794   4.096  18.423  0.00  0.00    +0.000 C 
BRANCH  15  16
ATOM     16  C   UNL     1       5.517   4.338  17.149  0.00  0.00    +0.000 A 
ATOM     17  C   UNL     1       6.871   4.644  17.207  0.00  0.00    +0.000 A 
ATOM     18  N   UNL     1       7.627   4.843  16.096  0.00  0.00    +0.000 NA
ATOM     19  C   UNL     1       6.971   4.728  14.921  0.00  0.00    +0.000 A 
ATOM     20  C   UNL     1       5.616   4.435  14.856  0.00  0.00    +0.000 A 
ATOM     21  N   UNL     1       4.856   4.231  15.961  0.00  0.00    +0.000 NA
ENDBRANCH  15  16
ENDBRANCH  13  15
ENDBRANCH   1  13
TORSDOF 4
ENDMDL
MODEL 7
REMARK VINA RESULT:      -7.6      0.630      1.840
REMARK  Name = 
REMARK  4 active torsions:
REMARK  status: ('A' for Active; 'I' for Inactive)
REMARK    1  A    between atoms: C_2  and  O_3
REMARK    2  A    between atoms: C_2  and  C_16
REMARK    3  A    between atoms: O_3  and  C_4
REMARK    4  A    between atoms: C_7  and  C_8
REMARK                            x       y       z     vdW  Elec       q    Type
REMARK                         _______ _______ _______ _____ _____    ______ ____
ROOT
ATOM      1  C   UNL     1       4.769   5.730  18.264  0.00  0.00    +0.000 A 
ATOM      2  C   UNL     1       5.220   4.436  18.021  0.00  0.00    +0.000 A 
ATOM      3  C   UNL     1       5.694   4.090  16.748  0.00  0.00    +0.000 A 
ATOM      4  C   UNL     1       5.706   5.014  15.683  0.00  0.00    +0.000 A 
ATOM      5  C   UNL     1       5.251   6.317  15.969  0.00  0.00    +0.000 A 
ATOM      6  C   UNL     1       4.784   6.674  17.243  0.00  0.00    +0.000 A 
ENDROOT
BRANCH   4   7
ATOM      7  C   UNL     1       6.149   4.623  14.318  0.00  0.00    +0.000 A 
ATOM      8  C   UNL     1       7.290   5.201  13.724  0.00  0.00    +0.000 A 
ATOM      9  C   UNL     1       7.714   4.842  12.439  0.00  0.00    +0.000 A 
ATOM     10  C   UNL     1       7.015   3.882  11.717  0.00  0.00    +0.000 A 
ATOM     11  C   UNL     1       5.895   3.282  12.279  0.00  0.00    +0.000 A 
ATOM     12  C   UNL     1       5.466   3.653  13.561  0.00  0.00    +0.000 A 
ENDBRANCH   4   7
BRANCH   1  13
ATOM     13  O   UNL     1       4.207   5.968  19.539  0.00  0.00    +0.000 OA
BRANCH  13  15
ATOM     14  O   UNL     1       2.196   7.157  19.600  0.00  0.00    +0.000 OA
ATOM     15  C   UNL     1       2.839   6.121  19.707  0.00  0.00    +0.000 C 
BRANCH  15  16
ATOM     16  C   UNL     1       2.207   4.818  20.032  0.00  0.00    +0.000 A 
ATOM     17  C   UNL     1       1.567   4.123  19.014  0.00  0.00    +0.000 A 
ATOM     18  N   UNL     1       0.993   2.906  19.203  0.00  0.00    +0.000 NA
ATOM     19  C   UNL     1       1.083   2.413  20.458  0.00  0.00    +0.000 A 
ATOM     20  C   UNL     1       1.710   3.107  21.482  0.00  0.00    +0.000 A 
ATOM     21  N   UNL     1       2.288   4.321  21.299  0.00  0.00    +0.000 NA
ENDBRANCH  15  16
ENDBRANCH  13  15
ENDBRANCH   1  13
TORSDOF 4
ENDMDL
MODEL 8
REMARK VINA RESULT:      -7.6      3.539      8.038
REMARK  Name = 
REMARK  4 active torsions:
REMARK  status: ('A' for Active; 'I' for Inactive)
REMARK    1  A    between atoms: C_2  and  O_3
REMARK    2  A    between atoms: C_2  and  C_16
REMARK    3  A    between atoms: O_3  and  C_4
REMARK    4  A    between atoms: C_7  and  C_8
REMARK                            x       y       z     vdW  Elec       q    Type
REMARK                         _______ _______ _______ _____ _____    ______ ____
ROOT
ATOM      1  C   UNL     1       3.126   5.619  18.865  0.00  0.00    +0.000 A 
ATOM      2  C   UNL     1       3.014   6.861  18.246  0.00  0.00    +0.000 A 
ATOM      3  C   UNL     1       2.316   7.897  18.882  0.00  0.00    +0.000 A 
ATOM      4  C   UNL     1       1.692   7.714  20.133  0.00  0.00    +0.000 A 
ATOM      5  C   UNL     1       1.835   6.448  20.733  0.00  0.00    +0.000 A 
ATOM      6  C   UNL     1       2.540   5.408  20.108  0.00  0.00    +0.000 A 
ENDROOT
BRANCH   4   7
ATOM      7  C   UNL     1       0.897   8.797  20.771  0.00  0.00    +0.000 A 
ATOM      8  C   UNL     1       0.638   8.796  22.158  0.00  0.00    +0.000 A 
ATOM      9  C   UNL     1      -0.111   9.808  22.769  0.00  0.00    +0.000 A 
ATOM     10  C   UNL     1      -0.610  10.860  22.011  0.00  0.00    +0.000 A 
ATOM     11  C   UNL     1      -0.361  10.899  20.644  0.00  0.00    +0.000 A 
ATOM     12  C   UNL     1       0.379   9.877  20.034  0.00  0.00    +0.000 A 
ENDBRANCH   4   7
BRANCH   1  13
ATOM     13  O   UNL     1       3.751   4.599  18.113  0.00  0.00    +0.000 OA
BRANCH  13  15
ATOM     14  O   UNL     1       5.749   4.062  19.202  0.00  0.00    +0.000 OA
ATOM     15  C   UNL     1       5.116   4.373  18.200  0.00  0.00    +0.000 C 
BRANCH  15  16
ATOM     16  C   UNL     1       5.756   4.542  16.872  0.00  0.00    +0.000 A 
ATOM     17  C   UNL     1       6.837   5.409  16.766  0.00  0.00    +0.000 A 
ATOM     18  N   UNL     1       7.513   5.602  15.604  0.00  0.00    +0.000 NA
ATOM     19  C   UNL     1       7.061   4.893  14.546  0.00  0.00    +0.000 A 
ATOM     20  C   UNL     1       5.974   4.035  14.643  0.00  0.00    +0.000 A 
ATOM     21  N   UNL     1       5.297   3.835  15.801  0.00  0.00    +0.000 NA
ENDBRANCH  15  16
ENDBRANCH  13  15
ENDBRANCH   1  13
TORSDOF 4
ENDMDL
MODEL 9
REMARK VINA RESULT:      -7.6      0.573      1.057
REMARK  Name = 
REMARK  4 active torsions:
REMARK  status: ('A' for Active; 'I' for Inactive)
REMARK    1  A    between atoms: C_2  and  O_3
REMARK    2  A    between atoms: C_2  and  C_16
REMARK    3  A    between atoms: O_3  and  C_4
REMARK    4  A    between atoms: C_7  and  C_8
REMARK                            x       y       z     vdW  Elec       q    Type
REMARK                         _______ _______ _______ _____ _____    ______ ____
ROOT
ATOM      1  C   UNL     1       4.492   5.595  18.157  0.00  0.00    +0.000 A 
ATOM      2  C   UNL     1       4.685   6.590  17.203  0.00  0.00    +0.000 A 
ATOM      3  C   UNL     1       5.170   6.253  15.932  0.00  0.00    +0.000 A 
ATOM      4  C   UNL     1       5.499   4.926  15.590  0.00  0.00    +0.000 A 
ATOM      5  C   UNL     1       5.282   3.945  16.577  0.00  0.00    +0.000 A 
ATOM      6  C   UNL     1       4.787   4.272  17.849  0.00  0.00    +0.000 A 
ENDROOT
BRANCH   4   7
ATOM      7  C   UNL     1       6.075   4.584  14.262  0.00  0.00    +0.000 A 
ATOM      8  C   UNL     1       5.468   3.626  13.424  0.00  0.00    +0.000 A 
ATOM      9  C   UNL     1       6.003   3.295  12.173  0.00  0.00    +0.000 A 
ATOM     10  C   UNL     1       7.156   3.925  11.720  0.00  0.00    +0.000 A 
ATOM     11  C   UNL     1       7.772   4.884  12.515  0.00  0.00    +0.000 A 
ATOM     12  C   UNL     1       7.240   5.204  13.772  0.00  0.00    +0.000 A 
ENDBRANCH   4   7
BRANCH   1  13
ATOM     13  O   UNL     1       4.104   6.029  19.445  0.00  0.00    +0.000 OA
BRANCH  13  15
ATOM     14  O   UNL     1       2.108   7.211  19.736  0.00  0.00    +0.000 OA
ATOM     15  C   UNL     1       2.768   6.180  19.782  0.00  0.00    +0.000 C 
BRANCH  15  16
ATOM     16  C   UNL     1       2.191   4.882  20.211  0.00  0.00    +0.000 A 
ATOM     17  C   UNL     1       1.373   4.197  19.322  0.00  0.00    +0.000 A 
ATOM     18  N   UNL     1       0.830   2.984  19.607  0.00  0.00    +0.000 NA
ATOM     19  C   UNL     1       1.136   2.485  20.825  0.00  0.00    +0.000 A 
ATOM     20  C   UNL     1       1.943   3.170  21.723  0.00  0.00    +0.000 A 
ATOM     21  N   UNL     1       2.491   4.379  21.443  0.00  0.00    +0.000 NA
ENDBRANCH  15  16
ENDBRANCH  13  15
ENDBRANCH   1  13
TORSDOF 4
ENDMDL
