MODEL 1
REMARK VINA RESULT:      -6.5      0.000      0.000
REMARK  Name = 
REMARK  9 active torsions:
REMARK  status: ('A' for Active; 'I' for Inactive)
REMARK    1  A    between atoms: C_1  and  C_2
REMARK    2  A    between atoms: C_2  and  C_3
REMARK    3  A    between atoms: C_2  and  C_4
REMARK    4  A    between atoms: C_2  and  N_5
REMARK    5  A    between atoms: C_7  and  O_8
REMARK    6  A    between atoms: C_9  and  O_10
REMARK    7  A    between atoms: N_12  and  C_13
REMARK    8  A    between atoms: C_13  and  C_14
REMARK    9  A    between atoms: C_17  and  C_18
REMARK                            x       y       z     vdW  Elec       q    Type
REMARK                         _______ _______ _______ _____ _____    ______ ____
ROOT
ATOM      1  N   UNL     1       1.913   4.667  20.609  0.00  0.00    +0.000 NA
ATOM      2  C   UNL     1       2.196   5.608  19.792  0.00  0.00    +0.000 C 
ATOM      3  C   UNL     1       2.800   5.869  18.464  0.00  0.00    +0.000 C 
ATOM      4  C   UNL     1       2.590   7.212  18.588  0.00  0.00    +0.000 C 
ATOM      5  C   UNL     1       1.978   7.044  19.915  0.00  0.00    +0.000 C 
ATOM      6  N   UNL     1       1.462   7.769  20.841  0.00  0.00    +0.000 NA
ENDROOT
BRANCH   1   8
ATOM      7  C   UNL     1       3.719   3.054  20.111  0.00  0.00    +0.000 C 
ATOM      8  C   UNL     1       2.213   3.258  20.319  0.00  0.00    +0.000 C 
ATOM      9  C   UNL     1       1.357   2.745  19.154  0.00  0.00    +0.000 C 
ATOM     10  C   UNL     1       1.819   2.441  21.569  0.00  0.00    +0.000 C 
ENDBRANCH   1   8
BRANCH   3  11
ATOM     11  O   UNL     1       3.335   5.198  17.511  0.00  0.00    +0.000 OA
ATOM     12  H   UNL     1       4.253   4.966  17.730  0.00  0.00    +0.000 HD
ENDBRANCH   3  11
BRANCH   4  13
ATOM     13  O   UNL     1       2.841   8.211  17.828  0.00  0.00    +0.000 OA
ATOM     14  H   UNL     1       2.908   7.879  16.911  0.00  0.00    +0.000 HD
ENDBRANCH   4  13
BRANCH   6  15
ATOM     15  C   UNL     1       1.457   9.204  20.484  0.00  0.00    +0.000 C 
BRANCH  15  16
ATOM     16  C   UNL     1       0.379  10.000  21.194  0.00  0.00    +0.000 A 
ATOM     17  C   UNL     1      -0.009   9.642  22.497  0.00  0.00    +0.000 A 
ATOM     18  C   UNL     1      -0.971  10.381  23.192  0.00  0.00    +0.000 A 
ATOM     19  C   UNL     1      -1.559  11.500  22.602  0.00  0.00    +0.000 A 
ATOM     20  C   UNL     1      -1.168  11.887  21.318  0.00  0.00    +0.000 A 
ATOM     21  C   UNL     1      -0.200  11.149  20.624  0.00  0.00    +0.000 A 
ATOM     22 CL   UNL     1       0.254  11.726  19.058  0.00  0.00    +0.000 Cl
BRANCH  19  23
ATOM     23  C   UNL     1      -2.547  12.257  23.313  0.00  0.00    +0.000 C 
ATOM     24  N   UNL     1      -3.350  12.863  23.888  0.00  0.00    +0.000 NA
ENDBRANCH  19  23
ENDBRANCH  15  16
ENDBRANCH   6  15
TORSDOF 6
ENDMDL
MODEL 2
REMARK VINA RESULT:      -6.5      5.753      7.578
REMARK  Name = 
REMARK  9 active torsions:
REMARK  status: ('A' for Active; 'I' for Inactive)
REMARK    1  A    between atoms: C_1  and  C_2
REMARK    2  A    between atoms: C_2  and  C_3
REMARK    3  A    between atoms: C_2  and  C_4
REMARK    4  A    between atoms: C_2  and  N_5
REMARK    5  A    between atoms: C_7  and  O_8
REMARK    6  A    between atoms: C_9  and  O_10
REMARK    7  A    between atoms: N_12  and  C_13
REMARK    8  A    between atoms: C_13  and  C_14
REMARK    9  A    between atoms: C_17  and  C_18
REMARK                            x       y       z     vdW  Elec       q    Type
REMARK                         _______ _______ _______ _____ _____    ______ ____
ROOT
ATOM      1  N   UNL     1       3.100   3.402  20.063  0.00  0.00    +0.000 NA
ATOM      2  C   UNL     1       3.453   3.667  18.865  0.00  0.00    +0.000 C 
ATOM      3  C   UNL     1       2.918   3.835  17.492  0.00  0.00    +0.000 C 
ATOM      4  C   UNL     1       4.162   4.102  16.997  0.00  0.00    +0.000 C 
ATOM      5  C   UNL     1       4.777   3.952  18.325  0.00  0.00    +0.000 C 
ATOM      6  N   UNL     1       5.940   4.015  18.864  0.00  0.00    +0.000 NA
ENDROOT
BRANCH   1   8
ATOM      7  C   UNL     1       1.125   1.998  19.576  0.00  0.00    +0.000 C 
ATOM      8  C   UNL     1       1.703   3.133  20.431  0.00  0.00    +0.000 C 
ATOM      9  C   UNL     1       0.869   4.420  20.388  0.00  0.00    +0.000 C 
ATOM     10  C   UNL     1       1.703   2.637  21.893  0.00  0.00    +0.000 C 
ENDBRANCH   1   8
BRANCH   3  11
ATOM     11  O   UNL     1       1.784   3.774  16.897  0.00  0.00    +0.000 OA
ATOM     12  H   UNL     1       1.891   3.429  15.994  0.00  0.00    +0.000 HD
ENDBRANCH   3  11
BRANCH   4  13
ATOM     13  O   UNL     1       4.597   4.372  15.824  0.00  0.00    +0.000 OA
ATOM     14  H   UNL     1       4.514   3.564  15.282  0.00  0.00    +0.000 HD
ENDBRANCH   4  13
BRANCH   6  15
ATOM     15  C   UNL     1       6.990   4.355  17.880  0.00  0.00    +0.000 C 
BRANCH  15  16
ATOM     16  C   UNL     1       7.453   5.797  17.963  0.00  0.00    +0.000 A 
ATOM     17  C   UNL     1       7.098   6.705  16.950  0.00  0.00    +0.000 A 
ATOM     18  C   UNL     1       7.475   8.049  17.020  0.00  0.00    +0.000 A 
ATOM     19  C   UNL     1       8.208   8.516  18.111  0.00  0.00    +0.000 A 
ATOM     20  C   UNL     1       8.549   7.636  19.140  0.00  0.00    +0.000 A 
ATOM     21  C   UNL     1       8.166   6.291  19.072  0.00  0.00    +0.000 A 
ATOM     22 CL   UNL     1       8.593   5.283  20.411  0.00  0.00    +0.000 Cl
BRANCH  19  23
ATOM     23  C   UNL     1       8.598   9.894  18.183  0.00  0.00    +0.000 C 
ATOM     24  N   UNL     1       8.916  11.006  18.247  0.00  0.00    +0.000 NA
ENDBRANCH  19  23
ENDBRANCH  15  16
ENDBRANCH   6  15
TORSDOF 6
ENDMDL
MODEL 3
REMARK VINA RESULT:      -6.3      3.095      3.854
REMARK  Name = 
REMARK  9 active torsions:
REMARK  status: ('A' for Active; 'I' for Inactive)
REMARK    1  A    between atoms: C_1  and  C_2
REMARK    2  A    between atoms: C_2  and  C_3
REMARK    3  A    between atoms: C_2  and  C_4
REMARK    4  A    between atoms: C_2  and  N_5
REMARK    5  A    between atoms: C_7  and  O_8
REMARK    6  A    between atoms: C_9  and  O_10
REMARK    7  A    between atoms: N_12  and  C_13
REMARK    8  A    between atoms: C_13  and  C_14
REMARK    9  A    between atoms: C_17  and  C_18
REMARK                            x       y       z     vdW  Elec       q    Type
REMARK                         _______ _______ _______ _____ _____    ______ ____
ROOT
ATOM      1  N   UNL     1       3.059   5.962  17.857  0.00  0.00    +0.000 NA
ATOM      2  C   UNL     1       2.592   6.499  18.918  0.00  0.00    +0.000 C 
ATOM      3  C   UNL     1       2.295   6.219  20.343  0.00  0.00    +0.000 C 
ATOM      4  C   UNL     1       1.821   7.486  20.535  0.00  0.00    +0.000 C 
ATOM      5  C   UNL     1       2.082   7.847  19.133  0.00  0.00    +0.000 C 
ATOM      6  N   UNL     1       1.949   8.861  18.355  0.00  0.00    +0.000 NA
ENDROOT
BRANCH   1   8
ATOM      7  C   UNL     1       2.346   3.596  17.875  0.00  0.00    +0.000 C 
ATOM      8  C   UNL     1       3.529   4.571  17.821  0.00  0.00    +0.000 C 
ATOM      9  C   UNL     1       4.581   4.320  18.909  0.00  0.00    +0.000 C 
ATOM     10  C   UNL     1       4.222   4.358  16.458  0.00  0.00    +0.000 C 
ENDBRANCH   1   8
BRANCH   3  11
ATOM     11  O   UNL     1       2.393   5.239  21.163  0.00  0.00    +0.000 OA
ATOM     12  H   UNL     1       1.798   4.515  20.904  0.00  0.00    +0.000 HD
ENDBRANCH   3  11
BRANCH   4  13
ATOM     13  O   UNL     1       1.340   8.095  21.551  0.00  0.00    +0.000 OA
ATOM     14  H   UNL     1       1.368   7.479  22.309  0.00  0.00    +0.000 HD
ENDBRANCH   4  13
BRANCH   6  15
ATOM     15  C   UNL     1       1.382  10.030  19.060  0.00  0.00    +0.000 C 
BRANCH  15  16
ATOM     16  C   UNL     1      -0.017  10.393  18.599  0.00  0.00    +0.000 A 
ATOM     17  C   UNL     1      -0.608   9.687  17.537  0.00  0.00    +0.000 A 
ATOM     18  C   UNL     1      -1.910   9.972  17.116  0.00  0.00    +0.000 A 
ATOM     19  C   UNL     1      -2.654  10.962  17.758  0.00  0.00    +0.000 A 
ATOM     20  C   UNL     1      -2.094  11.657  18.833  0.00  0.00    +0.000 A 
ATOM     21  C   UNL     1      -0.791  11.368  19.256  0.00  0.00    +0.000 A 
ATOM     22 CL   UNL     1      -0.196  12.246  20.622  0.00  0.00    +0.000 Cl
BRANCH  19  23
ATOM     23  C   UNL     1      -3.989  11.256  17.327  0.00  0.00    +0.000 C 
ATOM     24  N   UNL     1      -5.066  11.500  16.974  0.00  0.00    +0.000 NA
ENDBRANCH  19  23
ENDBRANCH  15  16
ENDBRANCH   6  15
TORSDOF 6
ENDMDL
MODEL 4
REMARK VINA RESULT:      -6.3      3.328      4.500
REMARK  Name = 
REMARK  9 active torsions:
REMARK  status: ('A' for Active; 'I' for Inactive)
REMARK    1  A    between atoms: C_1  and  C_2
REMARK    2  A    between atoms: C_2  and  C_3
REMARK    3  A    between atoms: C_2  and  C_4
REMARK    4  A    between atoms: C_2  and  N_5
REMARK    5  A    between atoms: C_7  and  O_8
REMARK    6  A    between atoms: C_9  and  O_10
REMARK    7  A    between atoms: N_12  and  C_13
REMARK    8  A    between atoms: C_13  and  C_14
REMARK    9  A    between atoms: C_17  and  C_18
REMARK                            x       y       z     vdW  Elec       q    Type
REMARK                         _______ _______ _______ _____ _____    ______ ____
ROOT
ATOM      1  N   UNL     1       5.241   5.569  16.798  0.00  0.00    +0.000 NA
ATOM      2  C   UNL     1       4.658   5.320  17.907  0.00  0.00    +0.000 C 
ATOM      3  C   UNL     1       4.607   4.331  19.011  0.00  0.00    +0.000 C 
ATOM      4  C   UNL     1       3.644   5.048  19.662  0.00  0.00    +0.000 C 
ATOM      5  C   UNL     1       3.628   6.075  18.609  0.00  0.00    +0.000 C 
ATOM      6  N   UNL     1       3.017   7.171  18.337  0.00  0.00    +0.000 NA
ENDROOT
BRANCH   1   8
ATOM      7  C   UNL     1       5.661   3.323  15.856  0.00  0.00    +0.000 C 
ATOM      8  C   UNL     1       6.266   4.683  16.231  0.00  0.00    +0.000 C 
ATOM      9  C   UNL     1       7.477   4.578  17.166  0.00  0.00    +0.000 C 
ATOM     10  C   UNL     1       6.756   5.331  14.919  0.00  0.00    +0.000 C 
ENDBRANCH   1   8
BRANCH   3  11
ATOM     11  O   UNL     1       5.176   3.228  19.330  0.00  0.00    +0.000 OA
ATOM     12  H   UNL     1       5.558   3.286  20.222  0.00  0.00    +0.000 HD
ENDBRANCH   3  11
BRANCH   4  13
ATOM     13  O   UNL     1       3.013   4.869  20.761  0.00  0.00    +0.000 OA
ATOM     14  H   UNL     1       3.220   3.969  21.080  0.00  0.00    +0.000 HD
ENDBRANCH   4  13
BRANCH   6  15
ATOM     15  C   UNL     1       2.045   7.540  19.389  0.00  0.00    +0.000 C 
BRANCH  15  16
ATOM     16  C   UNL     1       1.548   8.969  19.278  0.00  0.00    +0.000 A 
ATOM     17  C   UNL     1       1.969   9.774  18.205  0.00  0.00    +0.000 A 
ATOM     18  C   UNL     1       1.497  11.081  18.054  0.00  0.00    +0.000 A 
ATOM     19  C   UNL     1       0.583  11.607  18.968  0.00  0.00    +0.000 A 
ATOM     20  C   UNL     1       0.132  10.814  20.026  0.00  0.00    +0.000 A 
ATOM     21  C   UNL     1       0.603   9.503  20.173  0.00  0.00    +0.000 A 
ATOM     22 CL   UNL     1      -0.043   8.580  21.486  0.00  0.00    +0.000 Cl
BRANCH  19  23
ATOM     23  C   UNL     1       0.099  12.948  18.815  0.00  0.00    +0.000 C 
ATOM     24  N   UNL     1      -0.297  14.029  18.688  0.00  0.00    +0.000 NA
ENDBRANCH  19  23
ENDBRANCH  15  16
ENDBRANCH   6  15
TORSDOF 6
ENDMDL
MODEL 5
REMARK VINA RESULT:      -6.3      2.191      2.730
REMARK  Name = 
REMARK  9 active torsions:
REMARK  status: ('A' for Active; 'I' for Inactive)
REMARK    1  A    between atoms: C_1  and  C_2
REMARK    2  A    between atoms: C_2  and  C_3
REMARK    3  A    between atoms: C_2  and  C_4
REMARK    4  A    between atoms: C_2  and  N_5
REMARK    5  A    between atoms: C_7  and  O_8
REMARK    6  A    between atoms: C_9  and  O_10
REMARK    7  A    between atoms: N_12  and  C_13
REMARK    8  A    between atoms: C_13  and  C_14
REMARK    9  A    between atoms: C_17  and  C_18
REMARK                            x       y       z     vdW  Elec       q    Type
REMARK                         _______ _______ _______ _____ _____    ______ ____
ROOT
ATOM      1  N   UNL     1       1.810   4.746  20.492  0.00  0.00    +0.000 NA
ATOM      2  C   UNL     1       2.218   5.578  19.612  0.00  0.00    +0.000 C 
ATOM      3  C   UNL     1       2.922   5.660  18.310  0.00  0.00    +0.000 C 
ATOM      4  C   UNL     1       2.816   7.021  18.293  0.00  0.00    +0.000 C 
ATOM      5  C   UNL     1       2.113   7.031  19.585  0.00  0.00    +0.000 C 
ATOM      6  N   UNL     1       1.604   7.882  20.402  0.00  0.00    +0.000 NA
ENDROOT
BRANCH   1   8
ATOM      7  C   UNL     1       3.501   2.963  20.229  0.00  0.00    +0.000 C 
ATOM      8  C   UNL     1       2.009   3.297  20.356  0.00  0.00    +0.000 C 
ATOM      9  C   UNL     1       1.154   2.732  19.214  0.00  0.00    +0.000 C 
ATOM     10  C   UNL     1       1.514   2.643  21.663  0.00  0.00    +0.000 C 
ENDBRANCH   1   8
BRANCH   3  11
ATOM     11  O   UNL     1       3.456   4.860  17.462  0.00  0.00    +0.000 OA
ATOM     12  H   UNL     1       4.412   4.786  17.618  0.00  0.00    +0.000 HD
ENDBRANCH   3  11
BRANCH   4  13
ATOM     13  O   UNL     1       3.195   7.918  17.463  0.00  0.00    +0.000 OA
ATOM     14  H   UNL     1       2.977   7.603  16.564  0.00  0.00    +0.000 HD
ENDBRANCH   4  13
BRANCH   6  15
ATOM     15  C   UNL     1       1.740   9.271  19.914  0.00  0.00    +0.000 C 
BRANCH  15  16
ATOM     16  C   UNL     1       0.444   9.852  19.381  0.00  0.00    +0.000 A 
ATOM     17  C   UNL     1       0.069   9.617  18.047  0.00  0.00    +0.000 A 
ATOM     18  C   UNL     1      -1.138  10.107  17.539  0.00  0.00    +0.000 A 
ATOM     19  C   UNL     1      -2.002  10.833  18.360  0.00  0.00    +0.000 A 
ATOM     20  C   UNL     1      -1.658  11.056  19.695  0.00  0.00    +0.000 A 
ATOM     21  C   UNL     1      -0.451  10.561  20.204  0.00  0.00    +0.000 A 
ATOM     22 CL   UNL     1      -0.129  10.846  21.879  0.00  0.00    +0.000 Cl
BRANCH  19  23
ATOM     23  C   UNL     1      -3.239  11.337  17.840  0.00  0.00    +0.000 C 
ATOM     24  N   UNL     1      -4.240  11.738  17.416  0.00  0.00    +0.000 NA
ENDBRANCH  19  23
ENDBRANCH  15  16
ENDBRANCH   6  15
TORSDOF 6
ENDMDL
MODEL 6
REMARK VINA RESULT:      -6.2      3.246      4.209
REMARK  Name = 
REMARK  9 active torsions:
REMARK  status: ('A' for Active; 'I' for Inactive)
REMARK    1  A    between atoms: C_1  and  C_2
REMARK    2  A    between atoms: C_2  and  C_3
REMARK    3  A    between atoms: C_2  and  C_4
REMARK    4  A    between atoms: C_2  and  N_5
REMARK    5  A    between atoms: C_7  and  O_8
REMARK    6  A    between atoms: C_9  and  O_10
REMARK    7  A    between atoms: N_12  and  C_13
REMARK    8  A    between atoms: C_13  and  C_14
REMARK    9  A    between atoms: C_17  and  C_18
REMARK                            x       y       z     vdW  Elec       q    Type
REMARK                         _______ _______ _______ _____ _____    ______ ____
ROOT
ATOM      1  N   UNL     1       3.816   6.696  17.314  0.00  0.00    +0.000 NA
ATOM      2  C   UNL     1       3.195   6.739  18.430  0.00  0.00    +0.000 C 
ATOM      3  C   UNL     1       2.955   5.964  19.671  0.00  0.00    +0.000 C 
ATOM      4  C   UNL     1       2.146   6.943  20.173  0.00  0.00    +0.000 C 
ATOM      5  C   UNL     1       2.328   7.776  18.974  0.00  0.00    +0.000 C 
ATOM      6  N   UNL     1       1.938   8.911  18.517  0.00  0.00    +0.000 NA
ENDROOT
BRANCH   1   8
ATOM      7  C   UNL     1       3.801   4.290  16.750  0.00  0.00    +0.000 C 
ATOM      8  C   UNL     1       4.653   5.554  16.923  0.00  0.00    +0.000 C 
ATOM      9  C   UNL     1       5.826   5.375  17.896  0.00  0.00    +0.000 C 
ATOM     10  C   UNL     1       5.254   5.880  15.539  0.00  0.00    +0.000 C 
ENDBRANCH   1   8
BRANCH   3  11
ATOM     11  O   UNL     1       3.302   4.837  20.174  0.00  0.00    +0.000 OA
ATOM     12  H   UNL     1       4.228   4.637  19.957  0.00  0.00    +0.000 HD
ENDBRANCH   3  11
BRANCH   4  13
ATOM     13  O   UNL     1       1.492   7.062  21.266  0.00  0.00    +0.000 OA
ATOM     14  H   UNL     1       0.829   7.770  21.141  0.00  0.00    +0.000 HD
ENDBRANCH   4  13
BRANCH   6  15
ATOM     15  C   UNL     1       1.054   9.618  19.469  0.00  0.00    +0.000 C 
BRANCH  15  16
ATOM     16  C   UNL     1      -0.229  10.126  18.838  0.00  0.00    +0.000 A 
ATOM     17  C   UNL     1      -0.692   9.555  17.639  0.00  0.00    +0.000 A 
ATOM     18  C   UNL     1      -1.891   9.975  17.056  0.00  0.00    +0.000 A 
ATOM     19  C   UNL     1      -2.659  10.967  17.666  0.00  0.00    +0.000 A 
ATOM     20  C   UNL     1      -2.229  11.528  18.871  0.00  0.00    +0.000 A 
ATOM     21  C   UNL     1      -1.030  11.104  19.457  0.00  0.00    +0.000 A 
ATOM     22 CL   UNL     1      -0.598  11.821  20.970  0.00  0.00    +0.000 Cl
BRANCH  19  23
ATOM     23  C   UNL     1      -3.888  11.399  17.068  0.00  0.00    +0.000 C 
ATOM     24  N   UNL     1      -4.878  11.752  16.579  0.00  0.00    +0.000 NA
ENDBRANCH  19  23
ENDBRANCH  15  16
ENDBRANCH   6  15
TORSDOF 6
ENDMDL
MODEL 7
REMARK VINA RESULT:      -6.2      1.386      1.791
REMARK  Name = 
REMARK  9 active torsions:
REMARK  status: ('A' for Active; 'I' for Inactive)
REMARK    1  A    between atoms: C_1  and  C_2
REMARK    2  A    between atoms: C_2  and  C_3
REMARK    3  A    between atoms: C_2  and  C_4
REMARK    4  A    between atoms: C_2  and  N_5
REMARK    5  A    between atoms: C_7  and  O_8
REMARK    6  A    between atoms: C_9  and  O_10
REMARK    7  A    between atoms: N_12  and  C_13
REMARK    8  A    between atoms: C_13  and  C_14
REMARK    9  A    between atoms: C_17  and  C_18
REMARK                            x       y       z     vdW  Elec       q    Type
REMARK                         _______ _______ _______ _____ _____    ______ ____
ROOT
ATOM      1  N   UNL     1       2.214   6.343  19.864  0.00  0.00    +0.000 NA
ATOM      2  C   UNL     1       2.235   7.384  19.124  0.00  0.00    +0.000 C 
ATOM      3  C   UNL     1       2.755   7.898  17.834  0.00  0.00    +0.000 C 
ATOM      4  C   UNL     1       2.186   9.121  18.046  0.00  0.00    +0.000 C 
ATOM      5  C   UNL     1       1.634   8.694  19.341  0.00  0.00    +0.000 C 
ATOM      6  N   UNL     1       0.934   9.181  20.301  0.00  0.00    +0.000 NA
ENDROOT
BRANCH   1   8
ATOM      7  C   UNL     1       4.406   5.298  19.407  0.00  0.00    +0.000 C 
ATOM      8  C   UNL     1       2.888   5.094  19.485  0.00  0.00    +0.000 C 
ATOM      9  C   UNL     1       2.279   4.512  18.202  0.00  0.00    +0.000 C 
ATOM     10  C   UNL     1       2.631   4.075  20.615  0.00  0.00    +0.000 C 
ENDBRANCH   1   8
BRANCH   3  11
ATOM     11  O   UNL     1       3.458   7.470  16.851  0.00  0.00    +0.000 OA
ATOM     12  H   UNL     1       3.142   7.852  16.014  0.00  0.00    +0.000 HD
ENDBRANCH   3  11
BRANCH   4  13
ATOM     13  O   UNL     1       2.161  10.204  17.365  0.00  0.00    +0.000 OA
ATOM     14  H   UNL     1       1.512  10.804  17.782  0.00  0.00    +0.000 HD
ENDBRANCH   4  13
BRANCH   6  15
ATOM     15  C   UNL     1       0.541  10.584  20.046  0.00  0.00    +0.000 C 
BRANCH  15  16
ATOM     16  C   UNL     1      -0.533  11.091  20.988  0.00  0.00    +0.000 A 
ATOM     17  C   UNL     1      -0.543  10.670  22.329  0.00  0.00    +0.000 A 
ATOM     18  C   UNL     1      -1.496  11.151  23.231  0.00  0.00    +0.000 A 
ATOM     19  C   UNL     1      -2.455  12.074  22.812  0.00  0.00    +0.000 A 
ATOM     20  C   UNL     1      -2.447  12.525  21.490  0.00  0.00    +0.000 A 
ATOM     21  C   UNL     1      -1.488  12.045  20.589  0.00  0.00    +0.000 A 
ATOM     22 CL   UNL     1      -1.525  12.691  18.985  0.00  0.00    +0.000 Cl
BRANCH  19  23
ATOM     23  C   UNL     1      -3.435  12.567  23.735  0.00  0.00    +0.000 C 
ATOM     24  N   UNL     1      -4.226  12.960  24.485  0.00  0.00    +0.000 NA
ENDBRANCH  19  23
ENDBRANCH  15  16
ENDBRANCH   6  15
TORSDOF 6
ENDMDL
MODEL 8
REMARK VINA RESULT:      -6.2      3.853      8.742
REMARK  Name = 
REMARK  9 active torsions:
REMARK  status: ('A' for Active; 'I' for Inactive)
REMARK    1  A    between atoms: C_1  and  C_2
REMARK    2  A    between atoms: C_2  and  C_3
REMARK    3  A    between atoms: C_2  and  C_4
REMARK    4  A    between atoms: C_2  and  N_5
REMARK    5  A    between atoms: C_7  and  O_8
REMARK    6  A    between atoms: C_9  and  O_10
REMARK    7  A    between atoms: N_12  and  C_13
REMARK    8  A    between atoms: C_13  and  C_14
REMARK    9  A    between atoms: C_17  and  C_18
REMARK                            x       y       z     vdW  Elec       q    Type
REMARK                         _______ _______ _______ _____ _____    ______ ____
ROOT
ATOM      1  N   UNL     1       1.038  10.472  19.052  0.00  0.00    +0.000 NA
ATOM      2  C   UNL     1       1.150   9.425  19.776  0.00  0.00    +0.000 C 
ATOM      3  C   UNL     1       0.739   8.849  21.079  0.00  0.00    +0.000 C 
ATOM      4  C   UNL     1       1.418   7.691  20.825  0.00  0.00    +0.000 C 
ATOM      5  C   UNL     1       1.872   8.187  19.517  0.00  0.00    +0.000 C 
ATOM      6  N   UNL     1       2.587   7.788  18.528  0.00  0.00    +0.000 NA
ENDROOT
BRANCH   1   8
ATOM      7  C   UNL     1       0.849  12.243  20.766  0.00  0.00    +0.000 C 
ATOM      8  C   UNL     1       0.264  11.645  19.479  0.00  0.00    +0.000 C 
ATOM      9  C   UNL     1      -1.229  11.308  19.583  0.00  0.00    +0.000 C 
ATOM     10  C   UNL     1       0.414  12.717  18.379  0.00  0.00    +0.000 C 
ENDBRANCH   1   8
BRANCH   3  11
ATOM     11  O   UNL     1       0.045   9.196  22.099  0.00  0.00    +0.000 OA
ATOM     12  H   UNL     1       0.357  10.047  22.450  0.00  0.00    +0.000 HD
ENDBRANCH   3  11
BRANCH   4  13
ATOM     13  O   UNL     1       1.581   6.610  21.489  0.00  0.00    +0.000 OA
ATOM     14  H   UNL     1       1.952   5.940  20.882  0.00  0.00    +0.000 HD
ENDBRANCH   4  13
BRANCH   6  15
ATOM     15  C   UNL     1       3.108   6.419  18.735  0.00  0.00    +0.000 C 
BRANCH  15  16
ATOM     16  C   UNL     1       3.872   5.876  17.543  0.00  0.00    +0.000 A 
ATOM     17  C   UNL     1       4.579   6.757  16.705  0.00  0.00    +0.000 A 
ATOM     18  C   UNL     1       5.324   6.282  15.623  0.00  0.00    +0.000 A 
ATOM     19  C   UNL     1       5.388   4.913  15.360  0.00  0.00    +0.000 A 
ATOM     20  C   UNL     1       4.713   4.020  16.196  0.00  0.00    +0.000 A 
ATOM     21  C   UNL     1       3.970   4.496  17.283  0.00  0.00    +0.000 A 
ATOM     22 CL   UNL     1       3.204   3.316  18.289  0.00  0.00    +0.000 Cl
BRANCH  19  23
ATOM     23  C   UNL     1       6.150   4.425  14.249  0.00  0.00    +0.000 C 
ATOM     24  N   UNL     1       6.764   4.023  13.352  0.00  0.00    +0.000 NA
ENDBRANCH  19  23
ENDBRANCH  15  16
ENDBRANCH   6  15
TORSDOF 6
ENDMDL
MODEL 9
REMARK VINA RESULT:      -6.1      2.864      3.952
REMARK  Name = 
REMARK  9 active torsions:
REMARK  status: ('A' for Active; 'I' for Inactive)
REMARK    1  A    between atoms: C_1  and  C_2
REMARK    2  A    between atoms: C_2  and  C_3
REMARK    3  A    between atoms: C_2  and  C_4
REMARK    4  A    between atoms: C_2  and  N_5
REMARK    5  A    between atoms: C_7  and  O_8
REMARK    6  A    between atoms: C_9  and  O_10
REMARK    7  A    between atoms: N_12  and  C_13
REMARK    8  A    between atoms: C_13  and  C_14
REMARK    9  A    between atoms: C_17  and  C_18
REMARK                            x       y       z     vdW  Elec       q    Type
REMARK                         _______ _______ _______ _____ _____    ______ ____
ROOT
ATOM      1  N   UNL     1       5.296   5.660  17.523  0.00  0.00    +0.000 NA
ATOM      2  C   UNL     1       4.606   5.108  18.446  0.00  0.00    +0.000 C 
ATOM      3  C   UNL     1       4.458   3.844  19.205  0.00  0.00    +0.000 C 
ATOM      4  C   UNL     1       3.421   4.355  19.932  0.00  0.00    +0.000 C 
ATOM      5  C   UNL     1       3.497   5.643  19.226  0.00  0.00    +0.000 C 
ATOM      6  N   UNL     1       2.899   6.779  19.221  0.00  0.00    +0.000 NA
ENDROOT
BRANCH   1   8
ATOM      7  C   UNL     1       5.851   3.760  16.043  0.00  0.00    +0.000 C 
ATOM      8  C   UNL     1       6.388   4.961  16.832  0.00  0.00    +0.000 C 
ATOM      9  C   UNL     1       7.512   4.599  17.812  0.00  0.00    +0.000 C 
ATOM     10  C   UNL     1       6.980   5.946  15.801  0.00  0.00    +0.000 C 
ENDBRANCH   1   8
BRANCH   3  11
ATOM     11  O   UNL     1       5.009   2.687  19.248  0.00  0.00    +0.000 OA
ATOM     12  H   UNL     1       4.970   2.257  18.377  0.00  0.00    +0.000 HD
ENDBRANCH   3  11
BRANCH   4  13
ATOM     13  O   UNL     1       2.684   3.874  20.861  0.00  0.00    +0.000 OA
ATOM     14  H   UNL     1       1.887   3.494  20.443  0.00  0.00    +0.000 HD
ENDBRANCH   4  13
BRANCH   6  15
ATOM     15  C   UNL     1       1.818   6.842  20.229  0.00  0.00    +0.000 C 
BRANCH  15  16
ATOM     16  C   UNL     1       1.329   8.251  20.504  0.00  0.00    +0.000 A 
ATOM     17  C   UNL     1       1.061   8.653  21.824  0.00  0.00    +0.000 A 
ATOM     18  C   UNL     1       0.648   9.956  22.112  0.00  0.00    +0.000 A 
ATOM     19  C   UNL     1       0.504  10.890  21.086  0.00  0.00    +0.000 A 
ATOM     20  C   UNL     1       0.790  10.518  19.770  0.00  0.00    +0.000 A 
ATOM     21  C   UNL     1       1.208   9.212  19.483  0.00  0.00    +0.000 A 
ATOM     22 CL   UNL     1       1.582   8.853  17.833  0.00  0.00    +0.000 Cl
BRANCH  19  23
ATOM     23  C   UNL     1       0.078  12.227  21.380  0.00  0.00    +0.000 C 
ATOM     24  N   UNL     1      -0.272  13.305  21.621  0.00  0.00    +0.000 NA
ENDBRANCH  19  23
ENDBRANCH  15  16
ENDBRANCH   6  15
TORSDOF 6
ENDMDL
