MODEL 1
REMARK VINA RESULT:      -8.5      0.000      0.000
REMARK  Name = 
REMARK  3 active torsions:
REMARK  status: ('A' for Active; 'I' for Inactive)
REMARK    1  A    between atoms: O_1  and  C_2
REMARK    2  A    between atoms: C_6  and  C_7
REMARK    3  A    between atoms: C_9  and  C_10
REMARK                            x       y       z     vdW  Elec       q    Type
REMARK                         _______ _______ _______ _____ _____    ______ ____
ROOT
ATOM      1  C   UNL     1       0.714  12.903  18.796  0.00  0.00    +0.000 A 
ATOM      2  C   UNL     1       1.334  11.653  18.858  0.00  0.00    +0.000 A 
ATOM      3  C   UNL     1       0.611  10.476  18.626  0.00  0.00    +0.000 A 
ATOM      4  C   UNL     1      -0.714  10.664  18.258  0.00  0.00    +0.000 A 
ATOM      5  C   UNL     1      -1.323  11.885  18.546  0.00  0.00    +0.000 A 
ATOM      6  N   UNL     1      -0.641  13.025  18.786  0.00  0.00    +0.000 NA
ATOM      7  C   UNL     1      -2.770  11.911  18.315  0.00  0.00    +0.000 A 
ATOM      8  C   UNL     1      -3.746  12.196  19.280  0.00  0.00    +0.000 A 
ATOM      9  C   UNL     1      -5.103  12.035  18.959  0.00  0.00    +0.000 A 
ATOM     10  C   UNL     1      -5.489  11.699  17.655  0.00  0.00    +0.000 A 
ATOM     11  C   UNL     1      -4.530  11.343  16.716  0.00  0.00    +0.000 A 
ATOM     12  C   UNL     1      -3.207  11.316  17.126  0.00  0.00    +0.000 A 
ATOM     13  O   UNL     1      -2.332  10.473  16.459  0.00  0.00    +0.000 OA
ATOM     14  C   UNL     1      -1.575   9.714  17.460  0.00  0.00    +0.000 C 
ENDROOT
BRANCH   3  15
ATOM     15  C   UNL     1       1.238   9.152  18.834  0.00  0.00    +0.000 A 
ATOM     16  C   UNL     1       1.239   8.547  20.108  0.00  0.00    +0.000 A 
ATOM     17  C   UNL     1       1.970   7.381  20.364  0.00  0.00    +0.000 A 
ATOM     18  C   UNL     1       2.734   6.809  19.354  0.00  0.00    +0.000 A 
ATOM     19 CL   UNL     1       3.694   5.423  19.683  0.00  0.00    +0.000 Cl
ATOM     20  C   UNL     1       2.742   7.372  18.082  0.00  0.00    +0.000 A 
ATOM     21  C   UNL     1       1.987   8.522  17.824  0.00  0.00    +0.000 A 
ENDBRANCH   3  15
BRANCH   1  26
ATOM     22  C   UNL     1       3.600  15.220  17.878  0.00  0.00    +0.000 A 
ATOM     23  C   UNL     1       3.076  16.467  18.172  0.00  0.00    +0.000 A 
ATOM     24  C   UNL     1       1.768  16.561  18.659  0.00  0.00    +0.000 A 
ATOM     25  C   UNL     1       0.987  15.412  18.864  0.00  0.00    +0.000 A 
ATOM     26  C   UNL     1       1.509  14.138  18.597  0.00  0.00    +0.000 A 
ATOM     27  C   UNL     1       2.832  14.072  18.082  0.00  0.00    +0.000 A 
BRANCH  22  28
ATOM     28  O   UNL     1       4.864  15.062  17.394  0.00  0.00    +0.000 OA
ATOM     29  H   UNL     1       5.271  15.943  17.307  0.00  0.00    +0.000 HD
ENDBRANCH  22  28
ENDBRANCH   1  26
TORSDOF 3
ENDMDL
MODEL 2
REMARK VINA RESULT:      -8.3      0.926      1.298
REMARK  Name = 
REMARK  3 active torsions:
REMARK  status: ('A' for Active; 'I' for Inactive)
REMARK    1  A    between atoms: O_1  and  C_2
REMARK    2  A    between atoms: C_6  and  C_7
REMARK    3  A    between atoms: C_9  and  C_10
REMARK                            x       y       z     vdW  Elec       q    Type
REMARK                         _______ _______ _______ _____ _____    ______ ____
ROOT
ATOM      1  C   UNL     1       0.777  12.886  18.771  0.00  0.00    +0.000 A 
ATOM      2  C   UNL     1       1.399  11.638  18.828  0.00  0.00    +0.000 A 
ATOM      3  C   UNL     1       0.677  10.460  18.593  0.00  0.00    +0.000 A 
ATOM      4  C   UNL     1      -0.648  10.647  18.225  0.00  0.00    +0.000 A 
ATOM      5  C   UNL     1      -1.259  11.867  18.517  0.00  0.00    +0.000 A 
ATOM      6  N   UNL     1      -0.578  13.007  18.761  0.00  0.00    +0.000 NA
ATOM      7  C   UNL     1      -2.706  11.891  18.287  0.00  0.00    +0.000 A 
ATOM      8  C   UNL     1      -3.682  12.171  19.253  0.00  0.00    +0.000 A 
ATOM      9  C   UNL     1      -5.039  12.010  18.930  0.00  0.00    +0.000 A 
ATOM     10  C   UNL     1      -5.425  11.678  17.625  0.00  0.00    +0.000 A 
ATOM     11  C   UNL     1      -4.465  11.326  16.686  0.00  0.00    +0.000 A 
ATOM     12  C   UNL     1      -3.142  11.300  17.096  0.00  0.00    +0.000 A 
ATOM     13  O   UNL     1      -2.266  10.460  16.426  0.00  0.00    +0.000 OA
ATOM     14  C   UNL     1      -1.508   9.699  17.425  0.00  0.00    +0.000 C 
ENDROOT
BRANCH   3  15
ATOM     15  C   UNL     1       1.306   9.136  18.797  0.00  0.00    +0.000 A 
ATOM     16  C   UNL     1       1.286   8.516  20.063  0.00  0.00    +0.000 A 
ATOM     17  C   UNL     1       2.018   7.350  20.319  0.00  0.00    +0.000 A 
ATOM     18  C   UNL     1       2.802   6.794  19.316  0.00  0.00    +0.000 A 
ATOM     19 CL   UNL     1       3.762   5.407  19.646  0.00  0.00    +0.000 Cl
ATOM     20  C   UNL     1       2.831   7.372  18.052  0.00  0.00    +0.000 A 
ATOM     21  C   UNL     1       2.076   8.522  17.793  0.00  0.00    +0.000 A 
ENDBRANCH   3  15
BRANCH   1  26
ATOM     22  C   UNL     1       1.769  16.568  18.781  0.00  0.00    +0.000 A 
ATOM     23  C   UNL     1       3.048  16.526  18.250  0.00  0.00    +0.000 A 
ATOM     24  C   UNL     1       3.601  15.289  17.899  0.00  0.00    +0.000 A 
ATOM     25  C   UNL     1       2.876  14.098  18.065  0.00  0.00    +0.000 A 
ATOM     26  C   UNL     1       1.570  14.123  18.576  0.00  0.00    +0.000 A 
ATOM     27  C   UNL     1       1.040  15.389  18.946  0.00  0.00    +0.000 A 
BRANCH  22  28
ATOM     28  O   UNL     1       1.178  17.739  19.149  0.00  0.00    +0.000 OA
ATOM     29  H   UNL     1       0.841  18.177  18.347  0.00  0.00    +0.000 HD
ENDBRANCH  22  28
ENDBRANCH   1  26
TORSDOF 3
ENDMDL
MODEL 3
REMARK VINA RESULT:      -8.0      0.657      1.158
REMARK  Name = 
REMARK  3 active torsions:
REMARK  status: ('A' for Active; 'I' for Inactive)
REMARK    1  A    between atoms: O_1  and  C_2
REMARK    2  A    between atoms: C_6  and  C_7
REMARK    3  A    between atoms: C_9  and  C_10
REMARK                            x       y       z     vdW  Elec       q    Type
REMARK                         _______ _______ _______ _____ _____    ______ ____
ROOT
ATOM      1  C   UNL     1       0.249  13.362  18.997  0.00  0.00    +0.000 A 
ATOM      2  C   UNL     1       1.025  12.201  19.044  0.00  0.00    +0.000 A 
ATOM      3  C   UNL     1       0.466  10.947  18.766  0.00  0.00    +0.000 A 
ATOM      4  C   UNL     1      -0.864  10.973  18.369  0.00  0.00    +0.000 A 
ATOM      5  C   UNL     1      -1.633  12.097  18.671  0.00  0.00    +0.000 A 
ATOM      6  N   UNL     1      -1.109  13.308  18.956  0.00  0.00    +0.000 NA
ATOM      7  C   UNL     1      -3.066  11.943  18.405  0.00  0.00    +0.000 A 
ATOM      8  C   UNL     1      -4.091  12.072  19.352  0.00  0.00    +0.000 A 
ATOM      9  C   UNL     1      -5.409  11.747  18.992  0.00  0.00    +0.000 A 
ATOM     10  C   UNL     1      -5.719  11.400  17.671  0.00  0.00    +0.000 A 
ATOM     11  C   UNL     1      -4.702  11.196  16.749  0.00  0.00    +0.000 A 
ATOM     12  C   UNL     1      -3.395  11.329  17.191  0.00  0.00    +0.000 A 
ATOM     13  O   UNL     1      -2.405  10.624  16.526  0.00  0.00    +0.000 OA
ATOM     14  C   UNL     1      -1.577   9.943  17.527  0.00  0.00    +0.000 C 
ENDROOT
BRANCH   3  15
ATOM     15  C   UNL     1       1.254   9.710  18.957  0.00  0.00    +0.000 A 
ATOM     16  C   UNL     1       1.986   9.149  17.891  0.00  0.00    +0.000 A 
ATOM     17  C   UNL     1       2.596   7.894  18.002  0.00  0.00    +0.000 A 
ATOM     18  C   UNL     1       2.467   7.166  19.178  0.00  0.00    +0.000 A 
ATOM     19 CL   UNL     1       3.150   5.593  19.293  0.00  0.00    +0.000 Cl
ATOM     20  C   UNL     1       1.765   7.697  20.254  0.00  0.00    +0.000 A 
ATOM     21  C   UNL     1       1.180   8.964  20.148  0.00  0.00    +0.000 A 
ENDBRANCH   3  15
BRANCH   1  26
ATOM     22  C   UNL     1       2.911  16.056  18.549  0.00  0.00    +0.000 A 
ATOM     23  C   UNL     1       2.152  17.214  18.537  0.00  0.00    +0.000 A 
ATOM     24  C   UNL     1       0.762  17.121  18.659  0.00  0.00    +0.000 A 
ATOM     25  C   UNL     1       0.129  15.876  18.807  0.00  0.00    +0.000 A 
ATOM     26  C   UNL     1       0.882  14.694  18.848  0.00  0.00    +0.000 A 
ATOM     27  C   UNL     1       2.290  14.814  18.698  0.00  0.00    +0.000 A 
BRANCH  22  28
ATOM     28  O   UNL     1       4.268  16.078  18.426  0.00  0.00    +0.000 OA
ATOM     29  H   UNL     1       4.494  16.585  17.625  0.00  0.00    +0.000 HD
ENDBRANCH  22  28
ENDBRANCH   1  26
TORSDOF 3
ENDMDL
MODEL 4
REMARK VINA RESULT:      -8.0      8.038     10.430
REMARK  Name = 
REMARK  3 active torsions:
REMARK  status: ('A' for Active; 'I' for Inactive)
REMARK    1  A    between atoms: O_1  and  C_2
REMARK    2  A    between atoms: C_6  and  C_7
REMARK    3  A    between atoms: C_9  and  C_10
REMARK                            x       y       z     vdW  Elec       q    Type
REMARK                         _______ _______ _______ _____ _____    ______ ____
ROOT
ATOM      1  C   UNL     1       5.455   4.753  15.098  0.00  0.00    +0.000 A 
ATOM      2  C   UNL     1       6.372   5.660  15.632  0.00  0.00    +0.000 A 
ATOM      3  C   UNL     1       6.392   5.943  17.005  0.00  0.00    +0.000 A 
ATOM      4  C   UNL     1       5.505   5.198  17.770  0.00  0.00    +0.000 A 
ATOM      5  C   UNL     1       4.424   4.585  17.136  0.00  0.00    +0.000 A 
ATOM      6  N   UNL     1       4.383   4.320  15.813  0.00  0.00    +0.000 NA
ATOM      7  C   UNL     1       3.433   4.006  18.049  0.00  0.00    +0.000 A 
ATOM      8  C   UNL     1       2.076   4.351  18.105  0.00  0.00    +0.000 A 
ATOM      9  C   UNL     1       1.273   3.829  19.132  0.00  0.00    +0.000 A 
ATOM     10  C   UNL     1       1.791   2.887  20.029  0.00  0.00    +0.000 A 
ATOM     11  C   UNL     1       3.149   2.598  20.027  0.00  0.00    +0.000 A 
ATOM     12  C   UNL     1       3.952   3.286  19.131  0.00  0.00    +0.000 A 
ATOM     13  O   UNL     1       5.289   3.460  19.450  0.00  0.00    +0.000 OA
ATOM     14  C   UNL     1       5.630   4.871  19.238  0.00  0.00    +0.000 C 
ENDROOT
BRANCH   3  15
ATOM     15  C   UNL     1       7.265   7.009  17.544  0.00  0.00    +0.000 A 
ATOM     16  C   UNL     1       8.089   6.769  18.663  0.00  0.00    +0.000 A 
ATOM     17  C   UNL     1       8.790   7.805  19.291  0.00  0.00    +0.000 A 
ATOM     18  C   UNL     1       8.663   9.107  18.823  0.00  0.00    +0.000 A 
ATOM     19 CL   UNL     1       9.461  10.393  19.636  0.00  0.00    +0.000 Cl
ATOM     20  C   UNL     1       7.871   9.375  17.712  0.00  0.00    +0.000 A 
ATOM     21  C   UNL     1       7.194   8.332  17.070  0.00  0.00    +0.000 A 
ENDBRANCH   3  15
BRANCH   1  26
ATOM     22  C   UNL     1       4.799   3.116  11.717  0.00  0.00    +0.000 A 
ATOM     23  C   UNL     1       6.083   2.920  11.235  0.00  0.00    +0.000 A 
ATOM     24  C   UNL     1       7.172   3.337  12.006  0.00  0.00    +0.000 A 
ATOM     25  C   UNL     1       6.985   3.937  13.262  0.00  0.00    +0.000 A 
ATOM     26  C   UNL     1       5.694   4.119  13.779  0.00  0.00    +0.000 A 
ATOM     27  C   UNL     1       4.603   3.708  12.966  0.00  0.00    +0.000 A 
BRANCH  22  28
ATOM     28  O   UNL     1       3.696   2.739  11.011  0.00  0.00    +0.000 OA
ATOM     29  H   UNL     1       3.655   3.276  10.199  0.00  0.00    +0.000 HD
ENDBRANCH  22  28
ENDBRANCH   1  26
TORSDOF 3
ENDMDL
MODEL 5
REMARK VINA RESULT:      -7.9      1.250      1.710
REMARK  Name = 
REMARK  3 active torsions:
REMARK  status: ('A' for Active; 'I' for Inactive)
REMARK    1  A    between atoms: O_1  and  C_2
REMARK    2  A    between atoms: C_6  and  C_7
REMARK    3  A    between atoms: C_9  and  C_10
REMARK                            x       y       z     vdW  Elec       q    Type
REMARK                         _______ _______ _______ _____ _____    ______ ____
ROOT
ATOM      1  C   UNL     1       1.058  13.219  19.068  0.00  0.00    +0.000 A 
ATOM      2  C   UNL     1       1.568  11.926  18.936  0.00  0.00    +0.000 A 
ATOM      3  C   UNL     1       0.724  10.809  18.972  0.00  0.00    +0.000 A 
ATOM      4  C   UNL     1      -0.631  11.101  19.060  0.00  0.00    +0.000 A 
ATOM      5  C   UNL     1      -1.017  12.360  19.519  0.00  0.00    +0.000 A 
ATOM      6  N   UNL     1      -0.211  13.442  19.505  0.00  0.00    +0.000 NA
ATOM      7  C   UNL     1      -2.453  12.497  19.780  0.00  0.00    +0.000 A 
ATOM      8  C   UNL     1      -3.030  12.841  21.010  0.00  0.00    +0.000 A 
ATOM      9  C   UNL     1      -4.425  12.786  21.157  0.00  0.00    +0.000 A 
ATOM     10  C   UNL     1      -5.245  12.497  20.059  0.00  0.00    +0.000 A 
ATOM     11  C   UNL     1      -4.680  12.083  18.860  0.00  0.00    +0.000 A 
ATOM     12  C   UNL     1      -3.302  11.952  18.809  0.00  0.00    +0.000 A 
ATOM     13  O   UNL     1      -2.763  11.054  17.901  0.00  0.00    +0.000 OA
ATOM     14  C   UNL     1      -1.775  10.229  18.605  0.00  0.00    +0.000 C 
ENDROOT
BRANCH   3  15
ATOM     15  C   UNL     1       1.283   9.439  18.977  0.00  0.00    +0.000 A 
ATOM     16  C   UNL     1       1.271   8.661  20.153  0.00  0.00    +0.000 A 
ATOM     17  C   UNL     1       1.944   7.435  20.226  0.00  0.00    +0.000 A 
ATOM     18  C   UNL     1       2.661   6.975  19.128  0.00  0.00    +0.000 A 
ATOM     19 CL   UNL     1       3.552   5.510  19.237  0.00  0.00    +0.000 Cl
ATOM     20  C   UNL     1       2.680   7.712  17.948  0.00  0.00    +0.000 A 
ATOM     21  C   UNL     1       1.983   8.923  17.871  0.00  0.00    +0.000 A 
ENDBRANCH   3  15
BRANCH   1  26
ATOM     22  C   UNL     1       2.058  16.836  18.390  0.00  0.00    +0.000 A 
ATOM     23  C   UNL     1       3.279  16.685  17.753  0.00  0.00    +0.000 A 
ATOM     24  C   UNL     1       3.792  15.399  17.555  0.00  0.00    +0.000 A 
ATOM     25  C   UNL     1       3.083  14.263  17.979  0.00  0.00    +0.000 A 
ATOM     26  C   UNL     1       1.833  14.394  18.601  0.00  0.00    +0.000 A 
ATOM     27  C   UNL     1       1.345  15.712  18.811  0.00  0.00    +0.000 A 
BRANCH  22  28
ATOM     28  O   UNL     1       1.509  18.062  18.619  0.00  0.00    +0.000 OA
ATOM     29  H   UNL     1       1.664  18.296  19.552  0.00  0.00    +0.000 HD
ENDBRANCH  22  28
ENDBRANCH   1  26
TORSDOF 3
ENDMDL
MODEL 6
REMARK VINA RESULT:      -7.9      8.045     10.444
REMARK  Name = 
REMARK  3 active torsions:
REMARK  status: ('A' for Active; 'I' for Inactive)
REMARK    1  A    between atoms: O_1  and  C_2
REMARK    2  A    between atoms: C_6  and  C_7
REMARK    3  A    between atoms: C_9  and  C_10
REMARK                            x       y       z     vdW  Elec       q    Type
REMARK                         _______ _______ _______ _____ _____    ______ ____
ROOT
ATOM      1  C   UNL     1       5.830   5.066  15.110  0.00  0.00    +0.000 A 
ATOM      2  C   UNL     1       6.606   6.035  15.749  0.00  0.00    +0.000 A 
ATOM      3  C   UNL     1       6.474   6.274  17.123  0.00  0.00    +0.000 A 
ATOM      4  C   UNL     1       5.593   5.429  17.784  0.00  0.00    +0.000 A 
ATOM      5  C   UNL     1       4.636   4.741  17.037  0.00  0.00    +0.000 A 
ATOM      6  N   UNL     1       4.741   4.516  15.711  0.00  0.00    +0.000 NA
ATOM      7  C   UNL     1       3.623   4.049  17.839  0.00  0.00    +0.000 A 
ATOM      8  C   UNL     1       2.240   4.268  17.775  0.00  0.00    +0.000 A 
ATOM      9  C   UNL     1       1.398   3.644  18.709  0.00  0.00    +0.000 A 
ATOM     10  C   UNL     1       1.916   2.724  19.629  0.00  0.00    +0.000 A 
ATOM     11  C   UNL     1       3.290   2.559  19.749  0.00  0.00    +0.000 A 
ATOM     12  C   UNL     1       4.104   3.343  18.948  0.00  0.00    +0.000 A 
ATOM     13  O   UNL     1       5.385   3.627  19.396  0.00  0.00    +0.000 OA
ATOM     14  C   UNL     1       5.612   5.068  19.249  0.00  0.00    +0.000 C 
ENDROOT
BRANCH   3  15
ATOM     15  C   UNL     1       7.192   7.396  17.767  0.00  0.00    +0.000 A 
ATOM     16  C   UNL     1       7.037   8.716  17.295  0.00  0.00    +0.000 A 
ATOM     17  C   UNL     1       7.833   9.763  17.775  0.00  0.00    +0.000 A 
ATOM     18  C   UNL     1       8.815   9.505  18.722  0.00  0.00    +0.000 A 
ATOM     19 CL   UNL     1       9.846  10.771  19.259  0.00  0.00    +0.000 Cl
ATOM     20  C   UNL     1       8.983   8.217  19.220  0.00  0.00    +0.000 A 
ATOM     21  C   UNL     1       8.167   7.178  18.757  0.00  0.00    +0.000 A 
ENDBRANCH   3  15
BRANCH   1  26
ATOM     22  C   UNL     1       5.847   2.923  11.955  0.00  0.00    +0.000 A 
ATOM     23  C   UNL     1       6.976   3.384  11.297  0.00  0.00    +0.000 A 
ATOM     24  C   UNL     1       7.730   4.411  11.874  0.00  0.00    +0.000 A 
ATOM     25  C   UNL     1       7.370   4.969  13.111  0.00  0.00    +0.000 A 
ATOM     26  C   UNL     1       6.246   4.498  13.805  0.00  0.00    +0.000 A 
ATOM     27  C   UNL     1       5.483   3.470  13.187  0.00  0.00    +0.000 A 
BRANCH  22  28
ATOM     28  O   UNL     1       5.066   1.932  11.442  0.00  0.00    +0.000 OA
ATOM     29  H   UNL     1       5.102   1.170  12.048  0.00  0.00    +0.000 HD
ENDBRANCH  22  28
ENDBRANCH   1  26
TORSDOF 3
ENDMDL
MODEL 7
REMARK VINA RESULT:      -7.7      2.746      5.678
REMARK  Name = 
REMARK  3 active torsions:
REMARK  status: ('A' for Active; 'I' for Inactive)
REMARK    1  A    between atoms: O_1  and  C_2
REMARK    2  A    between atoms: C_6  and  C_7
REMARK    3  A    between atoms: C_9  and  C_10
REMARK                            x       y       z     vdW  Elec       q    Type
REMARK                         _______ _______ _______ _____ _____    ______ ____
ROOT
ATOM      1  C   UNL     1       1.130  12.989  18.457  0.00  0.00    +0.000 A 
ATOM      2  C   UNL     1      -0.252  13.112  18.614  0.00  0.00    +0.000 A 
ATOM      3  C   UNL     1      -1.037  12.012  18.982  0.00  0.00    +0.000 A 
ATOM      4  C   UNL     1      -0.328  10.849  19.252  0.00  0.00    +0.000 A 
ATOM      5  C   UNL     1       0.969  10.724  18.755  0.00  0.00    +0.000 A 
ATOM      6  N   UNL     1       1.733  11.772  18.381  0.00  0.00    +0.000 NA
ATOM      7  C   UNL     1       1.552   9.387  18.906  0.00  0.00    +0.000 A 
ATOM      8  C   UNL     1       2.013   8.574  17.862  0.00  0.00    +0.000 A 
ATOM      9  C   UNL     1       2.406   7.254  18.136  0.00  0.00    +0.000 A 
ATOM     10  C   UNL     1       2.441   6.783  19.455  0.00  0.00    +0.000 A 
ATOM     11  C   UNL     1       1.916   7.555  20.482  0.00  0.00    +0.000 A 
ATOM     12  C   UNL     1       1.349   8.774  20.148  0.00  0.00    +0.000 A 
ATOM     13  O   UNL     1       0.363   9.287  20.976  0.00  0.00    +0.000 OA
ATOM     14  C   UNL     1      -0.765   9.708  20.139  0.00  0.00    +0.000 C 
ENDROOT
BRANCH   3  15
ATOM     15  C   UNL     1      -2.513  12.111  19.006  0.00  0.00    +0.000 A 
ATOM     16  C   UNL     1      -3.179  12.681  20.111  0.00  0.00    +0.000 A 
ATOM     17  C   UNL     1      -4.573  12.630  20.230  0.00  0.00    +0.000 A 
ATOM     18  C   UNL     1      -5.327  11.989  19.255  0.00  0.00    +0.000 A 
ATOM     19 CL   UNL     1      -7.031  11.858  19.434  0.00  0.00    +0.000 Cl
ATOM     20  C   UNL     1      -4.701  11.432  18.145  0.00  0.00    +0.000 A 
ATOM     21  C   UNL     1      -3.310  11.508  18.016  0.00  0.00    +0.000 A 
ENDBRANCH   3  15
BRANCH   1  26
ATOM     22  C   UNL     1       4.223  15.200  18.153  0.00  0.00    +0.000 A 
ATOM     23  C   UNL     1       3.741  16.432  18.562  0.00  0.00    +0.000 A 
ATOM     24  C   UNL     1       2.395  16.552  18.925  0.00  0.00    +0.000 A 
ATOM     25  C   UNL     1       1.534  15.443  18.894  0.00  0.00    +0.000 A 
ATOM     26  C   UNL     1       2.010  14.182  18.508  0.00  0.00    +0.000 A 
ATOM     27  C   UNL     1       3.375  14.091  18.122  0.00  0.00    +0.000 A 
BRANCH  22  28
ATOM     28  O   UNL     1       5.521  15.019  17.778  0.00  0.00    +0.000 OA
ATOM     29  H   UNL     1       5.987  14.562  18.502  0.00  0.00    +0.000 HD
ENDBRANCH  22  28
ENDBRANCH   1  26
TORSDOF 3
ENDMDL
MODEL 8
REMARK VINA RESULT:      -7.7      2.883      5.812
REMARK  Name = 
REMARK  3 active torsions:
REMARK  status: ('A' for Active; 'I' for Inactive)
REMARK    1  A    between atoms: O_1  and  C_2
REMARK    2  A    between atoms: C_6  and  C_7
REMARK    3  A    between atoms: C_9  and  C_10
REMARK                            x       y       z     vdW  Elec       q    Type
REMARK                         _______ _______ _______ _____ _____    ______ ____
ROOT
ATOM      1  C   UNL     1       1.293  12.948  18.394  0.00  0.00    +0.000 A 
ATOM      2  C   UNL     1      -0.080  13.115  18.591  0.00  0.00    +0.000 A 
ATOM      3  C   UNL     1      -0.885  12.045  19.002  0.00  0.00    +0.000 A 
ATOM      4  C   UNL     1      -0.203  10.866  19.269  0.00  0.00    +0.000 A 
ATOM      5  C   UNL     1       1.073  10.694  18.734  0.00  0.00    +0.000 A 
ATOM      6  N   UNL     1       1.856  11.713  18.320  0.00  0.00    +0.000 NA
ATOM      7  C   UNL     1       1.620   9.343  18.890  0.00  0.00    +0.000 A 
ATOM      8  C   UNL     1       2.024   8.500  17.845  0.00  0.00    +0.000 A 
ATOM      9  C   UNL     1       2.385   7.173  18.129  0.00  0.00    +0.000 A 
ATOM     10  C   UNL     1       2.448   6.722  19.453  0.00  0.00    +0.000 A 
ATOM     11  C   UNL     1       1.978   7.524  20.484  0.00  0.00    +0.000 A 
ATOM     12  C   UNL     1       1.438   8.755  20.147  0.00  0.00    +0.000 A 
ATOM     13  O   UNL     1       0.494   9.310  20.996  0.00  0.00    +0.000 OA
ATOM     14  C   UNL     1      -0.646   9.753  20.187  0.00  0.00    +0.000 C 
ENDROOT
BRANCH   3  15
ATOM     15  C   UNL     1      -2.357  12.190  19.069  0.00  0.00    +0.000 A 
ATOM     16  C   UNL     1      -2.972  12.774  20.195  0.00  0.00    +0.000 A 
ATOM     17  C   UNL     1      -4.363  12.766  20.355  0.00  0.00    +0.000 A 
ATOM     18  C   UNL     1      -5.164  12.154  19.399  0.00  0.00    +0.000 A 
ATOM     19 CL   UNL     1      -6.865  12.074  19.627  0.00  0.00    +0.000 Cl
ATOM     20  C   UNL     1      -4.589  11.583  18.269  0.00  0.00    +0.000 A 
ATOM     21  C   UNL     1      -3.200  11.617  18.100  0.00  0.00    +0.000 A 
ENDBRANCH   3  15
BRANCH   1  26
ATOM     22  C   UNL     1       2.556  16.537  18.665  0.00  0.00    +0.000 A 
ATOM     23  C   UNL     1       3.915  16.383  18.443  0.00  0.00    +0.000 A 
ATOM     24  C   UNL     1       4.430  15.102  18.220  0.00  0.00    +0.000 A 
ATOM     25  C   UNL     1       3.591  13.976  18.203  0.00  0.00    +0.000 A 
ATOM     26  C   UNL     1       2.209  14.114  18.399  0.00  0.00    +0.000 A 
ATOM     27  C   UNL     1       1.714  15.423  18.647  0.00  0.00    +0.000 A 
BRANCH  22  28
ATOM     28  O   UNL     1       1.994  17.756  18.897  0.00  0.00    +0.000 OA
ATOM     29  H   UNL     1       1.183  17.624  19.421  0.00  0.00    +0.000 HD
ENDBRANCH  22  28
ENDBRANCH   1  26
TORSDOF 3
ENDMDL
MODEL 9
REMARK VINA RESULT:      -7.6      3.012      6.183
REMARK  Name = 
REMARK  3 active torsions:
REMARK  status: ('A' for Active; 'I' for Inactive)
REMARK    1  A    between atoms: O_1  and  C_2
REMARK    2  A    between atoms: C_6  and  C_7
REMARK    3  A    between atoms: C_9  and  C_10
REMARK                            x       y       z     vdW  Elec       q    Type
REMARK                         _______ _______ _______ _____ _____    ______ ____
ROOT
ATOM      1  C   UNL     1       1.408   9.801  18.272  0.00  0.00    +0.000 A 
ATOM      2  C   UNL     1       2.051  10.986  18.636  0.00  0.00    +0.000 A 
ATOM      3  C   UNL     1       1.332  12.177  18.797  0.00  0.00    +0.000 A 
ATOM      4  C   UNL     1      -0.043  12.057  18.651  0.00  0.00    +0.000 A 
ATOM      5  C   UNL     1      -0.551  10.949  17.972  0.00  0.00    +0.000 A 
ATOM      6  N   UNL     1       0.134   9.800  17.795  0.00  0.00    +0.000 NA
ATOM      7  C   UNL     1      -1.986  11.020  17.683  0.00  0.00    +0.000 A 
ATOM      8  C   UNL     1      -2.566  10.966  16.409  0.00  0.00    +0.000 A 
ATOM      9  C   UNL     1      -3.943  11.199  16.266  0.00  0.00    +0.000 A 
ATOM     10  C   UNL     1      -4.754  11.376  17.394  0.00  0.00    +0.000 A 
ATOM     11  C   UNL     1      -4.178  11.507  18.651  0.00  0.00    +0.000 A 
ATOM     12  C   UNL     1      -2.795  11.474  18.731  0.00  0.00    +0.000 A 
ATOM     13  O   UNL     1      -2.186  12.131  19.789  0.00  0.00    +0.000 OA
ATOM     14  C   UNL     1      -1.098  12.955  19.250  0.00  0.00    +0.000 C 
ENDROOT
BRANCH   3  15
ATOM     15  C   UNL     1       2.035  13.456  19.040  0.00  0.00    +0.000 A 
ATOM     16  C   UNL     1       2.476  14.253  17.963  0.00  0.00    +0.000 A 
ATOM     17  C   UNL     1       3.289  15.374  18.167  0.00  0.00    +0.000 A 
ATOM     18  C   UNL     1       3.694  15.708  19.453  0.00  0.00    +0.000 A 
ATOM     19 CL   UNL     1       4.754  17.038  19.702  0.00  0.00    +0.000 Cl
ATOM     20  C   UNL     1       3.264  14.952  20.539  0.00  0.00    +0.000 A 
ATOM     21  C   UNL     1       2.430  13.848  20.333  0.00  0.00    +0.000 A 
ENDBRANCH   3  15
BRANCH   1  26
ATOM     22  C   UNL     1       2.363   6.532  19.990  0.00  0.00    +0.000 A 
ATOM     23  C   UNL     1       3.203   5.949  19.056  0.00  0.00    +0.000 A 
ATOM     24  C   UNL     1       3.451   6.613  17.851  0.00  0.00    +0.000 A 
ATOM     25  C   UNL     1       2.873   7.864  17.580  0.00  0.00    +0.000 A 
ATOM     26  C   UNL     1       2.041   8.484  18.524  0.00  0.00    +0.000 A 
ATOM     27  C   UNL     1       1.787   7.778  19.731  0.00  0.00    +0.000 A 
BRANCH  22  28
ATOM     28  O   UNL     1       2.075   5.933  21.179  0.00  0.00    +0.000 OA
ATOM     29  H   UNL     1       2.805   5.328  21.401  0.00  0.00    +0.000 HD
ENDBRANCH  22  28
ENDBRANCH   1  26
TORSDOF 3
ENDMDL
