MODEL 1
REMARK VINA RESULT:      -6.3      0.000      0.000
REMARK  Name = 
REMARK  11 active torsions:
REMARK  status: ('A' for Active; 'I' for Inactive)
REMARK    1  A    between atoms: C_1  and  C_2
REMARK    2  A    between atoms: C_2  and  N_3
REMARK    3  A    between atoms: N_9  and  C_10
REMARK    4  A    between atoms: C_11  and  C_12
REMARK    5  A    between atoms: C_12  and  C_13
REMARK    6  A    between atoms: C_15  and  S_16
REMARK    7  A    between atoms: S_16  and  N_19
REMARK    8  A    between atoms: N_19  and  C_20
REMARK    9  A    between atoms: C_20  and  C_21
REMARK   10  A    between atoms: C_23  and  C_24
REMARK   11  A    between atoms: C_24  and  C_25
REMARK                            x       y       z     vdW  Elec       q    Type
REMARK                         _______ _______ _______ _____ _____    ______ ____
ROOT
ATOM      1  C   UNL     1       1.691   8.212  19.562  0.00  0.00    +0.000 A 
ATOM      2  C   UNL     1       2.580   7.452  18.761  0.00  0.00    +0.000 A 
ATOM      3  C   UNL     1       2.858   6.120  19.129  0.00  0.00    +0.000 A 
ATOM      4  C   UNL     1       2.276   5.552  20.258  0.00  0.00    +0.000 A 
ATOM      5  C   UNL     1       1.402   6.301  21.047  0.00  0.00    +0.000 A 
ATOM      6  C   UNL     1       1.112   7.646  20.727  0.00  0.00    +0.000 A 
ENDROOT
BRANCH   1  13
ATOM      7  N   UNL     1      -2.050  11.061  17.164  0.00  0.00    +0.000 N 
ATOM      8  C   UNL     1      -1.008  11.791  17.655  0.00  0.00    +0.000 C 
ATOM      9  N   UNL     1      -0.914  13.072  17.603  0.00  0.00    +0.000 NA
ATOM     10  N   UNL     1       0.050  11.173  18.271  0.00  0.00    +0.000 N 
ATOM     11  C   UNL     1       0.264   9.815  18.432  0.00  0.00    +0.000 C 
ATOM     12  O   UNL     1      -0.471   8.954  17.964  0.00  0.00    +0.000 OA
ATOM     13  N   UNL     1       1.408   9.561  19.201  0.00  0.00    +0.000 N 
ATOM     14  H   UNL     1      -1.862  10.053  17.202  0.00  0.00    +0.000 HD
ATOM     15  H   UNL     1      -1.753  13.443  17.172  0.00  0.00    +0.000 HD
ATOM     16  H   UNL     1       0.777  11.822  18.527  0.00  0.00    +0.000 HD
ATOM     17  H   UNL     1       1.438  10.205  19.980  0.00  0.00    +0.000 HD
BRANCH   7  19
ATOM     18  C   UNL     1      -2.914  10.352  14.986  0.00  0.00    +0.000 C 
ATOM     19  C   UNL     1      -2.836  11.468  16.013  0.00  0.00    +0.000 C 
ENDBRANCH   7  19
ENDBRANCH   1  13
BRANCH   4  20
ATOM     20  S   UNL     1       2.565   3.838  20.617  0.00  0.00    +0.000 S 
ATOM     21  O   UNL     1       3.899   3.523  20.164  0.00  0.00    +0.000 OA
ATOM     22  O   UNL     1       2.139   3.560  21.972  0.00  0.00    +0.000 OA
BRANCH  20  23
ATOM     23  N   UNL     1       1.520   3.016  19.572  0.00  0.00    +0.000 NA
ATOM     24  H   UNL     1       0.735   3.626  19.335  0.00  0.00    +0.000 HD
BRANCH  23  25
ATOM     25  C   UNL     1       2.125   2.258  18.468  0.00  0.00    +0.000 C 
ATOM     26  C   UNL     1       2.283   3.161  17.257  0.00  0.00    +0.000 C 
ENDBRANCH  23  25
ENDBRANCH  20  23
ENDBRANCH   4  20
BRANCH   2  27
ATOM     27  C   UNL     1       3.285   7.968  17.522  0.00  0.00    +0.000 C 
ATOM     28  C   UNL     1       4.411   7.057  17.039  0.00  0.00    +0.000 C 
ENDBRANCH   2  27
BRANCH   6  29
ATOM     29  C   UNL     1       0.153   8.375  21.651  0.00  0.00    +0.000 C 
ATOM     30  C   UNL     1       0.817   9.282  22.682  0.00  0.00    +0.000 C 
ENDBRANCH   6  29
TORSDOF 7
ENDMDL
MODEL 2
REMARK VINA RESULT:      -6.1      2.230      2.769
REMARK  Name = 
REMARK  11 active torsions:
REMARK  status: ('A' for Active; 'I' for Inactive)
REMARK    1  A    between atoms: C_1  and  C_2
REMARK    2  A    between atoms: C_2  and  N_3
REMARK    3  A    between atoms: N_9  and  C_10
REMARK    4  A    between atoms: C_11  and  C_12
REMARK    5  A    between atoms: C_12  and  C_13
REMARK    6  A    between atoms: C_15  and  S_16
REMARK    7  A    between atoms: S_16  and  N_19
REMARK    8  A    between atoms: N_19  and  C_20
REMARK    9  A    between atoms: C_20  and  C_21
REMARK   10  A    between atoms: C_23  and  C_24
REMARK   11  A    between atoms: C_24  and  C_25
REMARK                            x       y       z     vdW  Elec       q    Type
REMARK                         _______ _______ _______ _____ _____    ______ ____
ROOT
ATOM      1  C   UNL     1       0.626   9.638  20.022  0.00  0.00    +0.000 A 
ATOM      2  C   UNL     1       1.467   9.441  18.899  0.00  0.00    +0.000 A 
ATOM      3  C   UNL     1       2.179   8.231  18.785  0.00  0.00    +0.000 A 
ATOM      4  C   UNL     1       2.066   7.239  19.755  0.00  0.00    +0.000 A 
ATOM      5  C   UNL     1       1.240   7.434  20.863  0.00  0.00    +0.000 A 
ATOM      6  C   UNL     1       0.524   8.641  21.027  0.00  0.00    +0.000 A 
ENDROOT
BRANCH   1  13
ATOM      7  N   UNL     1      -4.135  11.660  18.967  0.00  0.00    +0.000 N 
ATOM      8  C   UNL     1      -3.282  12.517  19.598  0.00  0.00    +0.000 C 
ATOM      9  N   UNL     1      -3.574  13.713  19.966  0.00  0.00    +0.000 NA
ATOM     10  N   UNL     1      -2.000  12.132  19.900  0.00  0.00    +0.000 N 
ATOM     11  C   UNL     1      -1.377  10.936  19.587  0.00  0.00    +0.000 C 
ATOM     12  O   UNL     1      -1.899  10.057  18.914  0.00  0.00    +0.000 OA
ATOM     13  N   UNL     1      -0.095  10.862  20.148  0.00  0.00    +0.000 N 
ATOM     14  H   UNL     1      -3.658  10.806  18.656  0.00  0.00    +0.000 HD
ATOM     15  H   UNL     1      -4.545  13.895  19.740  0.00  0.00    +0.000 HD
ATOM     16  H   UNL     1      -1.460  12.879  20.305  0.00  0.00    +0.000 HD
ATOM     17  H   UNL     1      -0.120  11.223  21.092  0.00  0.00    +0.000 HD
BRANCH   7  19
ATOM     18  C   UNL     1      -4.860  11.756  16.631  0.00  0.00    +0.000 C 
ATOM     19  C   UNL     1      -5.190  12.101  18.072  0.00  0.00    +0.000 C 
ENDBRANCH   7  19
ENDBRANCH   1  13
BRANCH   4  20
ATOM     20  S   UNL     1       2.892   5.687  19.513  0.00  0.00    +0.000 S 
ATOM     21  O   UNL     1       2.235   5.017  18.415  0.00  0.00    +0.000 OA
ATOM     22  O   UNL     1       4.322   5.905  19.521  0.00  0.00    +0.000 OA
BRANCH  20  23
ATOM     23  N   UNL     1       2.501   4.793  20.894  0.00  0.00    +0.000 NA
ATOM     24  H   UNL     1       2.482   5.417  21.703  0.00  0.00    +0.000 HD
BRANCH  23  25
ATOM     25  C   UNL     1       1.404   3.821  20.784  0.00  0.00    +0.000 C 
ATOM     26  C   UNL     1       1.698   2.619  21.664  0.00  0.00    +0.000 C 
ENDBRANCH  23  25
ENDBRANCH  20  23
ENDBRANCH   4  20
BRANCH   2  27
ATOM     27  C   UNL     1       1.682  10.454  17.790  0.00  0.00    +0.000 C 
ATOM     28  C   UNL     1       2.421  11.709  18.247  0.00  0.00    +0.000 C 
ENDBRANCH   2  27
BRANCH   6  29
ATOM     29  C   UNL     1      -0.344   8.756  22.266  0.00  0.00    +0.000 C 
ATOM     30  C   UNL     1       0.285   9.525  23.424  0.00  0.00    +0.000 C 
ENDBRANCH   6  29
TORSDOF 7
ENDMDL
MODEL 3
REMARK VINA RESULT:      -6.1      0.176      2.665
REMARK  Name = 
REMARK  11 active torsions:
REMARK  status: ('A' for Active; 'I' for Inactive)
REMARK    1  A    between atoms: C_1  and  C_2
REMARK    2  A    between atoms: C_2  and  N_3
REMARK    3  A    between atoms: N_9  and  C_10
REMARK    4  A    between atoms: C_11  and  C_12
REMARK    5  A    between atoms: C_12  and  C_13
REMARK    6  A    between atoms: C_15  and  S_16
REMARK    7  A    between atoms: S_16  and  N_19
REMARK    8  A    between atoms: N_19  and  C_20
REMARK    9  A    between atoms: C_20  and  C_21
REMARK   10  A    between atoms: C_23  and  C_24
REMARK   11  A    between atoms: C_24  and  C_25
REMARK                            x       y       z     vdW  Elec       q    Type
REMARK                         _______ _______ _______ _____ _____    ______ ____
ROOT
ATOM      1  C   UNL     1       1.673   8.180  19.561  0.00  0.00    +0.000 A 
ATOM      2  C   UNL     1       1.067   7.592  20.700  0.00  0.00    +0.000 A 
ATOM      3  C   UNL     1       1.354   6.246  21.004  0.00  0.00    +0.000 A 
ATOM      4  C   UNL     1       2.215   5.498  20.206  0.00  0.00    +0.000 A 
ATOM      5  C   UNL     1       2.809   6.077  19.083  0.00  0.00    +0.000 A 
ATOM      6  C   UNL     1       2.533   7.417  18.730  0.00  0.00    +0.000 A 
ENDROOT
BRANCH   1  13
ATOM      7  N   UNL     1      -2.000  11.073  17.110  0.00  0.00    +0.000 N 
ATOM      8  C   UNL     1      -0.994  11.797  17.679  0.00  0.00    +0.000 C 
ATOM      9  N   UNL     1      -0.919  13.080  17.684  0.00  0.00    +0.000 NA
ATOM     10  N   UNL     1       0.045  11.169  18.317  0.00  0.00    +0.000 N 
ATOM     11  C   UNL     1       0.274   9.809  18.432  0.00  0.00    +0.000 C 
ATOM     12  O   UNL     1      -0.425   8.958  17.896  0.00  0.00    +0.000 OA
ATOM     13  N   UNL     1       1.384   9.539  19.243  0.00  0.00    +0.000 N 
ATOM     14  H   UNL     1      -1.797  10.067  17.115  0.00  0.00    +0.000 HD
ATOM     15  H   UNL     1      -1.742  13.457  17.230  0.00  0.00    +0.000 HD
ATOM     16  H   UNL     1       0.749  11.817  18.635  0.00  0.00    +0.000 HD
ATOM     17  H   UNL     1       1.367  10.151  20.049  0.00  0.00    +0.000 HD
BRANCH   7  19
ATOM     18  C   UNL     1      -3.464  10.356  15.283  0.00  0.00    +0.000 C 
ATOM     19  C   UNL     1      -2.738  11.517  15.941  0.00  0.00    +0.000 C 
ENDBRANCH   7  19
ENDBRANCH   1  13
BRANCH   4  20
ATOM     20  S   UNL     1       2.636   3.844  20.691  0.00  0.00    +0.000 S 
ATOM     21  O   UNL     1       3.991   3.600  20.255  0.00  0.00    +0.000 OA
ATOM     22  O   UNL     1       2.233   3.637  22.066  0.00  0.00    +0.000 OA
BRANCH  20  23
ATOM     23  N   UNL     1       1.658   2.868  19.717  0.00  0.00    +0.000 NA
ATOM     24  H   UNL     1       0.816   3.387  19.460  0.00  0.00    +0.000 HD
BRANCH  23  25
ATOM     25  C   UNL     1       2.316   2.104  18.647  0.00  0.00    +0.000 C 
ATOM     26  C   UNL     1       2.338   2.929  17.372  0.00  0.00    +0.000 C 
ENDBRANCH  23  25
ENDBRANCH  20  23
ENDBRANCH   4  20
BRANCH   2  27
ATOM     27  C   UNL     1       0.102   8.300  21.631  0.00  0.00    +0.000 C 
ATOM     28  C   UNL     1       0.789   9.232  22.625  0.00  0.00    +0.000 C 
ENDBRANCH   2  27
BRANCH   6  29
ATOM     29  C   UNL     1       3.226   7.952  17.490  0.00  0.00    +0.000 C 
ATOM     30  C   UNL     1       4.388   7.103  16.984  0.00  0.00    +0.000 C 
ENDBRANCH   6  29
TORSDOF 7
ENDMDL
MODEL 4
REMARK VINA RESULT:      -6.0      3.925      8.042
REMARK  Name = 
REMARK  11 active torsions:
REMARK  status: ('A' for Active; 'I' for Inactive)
REMARK    1  A    between atoms: C_1  and  C_2
REMARK    2  A    between atoms: C_2  and  N_3
REMARK    3  A    between atoms: N_9  and  C_10
REMARK    4  A    between atoms: C_11  and  C_12
REMARK    5  A    between atoms: C_12  and  C_13
REMARK    6  A    between atoms: C_15  and  S_16
REMARK    7  A    between atoms: S_16  and  N_19
REMARK    8  A    between atoms: N_19  and  C_20
REMARK    9  A    between atoms: C_20  and  C_21
REMARK   10  A    between atoms: C_23  and  C_24
REMARK   11  A    between atoms: C_24  and  C_25
REMARK                            x       y       z     vdW  Elec       q    Type
REMARK                         _______ _______ _______ _____ _____    ______ ____
ROOT
ATOM      1  C   UNL     1      -0.370  11.153  18.760  0.00  0.00    +0.000 A 
ATOM      2  C   UNL     1      -1.652  10.900  18.209  0.00  0.00    +0.000 A 
ATOM      3  C   UNL     1      -2.778  11.506  18.800  0.00  0.00    +0.000 A 
ATOM      4  C   UNL     1      -2.646  12.339  19.906  0.00  0.00    +0.000 A 
ATOM      5  C   UNL     1      -1.385  12.586  20.450  0.00  0.00    +0.000 A 
ATOM      6  C   UNL     1      -0.231  11.983  19.902  0.00  0.00    +0.000 A 
ENDROOT
BRANCH   1  13
ATOM      7  N   UNL     1       2.434   6.691  19.054  0.00  0.00    +0.000 N 
ATOM      8  C   UNL     1       2.863   7.569  18.103  0.00  0.00    +0.000 C 
ATOM      9  N   UNL     1       3.838   7.361  17.291  0.00  0.00    +0.000 NA
ATOM     10  N   UNL     1       2.246   8.783  17.944  0.00  0.00    +0.000 N 
ATOM     11  C   UNL     1       1.213   9.316  18.694  0.00  0.00    +0.000 C 
ATOM     12  O   UNL     1       0.741   8.767  19.682  0.00  0.00    +0.000 OA
ATOM     13  N   UNL     1       0.774  10.541  18.172  0.00  0.00    +0.000 N 
ATOM     14  H   UNL     1       1.726   7.108  19.669  0.00  0.00    +0.000 HD
ATOM     15  H   UNL     1       4.204   6.431  17.454  0.00  0.00    +0.000 HD
ATOM     16  H   UNL     1       2.703   9.358  17.253  0.00  0.00    +0.000 HD
ATOM     17  H   UNL     1       0.729  10.478  17.163  0.00  0.00    +0.000 HD
BRANCH   7  19
ATOM     18  C   UNL     1       2.518   4.778  20.580  0.00  0.00    +0.000 C 
ATOM     19  C   UNL     1       3.313   5.750  19.725  0.00  0.00    +0.000 C 
ENDBRANCH   7  19
ENDBRANCH   1  13
BRANCH   4  20
ATOM     20  S   UNL     1      -4.078  13.170  20.546  0.00  0.00    +0.000 S 
ATOM     21  O   UNL     1      -4.632  12.335  21.586  0.00  0.00    +0.000 OA
ATOM     22  O   UNL     1      -3.752  14.560  20.784  0.00  0.00    +0.000 OA
BRANCH  20  23
ATOM     23  N   UNL     1      -5.190  13.114  19.273  0.00  0.00    +0.000 NA
ATOM     24  H   UNL     1      -4.690  12.945  18.399  0.00  0.00    +0.000 HD
BRANCH  23  25
ATOM     25  C   UNL     1      -6.425  12.347  19.487  0.00  0.00    +0.000 C 
ATOM     26  C   UNL     1      -6.489  11.198  18.495  0.00  0.00    +0.000 C 
ENDBRANCH  23  25
ENDBRANCH  20  23
ENDBRANCH   4  20
BRANCH   2  27
ATOM     27  C   UNL     1      -1.920   9.999  17.019  0.00  0.00    +0.000 C 
ATOM     28  C   UNL     1      -2.686  10.689  15.893  0.00  0.00    +0.000 C 
ENDBRANCH   2  27
BRANCH   6  29
ATOM     29  C   UNL     1       1.092  12.313  20.568  0.00  0.00    +0.000 C 
ATOM     30  C   UNL     1       1.820  13.524  19.992  0.00  0.00    +0.000 C 
ENDBRANCH   6  29
TORSDOF 7
ENDMDL
MODEL 5
REMARK VINA RESULT:      -6.0      4.162      8.209
REMARK  Name = 
REMARK  11 active torsions:
REMARK  status: ('A' for Active; 'I' for Inactive)
REMARK    1  A    between atoms: C_1  and  C_2
REMARK    2  A    between atoms: C_2  and  N_3
REMARK    3  A    between atoms: N_9  and  C_10
REMARK    4  A    between atoms: C_11  and  C_12
REMARK    5  A    between atoms: C_12  and  C_13
REMARK    6  A    between atoms: C_15  and  S_16
REMARK    7  A    between atoms: S_16  and  N_19
REMARK    8  A    between atoms: N_19  and  C_20
REMARK    9  A    between atoms: C_20  and  C_21
REMARK   10  A    between atoms: C_23  and  C_24
REMARK   11  A    between atoms: C_24  and  C_25
REMARK                            x       y       z     vdW  Elec       q    Type
REMARK                         _______ _______ _______ _____ _____    ______ ____
ROOT
ATOM      1  C   UNL     1      -0.149  11.287  18.884  0.00  0.00    +0.000 A 
ATOM      2  C   UNL     1       0.103  12.186  19.951  0.00  0.00    +0.000 A 
ATOM      3  C   UNL     1      -0.983  12.853  20.551  0.00  0.00    +0.000 A 
ATOM      4  C   UNL     1      -2.286  12.641  20.111  0.00  0.00    +0.000 A 
ATOM      5  C   UNL     1      -2.535  11.758  19.059  0.00  0.00    +0.000 A 
ATOM      6  C   UNL     1      -1.473  11.084  18.415  0.00  0.00    +0.000 A 
ENDROOT
BRANCH   1  13
ATOM      7  N   UNL     1       2.414   6.679  19.119  0.00  0.00    +0.000 N 
ATOM      8  C   UNL     1       2.865   7.531  18.154  0.00  0.00    +0.000 C 
ATOM      9  N   UNL     1       3.805   7.268  17.317  0.00  0.00    +0.000 NA
ATOM     10  N   UNL     1       2.312   8.777  18.007  0.00  0.00    +0.000 N 
ATOM     11  C   UNL     1       1.329   9.367  18.782  0.00  0.00    +0.000 C 
ATOM     12  O   UNL     1       0.855   8.846  19.785  0.00  0.00    +0.000 OA
ATOM     13  N   UNL     1       0.944  10.612  18.268  0.00  0.00    +0.000 N 
ATOM     14  H   UNL     1       1.747   7.136  19.751  0.00  0.00    +0.000 HD
ATOM     15  H   UNL     1       4.124   6.320  17.473  0.00  0.00    +0.000 HD
ATOM     16  H   UNL     1       2.780   9.325  17.302  0.00  0.00    +0.000 HD
ATOM     17  H   UNL     1       0.868  10.550  17.261  0.00  0.00    +0.000 HD
BRANCH   7  19
ATOM     18  C   UNL     1       2.434   4.763  20.642  0.00  0.00    +0.000 C 
ATOM     19  C   UNL     1       3.259   5.693  19.770  0.00  0.00    +0.000 C 
ENDBRANCH   7  19
ENDBRANCH   1  13
BRANCH   4  20
ATOM     20  S   UNL     1      -3.633  13.414  20.970  0.00  0.00    +0.000 S 
ATOM     21  O   UNL     1      -3.104  14.580  21.638  0.00  0.00    +0.000 OA
ATOM     22  O   UNL     1      -4.773  13.500  20.083  0.00  0.00    +0.000 OA
BRANCH  20  23
ATOM     23  N   UNL     1      -4.020  12.318  22.199  0.00  0.00    +0.000 NA
ATOM     24  H   UNL     1      -4.070  11.377  21.805  0.00  0.00    +0.000 HD
BRANCH  23  25
ATOM     25  C   UNL     1      -3.315  12.462  23.481  0.00  0.00    +0.000 C 
ATOM     26  C   UNL     1      -4.321  12.452  24.619  0.00  0.00    +0.000 C 
ENDBRANCH  23  25
ENDBRANCH  20  23
ENDBRANCH   4  20
BRANCH   2  27
ATOM     27  C   UNL     1       1.478  12.510  20.503  0.00  0.00    +0.000 C 
ATOM     28  C   UNL     1       1.675  13.991  20.815  0.00  0.00    +0.000 C 
ENDBRANCH   2  27
BRANCH   6  29
ATOM     29  C   UNL     1      -1.847  10.148  17.281  0.00  0.00    +0.000 C 
ATOM     30  C   UNL     1      -2.672  10.784  16.166  0.00  0.00    +0.000 C 
ENDBRANCH   6  29
TORSDOF 7
ENDMDL
MODEL 6
REMARK VINA RESULT:      -5.9      2.201      2.634
REMARK  Name = 
REMARK  11 active torsions:
REMARK  status: ('A' for Active; 'I' for Inactive)
REMARK    1  A    between atoms: C_1  and  C_2
REMARK    2  A    between atoms: C_2  and  N_3
REMARK    3  A    between atoms: N_9  and  C_10
REMARK    4  A    between atoms: C_11  and  C_12
REMARK    5  A    between atoms: C_12  and  C_13
REMARK    6  A    between atoms: C_15  and  S_16
REMARK    7  A    between atoms: S_16  and  N_19
REMARK    8  A    between atoms: N_19  and  C_20
REMARK    9  A    between atoms: C_20  and  C_21
REMARK   10  A    between atoms: C_23  and  C_24
REMARK   11  A    between atoms: C_24  and  C_25
REMARK                            x       y       z     vdW  Elec       q    Type
REMARK                         _______ _______ _______ _____ _____    ______ ____
ROOT
ATOM      1  C   UNL     1       0.610   9.602  19.891  0.00  0.00    +0.000 A 
ATOM      2  C   UNL     1       1.472   9.518  18.769  0.00  0.00    +0.000 A 
ATOM      3  C   UNL     1       2.262   8.363  18.603  0.00  0.00    +0.000 A 
ATOM      4  C   UNL     1       2.204   7.316  19.519  0.00  0.00    +0.000 A 
ATOM      5  C   UNL     1       1.357   7.400  20.624  0.00  0.00    +0.000 A 
ATOM      6  C   UNL     1       0.563   8.549  20.841  0.00  0.00    +0.000 A 
ENDROOT
BRANCH   1  13
ATOM      7  N   UNL     1      -4.138  11.499  18.580  0.00  0.00    +0.000 N 
ATOM      8  C   UNL     1      -3.399  12.321  19.379  0.00  0.00    +0.000 C 
ATOM      9  N   UNL     1      -3.794  13.455  19.839  0.00  0.00    +0.000 NA
ATOM     10  N   UNL     1      -2.133  11.966  19.766  0.00  0.00    +0.000 N 
ATOM     11  C   UNL     1      -1.414  10.843  19.395  0.00  0.00    +0.000 C 
ATOM     12  O   UNL     1      -1.819  10.018  18.585  0.00  0.00    +0.000 OA
ATOM     13  N   UNL     1      -0.188  10.768  20.070  0.00  0.00    +0.000 N 
ATOM     14  H   UNL     1      -3.586  10.707  18.231  0.00  0.00    +0.000 HD
ATOM     15  H   UNL     1      -4.748  13.614  19.537  0.00  0.00    +0.000 HD
ATOM     16  H   UNL     1      -1.677  12.690  20.299  0.00  0.00    +0.000 HD
ATOM     17  H   UNL     1      -0.324  11.023  21.040  0.00  0.00    +0.000 HD
BRANCH   7  19
ATOM     18  C   UNL     1      -6.532  11.620  18.084  0.00  0.00    +0.000 C 
ATOM     19  C   UNL     1      -5.128  11.985  17.635  0.00  0.00    +0.000 C 
ENDBRANCH   7  19
ENDBRANCH   1  13
BRANCH   4  20
ATOM     20  S   UNL     1       3.129   5.834  19.207  0.00  0.00    +0.000 S 
ATOM     21  O   UNL     1       4.360   6.224  18.559  0.00  0.00    +0.000 OA
ATOM     22  O   UNL     1       3.128   5.016  20.401  0.00  0.00    +0.000 OA
BRANCH  20  23
ATOM     23  N   UNL     1       2.226   5.025  18.029  0.00  0.00    +0.000 NA
ATOM     24  H   UNL     1       2.510   5.355  17.105  0.00  0.00    +0.000 HD
BRANCH  23  25
ATOM     25  C   UNL     1       2.051   3.575  18.188  0.00  0.00    +0.000 C 
ATOM     26  C   UNL     1       3.236   2.848  17.576  0.00  0.00    +0.000 C 
ENDBRANCH  23  25
ENDBRANCH  20  23
ENDBRANCH   4  20
BRANCH   2  27
ATOM     27  C   UNL     1       1.633  10.598  17.718  0.00  0.00    +0.000 C 
ATOM     28  C   UNL     1       2.383  11.829  18.219  0.00  0.00    +0.000 C 
ENDBRANCH   2  27
BRANCH   6  29
ATOM     29  C   UNL     1      -0.322   8.543  22.074  0.00  0.00    +0.000 C 
ATOM     30  C   UNL     1       0.139   9.460  23.203  0.00  0.00    +0.000 C 
ENDBRANCH   6  29
TORSDOF 7
ENDMDL
MODEL 7
REMARK VINA RESULT:      -5.8      4.544      8.442
REMARK  Name = 
REMARK  11 active torsions:
REMARK  status: ('A' for Active; 'I' for Inactive)
REMARK    1  A    between atoms: C_1  and  C_2
REMARK    2  A    between atoms: C_2  and  N_3
REMARK    3  A    between atoms: N_9  and  C_10
REMARK    4  A    between atoms: C_11  and  C_12
REMARK    5  A    between atoms: C_12  and  C_13
REMARK    6  A    between atoms: C_15  and  S_16
REMARK    7  A    between atoms: S_16  and  N_19
REMARK    8  A    between atoms: N_19  and  C_20
REMARK    9  A    between atoms: C_20  and  C_21
REMARK   10  A    between atoms: C_23  and  C_24
REMARK   11  A    between atoms: C_24  and  C_25
REMARK                            x       y       z     vdW  Elec       q    Type
REMARK                         _______ _______ _______ _____ _____    ______ ____
ROOT
ATOM      1  C   UNL     1      -2.260  11.616  18.491  0.00  0.00    +0.000 A 
ATOM      2  C   UNL     1      -3.407  11.063  17.867  0.00  0.00    +0.000 A 
ATOM      3  C   UNL     1      -4.680  11.375  18.385  0.00  0.00    +0.000 A 
ATOM      4  C   UNL     1      -4.820  12.210  19.489  0.00  0.00    +0.000 A 
ATOM      5  C   UNL     1      -3.691  12.752  20.104  0.00  0.00    +0.000 A 
ATOM      6  C   UNL     1      -2.394  12.449  19.631  0.00  0.00    +0.000 A 
ENDROOT
BRANCH   1  13
ATOM      7  N   UNL     1       1.512   7.956  18.983  0.00  0.00    +0.000 N 
ATOM      8  C   UNL     1       1.774   8.920  18.055  0.00  0.00    +0.000 C 
ATOM      9  N   UNL     1       2.818   8.960  17.305  0.00  0.00    +0.000 NA
ATOM     10  N   UNL     1       0.894   9.952  17.851  0.00  0.00    +0.000 N 
ATOM     11  C   UNL     1      -0.281  10.214  18.533  0.00  0.00    +0.000 C 
ATOM     12  O   UNL     1      -0.666   9.559  19.494  0.00  0.00    +0.000 OA
ATOM     13  N   UNL     1      -0.968  11.302  17.977  0.00  0.00    +0.000 N 
ATOM     14  H   UNL     1       0.689   8.186  19.551  0.00  0.00    +0.000 HD
ATOM     15  H   UNL     1       3.387   8.143  17.496  0.00  0.00    +0.000 HD
ATOM     16  H   UNL     1       1.240  10.626  17.186  0.00  0.00    +0.000 HD
ATOM     17  H   UNL     1      -0.936  11.239  16.968  0.00  0.00    +0.000 HD
BRANCH   7  19
ATOM     18  C   UNL     1       2.165   5.796  19.932  0.00  0.00    +0.000 C 
ATOM     19  C   UNL     1       2.549   7.248  19.712  0.00  0.00    +0.000 C 
ENDBRANCH   7  19
ENDBRANCH   1  13
BRANCH   4  20
ATOM     20  S   UNL     1      -6.446  12.666  20.035  0.00  0.00    +0.000 S 
ATOM     21  O   UNL     1      -6.321  13.901  20.773  0.00  0.00    +0.000 OA
ATOM     22  O   UNL     1      -7.370  12.534  18.929  0.00  0.00    +0.000 OA
BRANCH  20  23
ATOM     23  N   UNL     1      -6.842  11.486  21.180  0.00  0.00    +0.000 NA
ATOM     24  H   UNL     1      -6.889  11.919  22.104  0.00  0.00    +0.000 HD
BRANCH  23  25
ATOM     25  C   UNL     1      -7.915  10.543  20.836  0.00  0.00    +0.000 C 
ATOM     26  C   UNL     1      -7.318   9.309  20.181  0.00  0.00    +0.000 C 
ENDBRANCH  23  25
ENDBRANCH  20  23
ENDBRANCH   4  20
BRANCH   2  27
ATOM     27  C   UNL     1      -3.377  10.129  16.673  0.00  0.00    +0.000 C 
ATOM     28  C   UNL     1      -3.170  10.849  15.343  0.00  0.00    +0.000 C 
ENDBRANCH   2  27
BRANCH   6  29
ATOM     29  C   UNL     1      -1.232  13.086  20.371  0.00  0.00    +0.000 C 
ATOM     30  C   UNL     1      -1.086  14.591  20.167  0.00  0.00    +0.000 C 
ENDBRANCH   6  29
TORSDOF 7
ENDMDL
MODEL 8
REMARK VINA RESULT:      -5.8      2.192      2.784
REMARK  Name = 
REMARK  11 active torsions:
REMARK  status: ('A' for Active; 'I' for Inactive)
REMARK    1  A    between atoms: C_1  and  C_2
REMARK    2  A    between atoms: C_2  and  N_3
REMARK    3  A    between atoms: N_9  and  C_10
REMARK    4  A    between atoms: C_11  and  C_12
REMARK    5  A    between atoms: C_12  and  C_13
REMARK    6  A    between atoms: C_15  and  S_16
REMARK    7  A    between atoms: S_16  and  N_19
REMARK    8  A    between atoms: N_19  and  C_20
REMARK    9  A    between atoms: C_20  and  C_21
REMARK   10  A    between atoms: C_23  and  C_24
REMARK   11  A    between atoms: C_24  and  C_25
REMARK                            x       y       z     vdW  Elec       q    Type
REMARK                         _______ _______ _______ _____ _____    ______ ____
ROOT
ATOM      1  C   UNL     1       0.664   9.485  19.908  0.00  0.00    +0.000 A 
ATOM      2  C   UNL     1       1.510   9.349  18.779  0.00  0.00    +0.000 A 
ATOM      3  C   UNL     1       2.283   8.179  18.644  0.00  0.00    +0.000 A 
ATOM      4  C   UNL     1       2.225   7.167  19.599  0.00  0.00    +0.000 A 
ATOM      5  C   UNL     1       1.394   7.302  20.712  0.00  0.00    +0.000 A 
ATOM      6  C   UNL     1       0.618   8.468  20.897  0.00  0.00    +0.000 A 
ENDROOT
BRANCH   1  13
ATOM      7  N   UNL     1      -4.064  11.406  18.562  0.00  0.00    +0.000 N 
ATOM      8  C   UNL     1      -3.310  12.242  19.332  0.00  0.00    +0.000 C 
ATOM      9  N   UNL     1      -3.687  13.395  19.758  0.00  0.00    +0.000 NA
ATOM     10  N   UNL     1      -2.046  11.882  19.723  0.00  0.00    +0.000 N 
ATOM     11  C   UNL     1      -1.345  10.738  19.384  0.00  0.00    +0.000 C 
ATOM     12  O   UNL     1      -1.765   9.895  18.601  0.00  0.00    +0.000 OA
ATOM     13  N   UNL     1      -0.117  10.667  20.056  0.00  0.00    +0.000 N 
ATOM     14  H   UNL     1      -3.525  10.596  18.235  0.00  0.00    +0.000 HD
ATOM     15  H   UNL     1      -4.640  13.558  19.456  0.00  0.00    +0.000 HD
ATOM     16  H   UNL     1      -1.578  12.615  20.232  0.00  0.00    +0.000 HD
ATOM     17  H   UNL     1      -0.244  10.953  21.017  0.00  0.00    +0.000 HD
BRANCH   7  19
ATOM     18  C   UNL     1      -6.451  11.455  18.021  0.00  0.00    +0.000 C 
ATOM     19  C   UNL     1      -5.052  11.876  17.607  0.00  0.00    +0.000 C 
ENDBRANCH   7  19
ENDBRANCH   1  13
BRANCH   4  20
ATOM     20  S   UNL     1       3.128   5.663  19.329  0.00  0.00    +0.000 S 
ATOM     21  O   UNL     1       4.500   5.912  19.707  0.00  0.00    +0.000 OA
ATOM     22  O   UNL     1       2.378   4.556  19.883  0.00  0.00    +0.000 OA
BRANCH  20  23
ATOM     23  N   UNL     1       3.140   5.486  17.648  0.00  0.00    +0.000 NA
ATOM     24  H   UNL     1       2.562   6.217  17.230  0.00  0.00    +0.000 HD
BRANCH  23  25
ATOM     25  C   UNL     1       4.435   5.218  17.005  0.00  0.00    +0.000 C 
ATOM     26  C   UNL     1       4.921   6.472  16.298  0.00  0.00    +0.000 C 
ENDBRANCH  23  25
ENDBRANCH  20  23
ENDBRANCH   4  20
BRANCH   2  27
ATOM     27  C   UNL     1       1.669  10.388  17.686  0.00  0.00    +0.000 C 
ATOM     28  C   UNL     1       2.412  11.641  18.141  0.00  0.00    +0.000 C 
ENDBRANCH   2  27
BRANCH   6  29
ATOM     29  C   UNL     1      -0.250   8.519  22.141  0.00  0.00    +0.000 C 
ATOM     30  C   UNL     1       0.267   9.429  23.251  0.00  0.00    +0.000 C 
ENDBRANCH   6  29
TORSDOF 7
ENDMDL
MODEL 9
REMARK VINA RESULT:      -5.8      2.103      3.376
REMARK  Name = 
REMARK  11 active torsions:
REMARK  status: ('A' for Active; 'I' for Inactive)
REMARK    1  A    between atoms: C_1  and  C_2
REMARK    2  A    between atoms: C_2  and  N_3
REMARK    3  A    between atoms: N_9  and  C_10
REMARK    4  A    between atoms: C_11  and  C_12
REMARK    5  A    between atoms: C_12  and  C_13
REMARK    6  A    between atoms: C_15  and  S_16
REMARK    7  A    between atoms: S_16  and  N_19
REMARK    8  A    between atoms: N_19  and  C_20
REMARK    9  A    between atoms: C_20  and  C_21
REMARK   10  A    between atoms: C_23  and  C_24
REMARK   11  A    between atoms: C_24  and  C_25
REMARK                            x       y       z     vdW  Elec       q    Type
REMARK                         _______ _______ _______ _____ _____    ______ ____
ROOT
ATOM      1  C   UNL     1       0.707   9.444  19.929  0.00  0.00    +0.000 A 
ATOM      2  C   UNL     1       0.591   8.430  20.912  0.00  0.00    +0.000 A 
ATOM      3  C   UNL     1       1.326   7.238  20.751  0.00  0.00    +0.000 A 
ATOM      4  C   UNL     1       2.155   7.050  19.650  0.00  0.00    +0.000 A 
ATOM      5  C   UNL     1       2.268   8.048  18.680  0.00  0.00    +0.000 A 
ATOM      6  C   UNL     1       1.533   9.250  18.791  0.00  0.00    +0.000 A 
ENDROOT
BRANCH   1  13
ATOM      7  N   UNL     1      -3.994  11.486  18.666  0.00  0.00    +0.000 N 
ATOM      8  C   UNL     1      -3.199  12.308  19.410  0.00  0.00    +0.000 C 
ATOM      9  N   UNL     1      -3.533  13.476  19.831  0.00  0.00    +0.000 NA
ATOM     10  N   UNL     1      -1.937  11.916  19.777  0.00  0.00    +0.000 N 
ATOM     11  C   UNL     1      -1.277  10.749  19.435  0.00  0.00    +0.000 C 
ATOM     12  O   UNL     1      -1.738   9.910  18.672  0.00  0.00    +0.000 OA
ATOM     13  N   UNL     1      -0.036  10.650  20.080  0.00  0.00    +0.000 N 
ATOM     14  H   UNL     1      -3.485  10.658  18.337  0.00  0.00    +0.000 HD
ATOM     15  H   UNL     1      -4.488  13.663  19.549  0.00  0.00    +0.000 HD
ATOM     16  H   UNL     1      -1.437  12.641  20.267  0.00  0.00    +0.000 HD
ATOM     17  H   UNL     1      -0.134  10.950  21.041  0.00  0.00    +0.000 HD
BRANCH   7  19
ATOM     18  C   UNL     1      -6.361  11.406  18.047  0.00  0.00    +0.000 C 
ATOM     19  C   UNL     1      -4.989  11.975  17.729  0.00  0.00    +0.000 C 
ENDBRANCH   7  19
ENDBRANCH   1  13
BRANCH   4  20
ATOM     20  S   UNL     1       3.149   5.584  19.548  0.00  0.00    +0.000 S 
ATOM     21  O   UNL     1       4.502   6.000  19.264  0.00  0.00    +0.000 OA
ATOM     22  O   UNL     1       2.839   4.724  20.670  0.00  0.00    +0.000 OA
BRANCH  20  23
ATOM     23  N   UNL     1       2.603   4.813  18.145  0.00  0.00    +0.000 NA
ATOM     24  H   UNL     1       2.269   5.517  17.484  0.00  0.00    +0.000 HD
BRANCH  23  25
ATOM     25  C   UNL     1       3.437   3.735  17.597  0.00  0.00    +0.000 C 
ATOM     26  C   UNL     1       2.717   2.406  17.750  0.00  0.00    +0.000 C 
ENDBRANCH  23  25
ENDBRANCH  20  23
ENDBRANCH   4  20
BRANCH   2  27
ATOM     27  C   UNL     1      -0.292   8.514  22.142  0.00  0.00    +0.000 C 
ATOM     28  C   UNL     1       0.261   9.436  23.226  0.00  0.00    +0.000 C 
ENDBRANCH   2  27
BRANCH   6  29
ATOM     29  C   UNL     1       1.723  10.270  17.684  0.00  0.00    +0.000 C 
ATOM     30  C   UNL     1       2.387  11.573  18.115  0.00  0.00    +0.000 C 
ENDBRANCH   6  29
TORSDOF 7
ENDMDL
