MODEL 1
REMARK VINA RESULT:      -7.8      0.000      0.000
REMARK  Name = 
REMARK  4 active torsions:
REMARK  status: ('A' for Active; 'I' for Inactive)
REMARK    1  A    between atoms: C_2  and  C_3
REMARK    2  A    between atoms: C_2  and  C_13
REMARK    3  A    between atoms: C_4  and  C_5
REMARK    4  A    between atoms: C_18  and  O_19
REMARK                            x       y       z     vdW  Elec       q    Type
REMARK                         _______ _______ _______ _____ _____    ______ ____
ROOT
ATOM      1  O   UNL     1       7.512   6.186  15.859  0.00  0.00    +0.000 OA
ATOM      2  C   UNL     1       6.806   5.222  15.580  0.00  0.00    +0.000 C 
ENDROOT
BRANCH   2   3
ATOM      3  C   UNL     1       6.761   4.691  14.189  0.00  0.00    +0.000 A 
ATOM      4  C   UNL     1       5.718   3.810  13.866  0.00  0.00    +0.000 A 
ATOM      5  C   UNL     1       5.603   3.290  12.575  0.00  0.00    +0.000 A 
ATOM      6  C   UNL     1       6.522   3.654  11.592  0.00  0.00    +0.000 A 
ATOM      7  C   UNL     1       7.557   4.540  11.897  0.00  0.00    +0.000 A 
ATOM      8  C   UNL     1       7.674   5.059  13.189  0.00  0.00    +0.000 A 
BRANCH   8   9
ATOM      9  O   UNL     1       8.679   5.951  13.444  0.00  0.00    +0.000 OA
ATOM     10  H   UNL     1       9.417   5.490  13.877  0.00  0.00    +0.000 HD
ENDBRANCH   8   9
ENDBRANCH   2   3
BRANCH   2  11
ATOM     11  C   UNL     1       5.927   4.579  16.591  0.00  0.00    +0.000 C 
ATOM     12  C   UNL     1       4.745   5.120  16.918  0.00  0.00    +0.000 C 
BRANCH  12  13
ATOM     13  C   UNL     1       3.871   4.569  17.965  0.00  0.00    +0.000 A 
ATOM     14  C   UNL     1       2.513   4.909  18.061  0.00  0.00    +0.000 A 
ATOM     15  C   UNL     1       1.708   4.358  19.061  0.00  0.00    +0.000 A 
ATOM     16  C   UNL     1       2.245   3.445  19.970  0.00  0.00    +0.000 A 
ATOM     17 CL   UNL     1       1.195   2.810  21.185  0.00  0.00    +0.000 Cl
ATOM     18  C   UNL     1       3.590   3.076  19.866  0.00  0.00    +0.000 A 
ATOM     19 CL   UNL     1       4.320   1.940  20.945  0.00  0.00    +0.000 Cl
ATOM     20  C   UNL     1       4.394   3.632  18.863  0.00  0.00    +0.000 A 
ENDBRANCH  12  13
ENDBRANCH   2  11
TORSDOF 4
ENDMDL
MODEL 2
REMARK VINA RESULT:      -7.6      0.965      1.034
REMARK  Name = 
REMARK  4 active torsions:
REMARK  status: ('A' for Active; 'I' for Inactive)
REMARK    1  A    between atoms: C_2  and  C_3
REMARK    2  A    between atoms: C_2  and  C_13
REMARK    3  A    between atoms: C_4  and  C_5
REMARK    4  A    between atoms: C_18  and  O_19
REMARK                            x       y       z     vdW  Elec       q    Type
REMARK                         _______ _______ _______ _____ _____    ______ ____
ROOT
ATOM      1  O   UNL     1       7.559   6.204  15.982  0.00  0.00    +0.000 OA
ATOM      2  C   UNL     1       6.806   5.279  15.697  0.00  0.00    +0.000 C 
ENDROOT
BRANCH   2   3
ATOM      3  C   UNL     1       6.749   4.747  14.306  0.00  0.00    +0.000 A 
ATOM      4  C   UNL     1       5.677   3.904  13.979  0.00  0.00    +0.000 A 
ATOM      5  C   UNL     1       5.549   3.387  12.687  0.00  0.00    +0.000 A 
ATOM      6  C   UNL     1       6.486   3.717  11.709  0.00  0.00    +0.000 A 
ATOM      7  C   UNL     1       7.549   4.565  12.017  0.00  0.00    +0.000 A 
ATOM      8  C   UNL     1       7.679   5.082  13.309  0.00  0.00    +0.000 A 
BRANCH   8   9
ATOM      9  O   UNL     1       8.714   5.938  13.568  0.00  0.00    +0.000 OA
ATOM     10  H   UNL     1       8.821   6.549  12.820  0.00  0.00    +0.000 HD
ENDBRANCH   8   9
ENDBRANCH   2   3
BRANCH   2  11
ATOM     11  C   UNL     1       5.883   4.684  16.698  0.00  0.00    +0.000 C 
ATOM     12  C   UNL     1       4.914   5.420  17.260  0.00  0.00    +0.000 C 
BRANCH  12  13
ATOM     13  C   UNL     1       4.023   4.906  18.312  0.00  0.00    +0.000 A 
ATOM     14  C   UNL     1       3.625   5.691  19.404  0.00  0.00    +0.000 A 
ATOM     15  C   UNL     1       2.767   5.176  20.380  0.00  0.00    +0.000 A 
ATOM     16  C   UNL     1       2.282   3.872  20.268  0.00  0.00    +0.000 A 
ATOM     17 CL   UNL     1       1.233   3.297  21.514  0.00  0.00    +0.000 Cl
ATOM     18  C   UNL     1       2.648   3.090  19.169  0.00  0.00    +0.000 A 
ATOM     19 CL   UNL     1       2.074   1.473  18.955  0.00  0.00    +0.000 Cl
ATOM     20  C   UNL     1       3.509   3.609  18.194  0.00  0.00    +0.000 A 
ENDBRANCH  12  13
ENDBRANCH   2  11
TORSDOF 4
ENDMDL
MODEL 3
REMARK VINA RESULT:      -7.6      1.071      1.707
REMARK  Name = 
REMARK  4 active torsions:
REMARK  status: ('A' for Active; 'I' for Inactive)
REMARK    1  A    between atoms: C_2  and  C_3
REMARK    2  A    between atoms: C_2  and  C_13
REMARK    3  A    between atoms: C_4  and  C_5
REMARK    4  A    between atoms: C_18  and  O_19
REMARK                            x       y       z     vdW  Elec       q    Type
REMARK                         _______ _______ _______ _____ _____    ______ ____
ROOT
ATOM      1  O   UNL     1       7.627   6.330  16.015  0.00  0.00    +0.000 OA
ATOM      2  C   UNL     1       6.707   5.556  15.772  0.00  0.00    +0.000 C 
ENDROOT
BRANCH   2   3
ATOM      3  C   UNL     1       6.622   4.866  14.454  0.00  0.00    +0.000 A 
ATOM      4  C   UNL     1       5.520   4.027  14.233  0.00  0.00    +0.000 A 
ATOM      5  C   UNL     1       5.366   3.366  13.012  0.00  0.00    +0.000 A 
ATOM      6  C   UNL     1       6.307   3.545  11.999  0.00  0.00    +0.000 A 
ATOM      7  C   UNL     1       7.400   4.387  12.202  0.00  0.00    +0.000 A 
ATOM      8  C   UNL     1       7.556   5.048  13.423  0.00  0.00    +0.000 A 
BRANCH   8   9
ATOM      9  O   UNL     1       8.621   5.893  13.576  0.00  0.00    +0.000 OA
ATOM     10  H   UNL     1       9.373   5.561  13.057  0.00  0.00    +0.000 HD
ENDBRANCH   8   9
ENDBRANCH   2   3
BRANCH   2  11
ATOM     11  C   UNL     1       5.612   5.313  16.747  0.00  0.00    +0.000 C 
ATOM     12  C   UNL     1       5.781   4.466  17.772  0.00  0.00    +0.000 C 
BRANCH  12  13
ATOM     13  C   UNL     1       4.709   4.129  18.722  0.00  0.00    +0.000 A 
ATOM     14  C   UNL     1       4.569   2.844  19.266  0.00  0.00    +0.000 A 
ATOM     15  C   UNL     1       3.547   2.560  20.175  0.00  0.00    +0.000 A 
ATOM     16  C   UNL     1       2.659   3.563  20.566  0.00  0.00    +0.000 A 
ATOM     17 CL   UNL     1       1.413   3.141  21.686  0.00  0.00    +0.000 Cl
ATOM     18  C   UNL     1       2.805   4.856  20.052  0.00  0.00    +0.000 A 
ATOM     19 CL   UNL     1       1.754   6.152  20.502  0.00  0.00    +0.000 Cl
ATOM     20  C   UNL     1       3.831   5.136  19.140  0.00  0.00    +0.000 A 
ENDBRANCH  12  13
ENDBRANCH   2  11
TORSDOF 4
ENDMDL
MODEL 4
REMARK VINA RESULT:      -7.5      3.872      5.215
REMARK  Name = 
REMARK  4 active torsions:
REMARK  status: ('A' for Active; 'I' for Inactive)
REMARK    1  A    between atoms: C_2  and  C_3
REMARK    2  A    between atoms: C_2  and  C_13
REMARK    3  A    between atoms: C_4  and  C_5
REMARK    4  A    between atoms: C_18  and  O_19
REMARK                            x       y       z     vdW  Elec       q    Type
REMARK                         _______ _______ _______ _____ _____    ______ ____
ROOT
ATOM      1  O   UNL     1       3.469   2.903  18.739  0.00  0.00    +0.000 OA
ATOM      2  C   UNL     1       3.684   4.002  18.237  0.00  0.00    +0.000 C 
ENDROOT
BRANCH   2   3
ATOM      3  C   UNL     1       4.912   4.238  17.426  0.00  0.00    +0.000 A 
ATOM      4  C   UNL     1       4.768   4.283  16.032  0.00  0.00    +0.000 A 
ATOM      5  C   UNL     1       5.873   4.522  15.212  0.00  0.00    +0.000 A 
ATOM      6  C   UNL     1       7.130   4.729  15.779  0.00  0.00    +0.000 A 
ATOM      7  C   UNL     1       7.284   4.701  17.165  0.00  0.00    +0.000 A 
ATOM      8  C   UNL     1       6.180   4.460  17.986  0.00  0.00    +0.000 A 
BRANCH   8   9
ATOM      9  O   UNL     1       6.360   4.473  19.342  0.00  0.00    +0.000 OA
ATOM     10  H   UNL     1       6.095   5.339  19.694  0.00  0.00    +0.000 HD
ENDBRANCH   8   9
ENDBRANCH   2   3
BRANCH   2  11
ATOM     11  C   UNL     1       2.771   5.153  18.455  0.00  0.00    +0.000 C 
ATOM     12  C   UNL     1       3.245   6.406  18.501  0.00  0.00    +0.000 C 
BRANCH  12  13
ATOM     13  C   UNL     1       2.400   7.575  18.790  0.00  0.00    +0.000 A 
ATOM     14  C   UNL     1       2.032   8.496  17.797  0.00  0.00    +0.000 A 
ATOM     15  C   UNL     1       1.218   9.589  18.104  0.00  0.00    +0.000 A 
ATOM     16  C   UNL     1       0.745   9.768  19.405  0.00  0.00    +0.000 A 
ATOM     17 CL   UNL     1      -0.249  11.146  19.715  0.00  0.00    +0.000 Cl
ATOM     18  C   UNL     1       1.082   8.841  20.396  0.00  0.00    +0.000 A 
ATOM     19 CL   UNL     1       0.521   8.988  22.025  0.00  0.00    +0.000 Cl
ATOM     20  C   UNL     1       1.899   7.747  20.086  0.00  0.00    +0.000 A 
ENDBRANCH  12  13
ENDBRANCH   2  11
TORSDOF 4
ENDMDL
MODEL 5
REMARK VINA RESULT:      -7.4      6.258      8.197
REMARK  Name = 
REMARK  4 active torsions:
REMARK  status: ('A' for Active; 'I' for Inactive)
REMARK    1  A    between atoms: C_2  and  C_3
REMARK    2  A    between atoms: C_2  and  C_13
REMARK    3  A    between atoms: C_4  and  C_5
REMARK    4  A    between atoms: C_18  and  O_19
REMARK                            x       y       z     vdW  Elec       q    Type
REMARK                         _______ _______ _______ _____ _____    ______ ____
ROOT
ATOM      1  O   UNL     1       7.587   6.248  16.131  0.00  0.00    +0.000 OA
ATOM      2  C   UNL     1       7.164   6.658  17.207  0.00  0.00    +0.000 C 
ENDROOT
BRANCH   2   3
ATOM      3  C   UNL     1       5.854   6.187  17.736  0.00  0.00    +0.000 A 
ATOM      4  C   UNL     1       4.731   6.993  17.494  0.00  0.00    +0.000 A 
ATOM      5  C   UNL     1       3.467   6.601  17.943  0.00  0.00    +0.000 A 
ATOM      6  C   UNL     1       3.313   5.398  18.628  0.00  0.00    +0.000 A 
ATOM      7  C   UNL     1       4.419   4.581  18.864  0.00  0.00    +0.000 A 
ATOM      8  C   UNL     1       5.684   4.971  18.417  0.00  0.00    +0.000 A 
BRANCH   8   9
ATOM      9  O   UNL     1       6.741   4.131  18.635  0.00  0.00    +0.000 OA
ATOM     10  H   UNL     1       7.052   4.236  19.550  0.00  0.00    +0.000 HD
ENDBRANCH   8   9
ENDBRANCH   2   3
BRANCH   2  11
ATOM     11  C   UNL     1       7.902   7.675  18.001  0.00  0.00    +0.000 C 
ATOM     12  C   UNL     1       7.886   8.966  17.646  0.00  0.00    +0.000 C 
BRANCH  12  13
ATOM     13  C   UNL     1       8.659  10.003  18.349  0.00  0.00    +0.000 A 
ATOM     14  C   UNL     1       9.072   9.852  19.681  0.00  0.00    +0.000 A 
ATOM     15  C   UNL     1       9.815  10.851  20.315  0.00  0.00    +0.000 A 
ATOM     16  C   UNL     1      10.171  12.008  19.620  0.00  0.00    +0.000 A 
ATOM     17 CL   UNL     1      11.083  13.205  20.468  0.00  0.00    +0.000 Cl
ATOM     18  C   UNL     1       9.790  12.156  18.283  0.00  0.00    +0.000 A 
ATOM     19 CL   UNL     1      10.207  13.553  17.354  0.00  0.00    +0.000 Cl
ATOM     20  C   UNL     1       9.044  11.153  17.651  0.00  0.00    +0.000 A 
ENDBRANCH  12  13
ENDBRANCH   2  11
TORSDOF 4
ENDMDL
MODEL 6
REMARK VINA RESULT:      -7.3      4.498      6.297
REMARK  Name = 
REMARK  4 active torsions:
REMARK  status: ('A' for Active; 'I' for Inactive)
REMARK    1  A    between atoms: C_2  and  C_3
REMARK    2  A    between atoms: C_2  and  C_13
REMARK    3  A    between atoms: C_4  and  C_5
REMARK    4  A    between atoms: C_18  and  O_19
REMARK                            x       y       z     vdW  Elec       q    Type
REMARK                         _______ _______ _______ _____ _____    ______ ____
ROOT
ATOM      1  O   UNL     1       4.957   5.679  16.882  0.00  0.00    +0.000 OA
ATOM      2  C   UNL     1       3.950   5.610  17.579  0.00  0.00    +0.000 C 
ENDROOT
BRANCH   2   3
ATOM      3  C   UNL     1       3.449   4.292  18.061  0.00  0.00    +0.000 A 
ATOM      4  C   UNL     1       2.108   3.975  17.801  0.00  0.00    +0.000 A 
ATOM      5  C   UNL     1       1.578   2.747  18.206  0.00  0.00    +0.000 A 
ATOM      6  C   UNL     1       2.386   1.822  18.865  0.00  0.00    +0.000 A 
ATOM      7  C   UNL     1       3.725   2.120  19.118  0.00  0.00    +0.000 A 
ATOM      8  C   UNL     1       4.256   3.348  18.715  0.00  0.00    +0.000 A 
BRANCH   8   9
ATOM      9  O   UNL     1       5.582   3.593  18.948  0.00  0.00    +0.000 OA
ATOM     10  H   UNL     1       5.680   4.471  19.354  0.00  0.00    +0.000 HD
ENDBRANCH   8   9
ENDBRANCH   2   3
BRANCH   2  11
ATOM     11  C   UNL     1       3.155   6.817  17.926  0.00  0.00    +0.000 C 
ATOM     12  C   UNL     1       2.689   6.997  19.169  0.00  0.00    +0.000 C 
BRANCH  12  13
ATOM     13  C   UNL     1       1.833   8.132  19.550  0.00  0.00    +0.000 A 
ATOM     14  C   UNL     1       1.458   9.126  18.634  0.00  0.00    +0.000 A 
ATOM     15  C   UNL     1       0.635  10.184  19.025  0.00  0.00    +0.000 A 
ATOM     16  C   UNL     1       0.160  10.255  20.336  0.00  0.00    +0.000 A 
ATOM     17 CL   UNL     1      -0.847  11.595  20.754  0.00  0.00    +0.000 Cl
ATOM     18  C   UNL     1       0.504   9.255  21.251  0.00  0.00    +0.000 A 
ATOM     19 CL   UNL     1      -0.059   9.267  22.885  0.00  0.00    +0.000 Cl
ATOM     20  C   UNL     1       1.331   8.196  20.855  0.00  0.00    +0.000 A 
ENDBRANCH  12  13
ENDBRANCH   2  11
TORSDOF 4
ENDMDL
MODEL 7
REMARK VINA RESULT:      -7.1      4.347      5.929
REMARK  Name = 
REMARK  4 active torsions:
REMARK  status: ('A' for Active; 'I' for Inactive)
REMARK    1  A    between atoms: C_2  and  C_3
REMARK    2  A    between atoms: C_2  and  C_13
REMARK    3  A    between atoms: C_4  and  C_5
REMARK    4  A    between atoms: C_18  and  O_19
REMARK                            x       y       z     vdW  Elec       q    Type
REMARK                         _______ _______ _______ _____ _____    ______ ____
ROOT
ATOM      1  O   UNL     1       3.342   4.547  17.033  0.00  0.00    +0.000 OA
ATOM      2  C   UNL     1       3.683   5.501  17.724  0.00  0.00    +0.000 C 
ENDROOT
BRANCH   2   3
ATOM      3  C   UNL     1       5.125   5.778  17.976  0.00  0.00    +0.000 A 
ATOM      4  C   UNL     1       5.658   5.368  19.207  0.00  0.00    +0.000 A 
ATOM      5  C   UNL     1       7.008   5.577  19.501  0.00  0.00    +0.000 A 
ATOM      6  C   UNL     1       7.839   6.187  18.564  0.00  0.00    +0.000 A 
ATOM      7  C   UNL     1       7.325   6.588  17.330  0.00  0.00    +0.000 A 
ATOM      8  C   UNL     1       5.975   6.381  17.035  0.00  0.00    +0.000 A 
BRANCH   8   9
ATOM      9  O   UNL     1       5.512   6.755  15.803  0.00  0.00    +0.000 OA
ATOM     10  H   UNL     1       6.220   7.210  15.318  0.00  0.00    +0.000 HD
ENDBRANCH   8   9
ENDBRANCH   2   3
BRANCH   2  11
ATOM     11  C   UNL     1       2.688   6.386  18.383  0.00  0.00    +0.000 C 
ATOM     12  C   UNL     1       2.612   7.686  18.070  0.00  0.00    +0.000 C 
BRANCH  12  13
ATOM     13  C   UNL     1       1.700   8.624  18.744  0.00  0.00    +0.000 A 
ATOM     14  C   UNL     1       0.999   9.618  18.045  0.00  0.00    +0.000 A 
ATOM     15  C   UNL     1       0.131  10.484  18.715  0.00  0.00    +0.000 A 
ATOM     16  C   UNL     1      -0.062  10.358  20.091  0.00  0.00    +0.000 A 
ATOM     17 CL   UNL     1      -1.142  11.467  20.856  0.00  0.00    +0.000 Cl
ATOM     18  C   UNL     1       0.610   9.352  20.794  0.00  0.00    +0.000 A 
ATOM     19 CL   UNL     1       0.409   9.125  22.496  0.00  0.00    +0.000 Cl
ATOM     20  C   UNL     1       1.480   8.486  20.119  0.00  0.00    +0.000 A 
ENDBRANCH  12  13
ENDBRANCH   2  11
TORSDOF 4
ENDMDL
MODEL 8
REMARK VINA RESULT:      -7.1      4.671      6.073
REMARK  Name = 
REMARK  4 active torsions:
REMARK  status: ('A' for Active; 'I' for Inactive)
REMARK    1  A    between atoms: C_2  and  C_3
REMARK    2  A    between atoms: C_2  and  C_13
REMARK    3  A    between atoms: C_4  and  C_5
REMARK    4  A    between atoms: C_18  and  O_19
REMARK                            x       y       z     vdW  Elec       q    Type
REMARK                         _______ _______ _______ _____ _____    ______ ____
ROOT
ATOM      1  O   UNL     1       3.233   4.345  17.563  0.00  0.00    +0.000 OA
ATOM      2  C   UNL     1       3.652   5.475  17.790  0.00  0.00    +0.000 C 
ENDROOT
BRANCH   2   3
ATOM      3  C   UNL     1       5.116   5.741  17.866  0.00  0.00    +0.000 A 
ATOM      4  C   UNL     1       5.590   6.923  17.277  0.00  0.00    +0.000 A 
ATOM      5  C   UNL     1       6.949   7.245  17.329  0.00  0.00    +0.000 A 
ATOM      6  C   UNL     1       7.843   6.396  17.979  0.00  0.00    +0.000 A 
ATOM      7  C   UNL     1       7.382   5.224  18.580  0.00  0.00    +0.000 A 
ATOM      8  C   UNL     1       6.024   4.900  18.527  0.00  0.00    +0.000 A 
BRANCH   8   9
ATOM      9  O   UNL     1       5.601   3.761  19.157  0.00  0.00    +0.000 OA
ATOM     10  H   UNL     1       5.044   4.001  19.916  0.00  0.00    +0.000 HD
ENDBRANCH   8   9
ENDBRANCH   2   3
BRANCH   2  11
ATOM     11  C   UNL     1       2.732   6.612  18.053  0.00  0.00    +0.000 C 
ATOM     12  C   UNL     1       2.661   7.170  19.269  0.00  0.00    +0.000 C 
BRANCH  12  13
ATOM     13  C   UNL     1       1.714   8.245  19.606  0.00  0.00    +0.000 A 
ATOM     14  C   UNL     1       1.297   9.196  18.663  0.00  0.00    +0.000 A 
ATOM     15  C   UNL     1       0.387  10.197  19.012  0.00  0.00    +0.000 A 
ATOM     16  C   UNL     1      -0.132  10.251  20.307  0.00  0.00    +0.000 A 
ATOM     17 CL   UNL     1      -1.245  11.520  20.673  0.00  0.00    +0.000 Cl
ATOM     18  C   UNL     1       0.254   9.292  21.248  0.00  0.00    +0.000 A 
ATOM     19 CL   UNL     1      -0.358   9.286  22.864  0.00  0.00    +0.000 Cl
ATOM     20  C   UNL     1       1.168   8.290  20.894  0.00  0.00    +0.000 A 
ENDBRANCH  12  13
ENDBRANCH   2  11
TORSDOF 4
ENDMDL
MODEL 9
REMARK VINA RESULT:      -7.0      5.213      7.307
REMARK  Name = 
REMARK  4 active torsions:
REMARK  status: ('A' for Active; 'I' for Inactive)
REMARK    1  A    between atoms: C_2  and  C_3
REMARK    2  A    between atoms: C_2  and  C_13
REMARK    3  A    between atoms: C_4  and  C_5
REMARK    4  A    between atoms: C_18  and  O_19
REMARK                            x       y       z     vdW  Elec       q    Type
REMARK                         _______ _______ _______ _____ _____    ______ ____
ROOT
ATOM      1  O   UNL     1       3.324   3.879  17.022  0.00  0.00    +0.000 OA
ATOM      2  C   UNL     1       2.844   4.449  17.997  0.00  0.00    +0.000 C 
ENDROOT
BRANCH   2   3
ATOM      3  C   UNL     1       2.653   3.721  19.283  0.00  0.00    +0.000 A 
ATOM      4  C   UNL     1       1.365   3.718  19.839  0.00  0.00    +0.000 A 
ATOM      5  C   UNL     1       1.109   3.037  21.032  0.00  0.00    +0.000 A 
ATOM      6  C   UNL     1       2.135   2.346  21.674  0.00  0.00    +0.000 A 
ATOM      7  C   UNL     1       3.417   2.331  21.125  0.00  0.00    +0.000 A 
ATOM      8  C   UNL     1       3.675   3.012  19.933  0.00  0.00    +0.000 A 
BRANCH   8   9
ATOM      9  O   UNL     1       4.935   2.948  19.404  0.00  0.00    +0.000 OA
ATOM     10  H   UNL     1       4.980   2.217  18.766  0.00  0.00    +0.000 HD
ENDBRANCH   8   9
ENDBRANCH   2   3
BRANCH   2  11
ATOM     11  C   UNL     1       2.384   5.860  17.930  0.00  0.00    +0.000 C 
ATOM     12  C   UNL     1       2.586   6.697  18.956  0.00  0.00    +0.000 C 
BRANCH  12  13
ATOM     13  C   UNL     1       2.084   8.081  18.976  0.00  0.00    +0.000 A 
ATOM     14  C   UNL     1       2.271   8.958  17.897  0.00  0.00    +0.000 A 
ATOM     15  C   UNL     1       1.771  10.262  17.943  0.00  0.00    +0.000 A 
ATOM     16  C   UNL     1       1.062  10.702  19.062  0.00  0.00    +0.000 A 
ATOM     17 CL   UNL     1       0.480  12.328  19.055  0.00  0.00    +0.000 Cl
ATOM     18  C   UNL     1       0.845   9.827  20.131  0.00  0.00    +0.000 A 
ATOM     19 CL   UNL     1      -0.037  10.296  21.542  0.00  0.00    +0.000 Cl
ATOM     20  C   UNL     1       1.349   8.521  20.082  0.00  0.00    +0.000 A 
ENDBRANCH  12  13
ENDBRANCH   2  11
TORSDOF 4
ENDMDL
