MODEL 1
REMARK VINA RESULT:      -9.0      0.000      0.000
REMARK  Name = 
REMARK  10 active torsions:
REMARK  status: ('A' for Active; 'I' for Inactive)
REMARK    1  A    between atoms: C_1  and  C_2
REMARK    2  A    between atoms: C_2  and  C_3
REMARK    3  A    between atoms: C_6  and  C_7
REMARK    4  A    between atoms: C_9  and  C_10
REMARK    5  A    between atoms: C_13  and  C_14
REMARK    6  A    between atoms: C_14  and  C_15
REMARK    7  A    between atoms: C_18  and  N_19
REMARK    8  A    between atoms: C_21  and  C_22
REMARK    9  A    between atoms: C_22  and  N_23
REMARK   10  A    between atoms: C_25  and  O_26
REMARK                            x       y       z     vdW  Elec       q    Type
REMARK                         _______ _______ _______ _____ _____    ______ ____
ROOT
ATOM      1  C   UNL     1       3.866   4.879  17.461  0.00  0.00    +0.000 A 
ATOM      2  C   UNL     1       2.872   4.567  18.403  0.00  0.00    +0.000 A 
ATOM      3  C   UNL     1       2.183   5.579  19.084  0.00  0.00    +0.000 A 
ATOM      4  C   UNL     1       2.456   6.923  18.801  0.00  0.00    +0.000 A 
ATOM      5  C   UNL     1       3.354   7.242  17.775  0.00  0.00    +0.000 A 
ATOM      6  C   UNL     1       4.068   6.227  17.126  0.00  0.00    +0.000 A 
ENDROOT
BRANCH   4   7
ATOM      7  N   UNL     1       1.961   7.965  19.633  0.00  0.00    +0.000 N 
ATOM      8  C   UNL     1       1.696   9.265  19.248  0.00  0.00    +0.000 A 
ATOM      9  C   UNL     1       0.775   9.768  20.151  0.00  0.00    +0.000 A 
ATOM     10  C   UNL     1       0.817   8.837  21.207  0.00  0.00    +0.000 A 
ATOM     11  N   UNL     1       1.469   7.723  20.878  0.00  0.00    +0.000 NA
BRANCH   9  12
ATOM     12  C   UNL     1      -0.066  10.996  20.041  0.00  0.00    +0.000 C 
BRANCH  12  13
ATOM     13  N   UNL     1      -1.467  10.793  19.629  0.00  0.00    +0.000 NA
ATOM     14  C   UNL     1      -1.652  10.256  18.274  0.00  0.00    +0.000 C 
ATOM     15  C   UNL     1      -2.265  11.596  17.809  0.00  0.00    +0.000 C 
ATOM     16  C   UNL     1      -2.215  12.014  19.296  0.00  0.00    +0.000 C 
BRANCH  15  17
ATOM     17  O   UNL     1      -1.531  12.385  16.846  0.00  0.00    +0.000 OA
ATOM     18  H   UNL     1      -1.144  11.755  16.215  0.00  0.00    +0.000 HD
ENDBRANCH  15  17
ENDBRANCH  12  13
ENDBRANCH   9  12
ENDBRANCH   4   7
BRANCH   1  19
ATOM     19  C   UNL     1       4.793   3.803  16.934  0.00  0.00    +0.000 C 
BRANCH  19  30
ATOM     20  C   UNL     1       6.981   5.179  16.491  0.00  0.00    +0.000 A 
ATOM     21  N   UNL     1       7.742   5.541  15.454  0.00  0.00    +0.000 NA
ATOM     22  N   UNL     1       7.149   4.990  14.366  0.00  0.00    +0.000 N 
ATOM     23  C   UNL     1       7.579   5.046  13.034  0.00  0.00    +0.000 A 
ATOM     24  C   UNL     1       8.806   5.838  12.690  0.00  0.00    +0.000 C 
ATOM     25  C   UNL     1       6.882   4.381  12.093  0.00  0.00    +0.000 A 
ATOM     26  C   UNL     1       5.692   3.609  12.569  0.00  0.00    +0.000 A 
ATOM     27  C   UNL     1       4.941   2.806  11.537  0.00  0.00    +0.000 C 
ATOM     28  N   UNL     1       5.270   3.568  13.801  0.00  0.00    +0.000 NA
ATOM     29  C   UNL     1       6.000   4.279  14.721  0.00  0.00    +0.000 A 
ATOM     30  C   UNL     1       5.839   4.431  16.087  0.00  0.00    +0.000 A 
BRANCH  20  32
ATOM     31  C   UNL     1       7.668   7.050  18.019  0.00  0.00    +0.000 C 
ATOM     32  C   UNL     1       7.430   5.552  17.868  0.00  0.00    +0.000 C 
ENDBRANCH  20  32
ENDBRANCH  19  30
ENDBRANCH   1  19
TORSDOF 7
ENDMDL
MODEL 2
REMARK VINA RESULT:      -9.0      2.306      4.512
REMARK  Name = 
REMARK  10 active torsions:
REMARK  status: ('A' for Active; 'I' for Inactive)
REMARK    1  A    between atoms: C_1  and  C_2
REMARK    2  A    between atoms: C_2  and  C_3
REMARK    3  A    between atoms: C_6  and  C_7
REMARK    4  A    between atoms: C_9  and  C_10
REMARK    5  A    between atoms: C_13  and  C_14
REMARK    6  A    between atoms: C_14  and  C_15
REMARK    7  A    between atoms: C_18  and  N_19
REMARK    8  A    between atoms: C_21  and  C_22
REMARK    9  A    between atoms: C_22  and  N_23
REMARK   10  A    between atoms: C_25  and  O_26
REMARK                            x       y       z     vdW  Elec       q    Type
REMARK                         _______ _______ _______ _____ _____    ______ ____
ROOT
ATOM      1  C   UNL     1       2.381   6.984  19.730  0.00  0.00    +0.000 A 
ATOM      2  C   UNL     1       2.457   7.500  18.425  0.00  0.00    +0.000 A 
ATOM      3  C   UNL     1       1.787   8.680  18.079  0.00  0.00    +0.000 A 
ATOM      4  C   UNL     1       1.062   9.383  19.048  0.00  0.00    +0.000 A 
ATOM      5  C   UNL     1       1.083   8.945  20.378  0.00  0.00    +0.000 A 
ATOM      6  C   UNL     1       1.721   7.742  20.709  0.00  0.00    +0.000 A 
ENDROOT
BRANCH   4   7
ATOM      7  N   UNL     1       0.180  10.439  18.685  0.00  0.00    +0.000 N 
ATOM      8  C   UNL     1      -1.188  10.341  18.509  0.00  0.00    +0.000 A 
ATOM      9  C   UNL     1      -1.704  11.612  18.691  0.00  0.00    +0.000 A 
ATOM     10  C   UNL     1      -0.564  12.437  18.627  0.00  0.00    +0.000 A 
ATOM     11  N   UNL     1       0.572  11.741  18.692  0.00  0.00    +0.000 NA
BRANCH   9  12
ATOM     12  C   UNL     1      -3.122  12.022  18.907  0.00  0.00    +0.000 C 
BRANCH  12  13
ATOM     13  N   UNL     1      -4.147  11.215  18.219  0.00  0.00    +0.000 NA
ATOM     14  C   UNL     1      -4.418  11.599  16.827  0.00  0.00    +0.000 C 
ATOM     15  C   UNL     1      -5.830  12.090  17.220  0.00  0.00    +0.000 C 
ATOM     16  C   UNL     1      -5.538  11.484  18.612  0.00  0.00    +0.000 C 
BRANCH  15  17
ATOM     17  O   UNL     1      -6.110  13.505  17.130  0.00  0.00    +0.000 OA
ATOM     18  H   UNL     1      -5.804  13.897  17.965  0.00  0.00    +0.000 HD
ENDBRANCH  15  17
ENDBRANCH  12  13
ENDBRANCH   9  12
ENDBRANCH   4   7
BRANCH   1  19
ATOM     19  C   UNL     1       2.866   5.582  20.033  0.00  0.00    +0.000 C 
BRANCH  19  30
ATOM     20  C   UNL     1       2.806   4.241  17.781  0.00  0.00    +0.000 A 
ATOM     21  N   UNL     1       3.638   3.918  16.786  0.00  0.00    +0.000 NA
ATOM     22  N   UNL     1       4.821   4.498  17.108  0.00  0.00    +0.000 N 
ATOM     23  C   UNL     1       6.011   4.487  16.368  0.00  0.00    +0.000 A 
ATOM     24  C   UNL     1       6.070   3.718  15.082  0.00  0.00    +0.000 C 
ATOM     25  C   UNL     1       7.073   5.175  16.829  0.00  0.00    +0.000 A 
ATOM     26  C   UNL     1       6.877   5.921  18.110  0.00  0.00    +0.000 A 
ATOM     27  C   UNL     1       8.037   6.750  18.602  0.00  0.00    +0.000 C 
ATOM     28  N   UNL     1       5.783   5.920  18.817  0.00  0.00    +0.000 NA
ATOM     29  C   UNL     1       4.734   5.187  18.320  0.00  0.00    +0.000 A 
ATOM     30  C   UNL     1       3.453   4.991  18.803  0.00  0.00    +0.000 A 
BRANCH  20  32
ATOM     31  C   UNL     1       1.022   2.680  18.610  0.00  0.00    +0.000 C 
ATOM     32  C   UNL     1       1.372   3.828  17.672  0.00  0.00    +0.000 C 
ENDBRANCH  20  32
ENDBRANCH  19  30
ENDBRANCH   1  19
TORSDOF 7
ENDMDL
MODEL 3
REMARK VINA RESULT:      -8.8      1.046      1.455
REMARK  Name = 
REMARK  10 active torsions:
REMARK  status: ('A' for Active; 'I' for Inactive)
REMARK    1  A    between atoms: C_1  and  C_2
REMARK    2  A    between atoms: C_2  and  C_3
REMARK    3  A    between atoms: C_6  and  C_7
REMARK    4  A    between atoms: C_9  and  C_10
REMARK    5  A    between atoms: C_13  and  C_14
REMARK    6  A    between atoms: C_14  and  C_15
REMARK    7  A    between atoms: C_18  and  N_19
REMARK    8  A    between atoms: C_21  and  C_22
REMARK    9  A    between atoms: C_22  and  N_23
REMARK   10  A    between atoms: C_25  and  O_26
REMARK                            x       y       z     vdW  Elec       q    Type
REMARK                         _______ _______ _______ _____ _____    ______ ____
ROOT
ATOM      1  C   UNL     1       3.841   5.732  17.670  0.00  0.00    +0.000 A 
ATOM      2  C   UNL     1       3.856   6.989  17.043  0.00  0.00    +0.000 A 
ATOM      3  C   UNL     1       3.137   8.066  17.576  0.00  0.00    +0.000 A 
ATOM      4  C   UNL     1       2.421   7.909  18.769  0.00  0.00    +0.000 A 
ATOM      5  C   UNL     1       2.503   6.696  19.466  0.00  0.00    +0.000 A 
ATOM      6  C   UNL     1       3.190   5.611  18.907  0.00  0.00    +0.000 A 
ENDROOT
BRANCH   4   7
ATOM      7  N   UNL     1       1.494   8.894  19.206  0.00  0.00    +0.000 N 
ATOM      8  C   UNL     1       1.006   9.950  18.460  0.00  0.00    +0.000 A 
ATOM      9  C   UNL     1      -0.200  10.317  19.031  0.00  0.00    +0.000 A 
ATOM     10  C   UNL     1      -0.177   9.670  20.282  0.00  0.00    +0.000 A 
ATOM     11  N   UNL     1       0.797   8.764  20.367  0.00  0.00    +0.000 NA
BRANCH   9  12
ATOM     12  C   UNL     1      -1.274  11.185  18.465  0.00  0.00    +0.000 C 
BRANCH  12  13
ATOM     13  N   UNL     1      -2.581  10.542  18.235  0.00  0.00    +0.000 NA
ATOM     14  C   UNL     1      -2.687   9.762  16.995  0.00  0.00    +0.000 C 
ATOM     15  C   UNL     1      -3.688  10.788  16.417  0.00  0.00    +0.000 C 
ATOM     16  C   UNL     1      -3.667  11.440  17.819  0.00  0.00    +0.000 C 
BRANCH  15  17
ATOM     17  O   UNL     1      -3.273  11.582  15.282  0.00  0.00    +0.000 OA
ATOM     18  H   UNL     1      -2.863  12.384  15.646  0.00  0.00    +0.000 HD
ENDBRANCH  15  17
ENDBRANCH  12  13
ENDBRANCH   9  12
ENDBRANCH   4   7
BRANCH   1  19
ATOM     19  C   UNL     1       4.383   4.510  16.958  0.00  0.00    +0.000 C 
BRANCH  19  30
ATOM     20  C   UNL     1       6.764   5.522  16.531  0.00  0.00    +0.000 A 
ATOM     21  N   UNL     1       7.617   5.678  15.514  0.00  0.00    +0.000 NA
ATOM     22  N   UNL     1       7.003   5.115  14.444  0.00  0.00    +0.000 N 
ATOM     23  C   UNL     1       7.499   4.987  13.139  0.00  0.00    +0.000 A 
ATOM     24  C   UNL     1       8.841   5.566  12.804  0.00  0.00    +0.000 C 
ATOM     25  C   UNL     1       6.759   4.340  12.219  0.00  0.00    +0.000 A 
ATOM     26  C   UNL     1       5.450   3.788  12.687  0.00  0.00    +0.000 A 
ATOM     27  C   UNL     1       4.641   3.004  11.684  0.00  0.00    +0.000 C 
ATOM     28  N   UNL     1       4.969   3.920  13.890  0.00  0.00    +0.000 NA
ATOM     29  C   UNL     1       5.749   4.606  14.789  0.00  0.00    +0.000 A 
ATOM     30  C   UNL     1       5.547   4.905  16.124  0.00  0.00    +0.000 A 
BRANCH  20  32
ATOM     31  C   UNL     1       7.654   7.409  17.928  0.00  0.00    +0.000 C 
ATOM     32  C   UNL     1       7.196   5.956  17.895  0.00  0.00    +0.000 C 
ENDBRANCH  20  32
ENDBRANCH  19  30
ENDBRANCH   1  19
TORSDOF 7
ENDMDL
MODEL 4
REMARK VINA RESULT:      -8.8      2.376      4.623
REMARK  Name = 
REMARK  10 active torsions:
REMARK  status: ('A' for Active; 'I' for Inactive)
REMARK    1  A    between atoms: C_1  and  C_2
REMARK    2  A    between atoms: C_2  and  C_3
REMARK    3  A    between atoms: C_6  and  C_7
REMARK    4  A    between atoms: C_9  and  C_10
REMARK    5  A    between atoms: C_13  and  C_14
REMARK    6  A    between atoms: C_14  and  C_15
REMARK    7  A    between atoms: C_18  and  N_19
REMARK    8  A    between atoms: C_21  and  C_22
REMARK    9  A    between atoms: C_22  and  N_23
REMARK   10  A    between atoms: C_25  and  O_26
REMARK                            x       y       z     vdW  Elec       q    Type
REMARK                         _______ _______ _______ _____ _____    ______ ____
ROOT
ATOM      1  C   UNL     1       2.381   7.251  19.525  0.00  0.00    +0.000 A 
ATOM      2  C   UNL     1       2.365   7.700  18.194  0.00  0.00    +0.000 A 
ATOM      3  C   UNL     1       1.552   8.773  17.807  0.00  0.00    +0.000 A 
ATOM      4  C   UNL     1       0.771   9.438  18.759  0.00  0.00    +0.000 A 
ATOM      5  C   UNL     1       0.876   9.078  20.109  0.00  0.00    +0.000 A 
ATOM      6  C   UNL     1       1.659   7.979  20.483  0.00  0.00    +0.000 A 
ENDROOT
BRANCH   4   7
ATOM      7  N   UNL     1      -0.239  10.361  18.369  0.00  0.00    +0.000 N 
ATOM      8  C   UNL     1      -1.302  10.105  17.524  0.00  0.00    +0.000 A 
ATOM      9  C   UNL     1      -2.281  11.036  17.824  0.00  0.00    +0.000 A 
ATOM     10  C   UNL     1      -1.593  11.993  18.595  0.00  0.00    +0.000 A 
ATOM     11  N   UNL     1      -0.392  11.565  18.983  0.00  0.00    +0.000 NA
BRANCH   9  12
ATOM     12  C   UNL     1      -3.722  11.034  17.433  0.00  0.00    +0.000 C 
BRANCH  12  13
ATOM     13  N   UNL     1      -4.539  12.149  17.946  0.00  0.00    +0.000 NA
ATOM     14  C   UNL     1      -5.200  11.902  19.235  0.00  0.00    +0.000 C 
ATOM     15  C   UNL     1      -6.583  11.905  18.545  0.00  0.00    +0.000 C 
ATOM     16  C   UNL     1      -5.829  12.353  17.271  0.00  0.00    +0.000 C 
BRANCH  15  17
ATOM     17  O   UNL     1      -7.328  10.666  18.505  0.00  0.00    +0.000 OA
ATOM     18  H   UNL     1      -6.727   9.999  18.132  0.00  0.00    +0.000 HD
ENDBRANCH  15  17
ENDBRANCH  12  13
ENDBRANCH   9  12
ENDBRANCH   4   7
BRANCH   1  19
ATOM     19  C   UNL     1       3.037   5.935  19.886  0.00  0.00    +0.000 C 
BRANCH  19  30
ATOM     20  C   UNL     1       2.916   4.404  17.760  0.00  0.00    +0.000 A 
ATOM     21  N   UNL     1       3.685   4.080  16.716  0.00  0.00    +0.000 NA
ATOM     22  N   UNL     1       4.824   4.799  16.874  0.00  0.00    +0.000 N 
ATOM     23  C   UNL     1       5.936   4.842  16.023  0.00  0.00    +0.000 A 
ATOM     24  C   UNL     1       5.961   3.973  14.801  0.00  0.00    +0.000 C 
ATOM     25  C   UNL     1       6.956   5.669  16.322  0.00  0.00    +0.000 A 
ATOM     26  C   UNL     1       6.799   6.500  17.555  0.00  0.00    +0.000 A 
ATOM     27  C   UNL     1       7.904   7.479  17.865  0.00  0.00    +0.000 C 
ATOM     28  N   UNL     1       5.780   6.452  18.365  0.00  0.00    +0.000 NA
ATOM     29  C   UNL     1       4.774   5.579  18.032  0.00  0.00    +0.000 A 
ATOM     30  C   UNL     1       3.570   5.300  18.653  0.00  0.00    +0.000 A 
BRANCH  20  32
ATOM     31  C   UNL     1       1.416   2.683  18.804  0.00  0.00    +0.000 C 
ATOM     32  C   UNL     1       1.531   3.844  17.825  0.00  0.00    +0.000 C 
ENDBRANCH  20  32
ENDBRANCH  19  30
ENDBRANCH   1  19
TORSDOF 7
ENDMDL
MODEL 5
REMARK VINA RESULT:      -8.7      2.225      4.408
REMARK  Name = 
REMARK  10 active torsions:
REMARK  status: ('A' for Active; 'I' for Inactive)
REMARK    1  A    between atoms: C_1  and  C_2
REMARK    2  A    between atoms: C_2  and  C_3
REMARK    3  A    between atoms: C_6  and  C_7
REMARK    4  A    between atoms: C_9  and  C_10
REMARK    5  A    between atoms: C_13  and  C_14
REMARK    6  A    between atoms: C_14  and  C_15
REMARK    7  A    between atoms: C_18  and  N_19
REMARK    8  A    between atoms: C_21  and  C_22
REMARK    9  A    between atoms: C_22  and  N_23
REMARK   10  A    between atoms: C_25  and  O_26
REMARK                            x       y       z     vdW  Elec       q    Type
REMARK                         _______ _______ _______ _____ _____    ______ ____
ROOT
ATOM      1  C   UNL     1       2.414   6.411  20.172  0.00  0.00    +0.000 A 
ATOM      2  C   UNL     1       2.566   7.120  18.968  0.00  0.00    +0.000 A 
ATOM      3  C   UNL     1       1.949   8.364  18.784  0.00  0.00    +0.000 A 
ATOM      4  C   UNL     1       1.203   8.935  19.821  0.00  0.00    +0.000 A 
ATOM      5  C   UNL     1       1.150   8.296  21.066  0.00  0.00    +0.000 A 
ATOM      6  C   UNL     1       1.735   7.033  21.231  0.00  0.00    +0.000 A 
ENDROOT
BRANCH   4   7
ATOM      7  N   UNL     1       0.371  10.067  19.593  0.00  0.00    +0.000 N 
ATOM      8  C   UNL     1      -0.018  10.563  18.364  0.00  0.00    +0.000 A 
ATOM      9  C   UNL     1      -1.183  11.280  18.575  0.00  0.00    +0.000 A 
ATOM     10  C   UNL     1      -1.216  11.439  19.974  0.00  0.00    +0.000 A 
ATOM     11  N   UNL     1      -0.330  10.660  20.595  0.00  0.00    +0.000 NA
BRANCH   9  12
ATOM     12  C   UNL     1      -2.174  11.767  17.571  0.00  0.00    +0.000 C 
BRANCH  12  13
ATOM     13  N   UNL     1      -3.284  10.851  17.250  0.00  0.00    +0.000 NA
ATOM     14  C   UNL     1      -2.889   9.578  16.633  0.00  0.00    +0.000 C 
ATOM     15  C   UNL     1      -3.554   9.998  15.302  0.00  0.00    +0.000 C 
ATOM     16  C   UNL     1      -4.095  11.220  16.081  0.00  0.00    +0.000 C 
BRANCH  15  17
ATOM     17  O   UNL     1      -2.703  10.233  14.157  0.00  0.00    +0.000 OA
ATOM     18  H   UNL     1      -3.175  10.869  13.594  0.00  0.00    +0.000 HD
ENDBRANCH  15  17
ENDBRANCH  12  13
ENDBRANCH   9  12
ENDBRANCH   4   7
BRANCH   1  19
ATOM     19  C   UNL     1       2.842   4.962  20.272  0.00  0.00    +0.000 C 
BRANCH  19  30
ATOM     20  C   UNL     1       2.784   3.973  17.844  0.00  0.00    +0.000 A 
ATOM     21  N   UNL     1       3.626   3.768  16.827  0.00  0.00    +0.000 NA
ATOM     22  N   UNL     1       4.822   4.248  17.251  0.00  0.00    +0.000 N 
ATOM     23  C   UNL     1       6.027   4.300  16.538  0.00  0.00    +0.000 A 
ATOM     24  C   UNL     1       6.087   3.728  15.153  0.00  0.00    +0.000 C 
ATOM     25  C   UNL     1       7.102   4.871  17.114  0.00  0.00    +0.000 A 
ATOM     26  C   UNL     1       6.905   5.426  18.488  0.00  0.00    +0.000 A 
ATOM     27  C   UNL     1       8.082   6.127  19.118  0.00  0.00    +0.000 C 
ATOM     28  N   UNL     1       5.796   5.363  19.169  0.00  0.00    +0.000 NA
ATOM     29  C   UNL     1       4.733   4.752  18.550  0.00  0.00    +0.000 A 
ATOM     30  C   UNL     1       3.435   4.537  18.977  0.00  0.00    +0.000 A 
BRANCH  20  32
ATOM     31  C   UNL     1       0.841   2.600  18.650  0.00  0.00    +0.000 C 
ATOM     32  C   UNL     1       1.340   3.636  17.650  0.00  0.00    +0.000 C 
ENDBRANCH  20  32
ENDBRANCH  19  30
ENDBRANCH   1  19
TORSDOF 7
ENDMDL
MODEL 6
REMARK VINA RESULT:      -8.6      2.451      4.651
REMARK  Name = 
REMARK  10 active torsions:
REMARK  status: ('A' for Active; 'I' for Inactive)
REMARK    1  A    between atoms: C_1  and  C_2
REMARK    2  A    between atoms: C_2  and  C_3
REMARK    3  A    between atoms: C_6  and  C_7
REMARK    4  A    between atoms: C_9  and  C_10
REMARK    5  A    between atoms: C_13  and  C_14
REMARK    6  A    between atoms: C_14  and  C_15
REMARK    7  A    between atoms: C_18  and  N_19
REMARK    8  A    between atoms: C_21  and  C_22
REMARK    9  A    between atoms: C_22  and  N_23
REMARK   10  A    between atoms: C_25  and  O_26
REMARK                            x       y       z     vdW  Elec       q    Type
REMARK                         _______ _______ _______ _____ _____    ______ ____
ROOT
ATOM      1  C   UNL     1       2.386   6.933  19.825  0.00  0.00    +0.000 A 
ATOM      2  C   UNL     1       2.479   7.483  18.536  0.00  0.00    +0.000 A 
ATOM      3  C   UNL     1       1.818   8.676  18.214  0.00  0.00    +0.000 A 
ATOM      4  C   UNL     1       1.085   9.356  19.194  0.00  0.00    +0.000 A 
ATOM      5  C   UNL     1       1.090   8.881  20.512  0.00  0.00    +0.000 A 
ATOM      6  C   UNL     1       1.719   7.667  20.818  0.00  0.00    +0.000 A 
ENDROOT
BRANCH   4   7
ATOM      7  N   UNL     1       0.212  10.424  18.850  0.00  0.00    +0.000 N 
ATOM      8  C   UNL     1      -1.170  10.392  18.863  0.00  0.00    +0.000 A 
ATOM      9  C   UNL     1      -1.598  11.702  18.989  0.00  0.00    +0.000 A 
ATOM     10  C   UNL     1      -0.440  12.450  18.700  0.00  0.00    +0.000 A 
ATOM     11  N   UNL     1       0.661  11.698  18.684  0.00  0.00    +0.000 NA
BRANCH   9  12
ATOM     12  C   UNL     1      -2.955  12.210  19.347  0.00  0.00    +0.000 C 
BRANCH  12  13
ATOM     13  N   UNL     1      -3.018  13.173  20.462  0.00  0.00    +0.000 NA
ATOM     14  C   UNL     1      -3.079  12.578  21.804  0.00  0.00    +0.000 C 
ATOM     15  C   UNL     1      -4.528  13.086  21.981  0.00  0.00    +0.000 C 
ATOM     16  C   UNL     1      -4.313  13.843  20.650  0.00  0.00    +0.000 C 
BRANCH  15  17
ATOM     17  O   UNL     1      -5.590  12.109  22.055  0.00  0.00    +0.000 OA
ATOM     18  H   UNL     1      -5.834  11.902  21.137  0.00  0.00    +0.000 HD
ENDBRANCH  15  17
ENDBRANCH  12  13
ENDBRANCH   9  12
ENDBRANCH   4   7
BRANCH   1  19
ATOM     19  C   UNL     1       2.862   5.521  20.096  0.00  0.00    +0.000 C 
BRANCH  19  30
ATOM     20  C   UNL     1       2.782   4.237  17.811  0.00  0.00    +0.000 A 
ATOM     21  N   UNL     1       3.609   3.927  16.808  0.00  0.00    +0.000 NA
ATOM     22  N   UNL     1       4.800   4.484  17.143  0.00  0.00    +0.000 N 
ATOM     23  C   UNL     1       5.989   4.475  16.401  0.00  0.00    +0.000 A 
ATOM     24  C   UNL     1       6.036   3.737  15.097  0.00  0.00    +0.000 C 
ATOM     25  C   UNL     1       7.060   5.138  16.877  0.00  0.00    +0.000 A 
ATOM     26  C   UNL     1       6.875   5.855  18.177  0.00  0.00    +0.000 A 
ATOM     27  C   UNL     1       8.047   6.655  18.688  0.00  0.00    +0.000 C 
ATOM     28  N   UNL     1       5.782   5.850  18.885  0.00  0.00    +0.000 NA
ATOM     29  C   UNL     1       4.723   5.143  18.371  0.00  0.00    +0.000 A 
ATOM     30  C   UNL     1       3.440   4.952  18.851  0.00  0.00    +0.000 A 
BRANCH  20  32
ATOM     31  C   UNL     1       0.968   2.707  18.634  0.00  0.00    +0.000 C 
ATOM     32  C   UNL     1       1.343   3.846  17.694  0.00  0.00    +0.000 C 
ENDBRANCH  20  32
ENDBRANCH  19  30
ENDBRANCH   1  19
TORSDOF 7
ENDMDL
MODEL 7
REMARK VINA RESULT:      -8.4      3.225     10.100
REMARK  Name = 
REMARK  10 active torsions:
REMARK  status: ('A' for Active; 'I' for Inactive)
REMARK    1  A    between atoms: C_1  and  C_2
REMARK    2  A    between atoms: C_2  and  C_3
REMARK    3  A    between atoms: C_6  and  C_7
REMARK    4  A    between atoms: C_9  and  C_10
REMARK    5  A    between atoms: C_13  and  C_14
REMARK    6  A    between atoms: C_14  and  C_15
REMARK    7  A    between atoms: C_18  and  N_19
REMARK    8  A    between atoms: C_21  and  C_22
REMARK    9  A    between atoms: C_22  and  N_23
REMARK   10  A    between atoms: C_25  and  O_26
REMARK                            x       y       z     vdW  Elec       q    Type
REMARK                         _______ _______ _______ _____ _____    ______ ____
ROOT
ATOM      1  C   UNL     1       0.746  11.229  19.243  0.00  0.00    +0.000 A 
ATOM      2  C   UNL     1       0.570  10.443  20.394  0.00  0.00    +0.000 A 
ATOM      3  C   UNL     1       1.045   9.126  20.444  0.00  0.00    +0.000 A 
ATOM      4  C   UNL     1       1.738   8.590  19.352  0.00  0.00    +0.000 A 
ATOM      5  C   UNL     1       2.027   9.407  18.251  0.00  0.00    +0.000 A 
ATOM      6  C   UNL     1       1.515  10.709  18.191  0.00  0.00    +0.000 A 
ENDROOT
BRANCH   4   7
ATOM      7  N   UNL     1       2.019   7.198  19.269  0.00  0.00    +0.000 N 
ATOM      8  C   UNL     1       2.629   6.546  18.215  0.00  0.00    +0.000 A 
ATOM      9  C   UNL     1       3.173   5.381  18.729  0.00  0.00    +0.000 A 
ATOM     10  C   UNL     1       2.552   5.262  19.988  0.00  0.00    +0.000 A 
ATOM     11  N   UNL     1       1.914   6.376  20.348  0.00  0.00    +0.000 NA
BRANCH   9  12
ATOM     12  C   UNL     1       4.177   4.468  18.110  0.00  0.00    +0.000 C 
BRANCH  12  13
ATOM     13  N   UNL     1       4.979   5.029  17.007  0.00  0.00    +0.000 NA
ATOM     14  C   UNL     1       5.842   4.069  16.306  0.00  0.00    +0.000 C 
ATOM     15  C   UNL     1       7.101   4.767  16.869  0.00  0.00    +0.000 C 
ATOM     16  C   UNL     1       6.133   5.844  17.411  0.00  0.00    +0.000 C 
BRANCH  15  17
ATOM     17  O   UNL     1       7.921   4.040  17.812  0.00  0.00    +0.000 OA
ATOM     18  H   UNL     1       8.300   3.290  17.323  0.00  0.00    +0.000 HD
ENDBRANCH  15  17
ENDBRANCH  12  13
ENDBRANCH   9  12
ENDBRANCH   4   7
BRANCH   1  19
ATOM     19  C   UNL     1       0.002  12.538  19.084  0.00  0.00    +0.000 C 
BRANCH  19  30
ATOM     20  C   UNL     1      -2.308  12.691  20.318  0.00  0.00    +0.000 A 
ATOM     21  N   UNL     1      -3.582  12.353  20.100  0.00  0.00    +0.000 NA
ATOM     22  N   UNL     1      -3.596  11.790  18.867  0.00  0.00    +0.000 N 
ATOM     23  C   UNL     1      -4.703  11.300  18.161  0.00  0.00    +0.000 A 
ATOM     24  C   UNL     1      -6.056  11.323  18.807  0.00  0.00    +0.000 C 
ATOM     25  C   UNL     1      -4.524  10.827  16.912  0.00  0.00    +0.000 A 
ATOM     26  C   UNL     1      -3.130  10.882  16.374  0.00  0.00    +0.000 A 
ATOM     27  C   UNL     1      -2.928  10.416  14.954  0.00  0.00    +0.000 C 
ATOM     28  N   UNL     1      -2.091  11.314  17.029  0.00  0.00    +0.000 NA
ATOM     29  C   UNL     1      -2.318  11.767  18.305  0.00  0.00    +0.000 A 
ATOM     30  C   UNL     1      -1.455  12.296  19.248  0.00  0.00    +0.000 A 
BRANCH  20  32
ATOM     31  C   UNL     1      -1.541  12.511  22.703  0.00  0.00    +0.000 C 
ATOM     32  C   UNL     1      -1.973  13.436  21.571  0.00  0.00    +0.000 C 
ENDBRANCH  20  32
ENDBRANCH  19  30
ENDBRANCH   1  19
TORSDOF 7
ENDMDL
MODEL 8
REMARK VINA RESULT:      -8.3      1.471      1.938
REMARK  Name = 
REMARK  10 active torsions:
REMARK  status: ('A' for Active; 'I' for Inactive)
REMARK    1  A    between atoms: C_1  and  C_2
REMARK    2  A    between atoms: C_2  and  C_3
REMARK    3  A    between atoms: C_6  and  C_7
REMARK    4  A    between atoms: C_9  and  C_10
REMARK    5  A    between atoms: C_13  and  C_14
REMARK    6  A    between atoms: C_14  and  C_15
REMARK    7  A    between atoms: C_18  and  N_19
REMARK    8  A    between atoms: C_21  and  C_22
REMARK    9  A    between atoms: C_22  and  N_23
REMARK   10  A    between atoms: C_25  and  O_26
REMARK                            x       y       z     vdW  Elec       q    Type
REMARK                         _______ _______ _______ _____ _____    ______ ____
ROOT
ATOM      1  C   UNL     1       3.968   5.278  17.758  0.00  0.00    +0.000 A 
ATOM      2  C   UNL     1       3.852   6.583  17.250  0.00  0.00    +0.000 A 
ATOM      3  C   UNL     1       3.173   7.576  17.968  0.00  0.00    +0.000 A 
ATOM      4  C   UNL     1       2.633   7.284  19.226  0.00  0.00    +0.000 A 
ATOM      5  C   UNL     1       2.852   6.023  19.794  0.00  0.00    +0.000 A 
ATOM      6  C   UNL     1       3.496   5.023  19.055  0.00  0.00    +0.000 A 
ENDROOT
BRANCH   4   7
ATOM      7  N   UNL     1       1.738   8.183  19.869  0.00  0.00    +0.000 N 
ATOM      8  C   UNL     1       1.242   9.362  19.345  0.00  0.00    +0.000 A 
ATOM      9  C   UNL     1       0.064   9.632  20.018  0.00  0.00    +0.000 A 
ATOM     10  C   UNL     1       0.120   8.769  21.129  0.00  0.00    +0.000 A 
ATOM     11  N   UNL     1       1.081   7.852  21.013  0.00  0.00    +0.000 NA
BRANCH   9  12
ATOM     12  C   UNL     1      -1.015  10.599  19.659  0.00  0.00    +0.000 C 
BRANCH  12  13
ATOM     13  N   UNL     1      -0.889  11.957  20.221  0.00  0.00    +0.000 NA
ATOM     14  C   UNL     1       0.174  12.126  21.221  0.00  0.00    +0.000 C 
ATOM     15  C   UNL     1      -0.882  12.340  22.330  0.00  0.00    +0.000 C 
ATOM     16  C   UNL     1      -1.925  12.343  21.189  0.00  0.00    +0.000 C 
BRANCH  15  17
ATOM     17  O   UNL     1      -0.996  11.339  23.366  0.00  0.00    +0.000 OA
ATOM     18  H   UNL     1      -1.808  10.840  23.174  0.00  0.00    +0.000 HD
ENDBRANCH  15  17
ENDBRANCH  12  13
ENDBRANCH   9  12
ENDBRANCH   4   7
BRANCH   1  19
ATOM     19  C   UNL     1       4.452   4.148  16.874  0.00  0.00    +0.000 C 
BRANCH  19  30
ATOM     20  C   UNL     1       6.801   5.242  16.470  0.00  0.00    +0.000 A 
ATOM     21  N   UNL     1       7.628   5.487  15.450  0.00  0.00    +0.000 NA
ATOM     22  N   UNL     1       7.004   4.985  14.356  0.00  0.00    +0.000 N 
ATOM     23  C   UNL     1       7.474   4.960  13.036  0.00  0.00    +0.000 A 
ATOM     24  C   UNL     1       8.796   5.591  12.714  0.00  0.00    +0.000 C 
ATOM     25  C   UNL     1       6.728   4.360  12.088  0.00  0.00    +0.000 A 
ATOM     26  C   UNL     1       5.442   3.747  12.543  0.00  0.00    +0.000 A 
ATOM     27  C   UNL     1       4.629   3.016  11.504  0.00  0.00    +0.000 C 
ATOM     28  N   UNL     1       4.984   3.786  13.762  0.00  0.00    +0.000 NA
ATOM     29  C   UNL     1       5.768   4.425  14.689  0.00  0.00    +0.000 A 
ATOM     30  C   UNL     1       5.589   4.627  16.046  0.00  0.00    +0.000 A 
BRANCH  20  32
ATOM     31  C   UNL     1       7.590   7.069  18.002  0.00  0.00    +0.000 C 
ATOM     32  C   UNL     1       7.253   5.591  17.852  0.00  0.00    +0.000 C 
ENDBRANCH  20  32
ENDBRANCH  19  30
ENDBRANCH   1  19
TORSDOF 7
ENDMDL
MODEL 9
REMARK VINA RESULT:      -8.3      3.623      9.865
REMARK  Name = 
REMARK  10 active torsions:
REMARK  status: ('A' for Active; 'I' for Inactive)
REMARK    1  A    between atoms: C_1  and  C_2
REMARK    2  A    between atoms: C_2  and  C_3
REMARK    3  A    between atoms: C_6  and  C_7
REMARK    4  A    between atoms: C_9  and  C_10
REMARK    5  A    between atoms: C_13  and  C_14
REMARK    6  A    between atoms: C_14  and  C_15
REMARK    7  A    between atoms: C_18  and  N_19
REMARK    8  A    between atoms: C_21  and  C_22
REMARK    9  A    between atoms: C_22  and  N_23
REMARK   10  A    between atoms: C_25  and  O_26
REMARK                            x       y       z     vdW  Elec       q    Type
REMARK                         _______ _______ _______ _____ _____    ______ ____
ROOT
ATOM      1  C   UNL     1       0.677   9.979  19.403  0.00  0.00    +0.000 A 
ATOM      2  C   UNL     1       0.829   9.143  20.522  0.00  0.00    +0.000 A 
ATOM      3  C   UNL     1       1.568   7.956  20.437  0.00  0.00    +0.000 A 
ATOM      4  C   UNL     1       2.199   7.609  19.237  0.00  0.00    +0.000 A 
ATOM      5  C   UNL     1       2.157   8.497  18.155  0.00  0.00    +0.000 A 
ATOM      6  C   UNL     1       1.384   9.662  18.233  0.00  0.00    +0.000 A 
ENDROOT
BRANCH   4   7
ATOM      7  N   UNL     1       2.747   6.311  19.043  0.00  0.00    +0.000 N 
ATOM      8  C   UNL     1       2.649   5.543  17.898  0.00  0.00    +0.000 A 
ATOM      9  C   UNL     1       3.709   4.653  17.925  0.00  0.00    +0.000 A 
ATOM     10  C   UNL     1       4.166   4.733  19.255  0.00  0.00    +0.000 A 
ATOM     11  N   UNL     1       3.643   5.769  19.911  0.00  0.00    +0.000 NA
BRANCH   9  12
ATOM     12  C   UNL     1       4.248   3.810  16.817  0.00  0.00    +0.000 C 
BRANCH  12  13
ATOM     13  N   UNL     1       5.071   4.505  15.809  0.00  0.00    +0.000 NA
ATOM     14  C   UNL     1       6.203   3.731  15.281  0.00  0.00    +0.000 C 
ATOM     15  C   UNL     1       7.200   4.684  15.978  0.00  0.00    +0.000 C 
ATOM     16  C   UNL     1       5.967   5.548  16.329  0.00  0.00    +0.000 C 
BRANCH  15  17
ATOM     17  O   UNL     1       8.004   4.160  17.059  0.00  0.00    +0.000 OA
ATOM     18  H   UNL     1       8.897   4.523  16.936  0.00  0.00    +0.000 HD
ENDBRANCH  15  17
ENDBRANCH  12  13
ENDBRANCH   9  12
ENDBRANCH   4   7
BRANCH   1  19
ATOM     19  C   UNL     1      -0.337  11.104  19.414  0.00  0.00    +0.000 C 
BRANCH  19  30
ATOM     20  C   UNL     1      -0.278  12.475  21.649  0.00  0.00    +0.000 A 
ATOM     21  N   UNL     1       0.414  13.486  22.184  0.00  0.00    +0.000 NA
ATOM     22  N   UNL     1       1.329  13.829  21.245  0.00  0.00    +0.000 N 
ATOM     23  C   UNL     1       2.321  14.815  21.334  0.00  0.00    +0.000 A 
ATOM     24  C   UNL     1       2.405  15.664  22.567  0.00  0.00    +0.000 C 
ATOM     25  C   UNL     1       3.182  14.970  20.310  0.00  0.00    +0.000 A 
ATOM     26  C   UNL     1       3.008  14.044  19.149  0.00  0.00    +0.000 A 
ATOM     27  C   UNL     1       4.006  14.163  18.024  0.00  0.00    +0.000 C 
ATOM     28  N   UNL     1       2.076  13.140  19.046  0.00  0.00    +0.000 NA
ATOM     29  C   UNL     1       1.209  13.032  20.104  0.00  0.00    +0.000 A 
ATOM     30  C   UNL     1       0.139  12.182  20.320  0.00  0.00    +0.000 A 
BRANCH  20  32
ATOM     31  C   UNL     1      -0.791  10.529  23.151  0.00  0.00    +0.000 C 
ATOM     32  C   UNL     1      -1.313  11.798  22.488  0.00  0.00    +0.000 C 
ENDBRANCH  20  32
ENDBRANCH  19  30
ENDBRANCH   1  19
TORSDOF 7
ENDMDL
