MODEL 1
REMARK VINA RESULT:      -8.4      0.000      0.000
REMARK  Name = 
REMARK  17 active torsions:
REMARK  status: ('A' for Active; 'I' for Inactive)
REMARK    1  A    between atoms: C_1  and  C_2
REMARK    2  A    between atoms: C_2  and  C_3
REMARK    3  A    between atoms: C_3  and  N_4
REMARK    4  A    between atoms: C_3  and  C_23
REMARK    5  A    between atoms: C_5  and  C_7
REMARK    6  A    between atoms: C_7  and  C_8
REMARK    7  A    between atoms: C_7  and  N_12
REMARK    8  A    between atoms: C_8  and  C_9
REMARK    9  A    between atoms: C_9  and  C_10
REMARK   10  A    between atoms: C_9  and  C_11
REMARK   11  A    between atoms: C_13  and  O_15
REMARK   12  A    between atoms: O_15  and  C_16
REMARK   13  A    between atoms: C_16  and  C_17
REMARK   14  A    between atoms: C_23  and  C_25
REMARK   15  A    between atoms: N_27  and  C_28
REMARK   16  A    between atoms: C_28  and  C_29
REMARK   17  A    between atoms: C_29  and  C_30
REMARK                            x       y       z     vdW  Elec       q    Type
REMARK                         _______ _______ _______ _____ _____    ______ ____
ROOT
ATOM      1  N   UNL     1       4.558   5.240  16.748  0.00  0.00    +0.000 N 
ATOM      2  C   UNL     1       4.072   6.347  17.440  0.00  0.00    +0.000 C 
ATOM      3  O   UNL     1       4.733   7.381  17.528  0.00  0.00    +0.000 OA
ATOM      4  H   UNL     1       3.988   4.405  16.817  0.00  0.00    +0.000 HD
ENDROOT
BRANCH   1   5
ATOM      5  C   UNL     1       5.982   5.022  16.261  0.00  0.00    +0.000 C 
BRANCH   5   7
ATOM      6  C   UNL     1       6.228   4.064  13.889  0.00  0.00    +0.000 C 
ATOM      7  C   UNL     1       5.983   3.765  15.364  0.00  0.00    +0.000 C 
ENDBRANCH   5   7
BRANCH   5   8
ATOM      8  C   UNL     1       7.289   4.935  17.196  0.00  0.00    +0.000 C 
ATOM      9  O   UNL     1       8.169   4.082  17.053  0.00  0.00    +0.000 OA
BRANCH   8  10
ATOM     10  C   UNL     1       7.468   5.931  18.435  0.00  0.00    +0.000 C 
ATOM     11  O   UNL     1       7.384   5.507  19.580  0.00  0.00    +0.000 OA
ATOM     12  N   UNL     1       7.844   7.224  18.064  0.00  0.00    +0.000 N 
ATOM     13  H   UNL     1       7.647   7.431  17.083  0.00  0.00    +0.000 HD
BRANCH  12  14
ATOM     14  C   UNL     1       8.560   8.316  18.789  0.00  0.00    +0.000 C 
BRANCH  14  15
ATOM     15  C   UNL     1       8.586   9.792  18.297  0.00  0.00    +0.000 C 
BRANCH  15  16
ATOM     16  C   UNL     1       9.667  10.797  18.706  0.00  0.00    +0.000 A 
ATOM     17  C   UNL     1       9.769  11.132  20.063  0.00  0.00    +0.000 A 
ATOM     18  C   UNL     1      10.737  12.040  20.498  0.00  0.00    +0.000 A 
ATOM     19  C   UNL     1      11.585  12.620  19.568  0.00  0.00    +0.000 A 
ATOM     20  C   UNL     1      11.378  12.304  18.230  0.00  0.00    +0.000 A 
ATOM     21  N   UNL     1      10.428  11.432  17.775  0.00  0.00    +0.000 NA
ENDBRANCH  15  16
ENDBRANCH  14  15
ENDBRANCH  12  14
ENDBRANCH   8  10
ENDBRANCH   5   8
ENDBRANCH   1   5
BRANCH   2  22
ATOM     22  C   UNL     1       2.586   6.252  18.015  0.00  0.00    +0.000 C 
BRANCH  22  23
ATOM     23  N   UNL     1       2.414   6.951  19.266  0.00  0.00    +0.000 N 
ATOM     24  C   UNL     1       1.847   8.189  19.405  0.00  0.00    +0.000 C 
ATOM     25  O   UNL     1       1.417   8.898  18.524  0.00  0.00    +0.000 OA
ATOM     26  H   UNL     1       2.743   6.537  20.117  0.00  0.00    +0.000 HD
BRANCH  24  27
ATOM     27  O   UNL     1       1.903   8.568  20.716  0.00  0.00    +0.000 OA
BRANCH  27  28
ATOM     28  C   UNL     1       0.608   8.500  21.316  0.00  0.00    +0.000 C 
BRANCH  28  29
ATOM     29  C   UNL     1       0.172   9.855  21.757  0.00  0.00    +0.000 A 
ATOM     30  C   UNL     1      -0.696   9.937  22.855  0.00  0.00    +0.000 A 
ATOM     31  C   UNL     1      -1.174  11.163  23.207  0.00  0.00    +0.000 A 
ATOM     32  C   UNL     1      -0.912  12.279  22.401  0.00  0.00    +0.000 A 
ATOM     33  C   UNL     1       0.017  12.247  21.398  0.00  0.00    +0.000 A 
ATOM     34  C   UNL     1       0.554  11.022  21.065  0.00  0.00    +0.000 A 
ENDBRANCH  28  29
ENDBRANCH  27  28
ENDBRANCH  24  27
ENDBRANCH  22  23
BRANCH  22  35
ATOM     35  C   UNL     1       2.272   4.770  18.317  0.00  0.00    +0.000 C 
BRANCH  35  36
ATOM     36  C   UNL     1       2.460   4.337  19.794  0.00  0.00    +0.000 C 
ATOM     37  C   UNL     1       1.179   3.807  20.438  0.00  0.00    +0.000 C 
ATOM     38  C   UNL     1       3.569   3.283  19.863  0.00  0.00    +0.000 C 
ENDBRANCH  35  36
ENDBRANCH  22  35
ENDBRANCH   2  22
TORSDOF 14
ENDMDL
MODEL 2
REMARK VINA RESULT:      -8.3      2.852      9.029
REMARK  Name = 
REMARK  17 active torsions:
REMARK  status: ('A' for Active; 'I' for Inactive)
REMARK    1  A    between atoms: C_1  and  C_2
REMARK    2  A    between atoms: C_2  and  C_3
REMARK    3  A    between atoms: C_3  and  N_4
REMARK    4  A    between atoms: C_3  and  C_23
REMARK    5  A    between atoms: C_5  and  C_7
REMARK    6  A    between atoms: C_7  and  C_8
REMARK    7  A    between atoms: C_7  and  N_12
REMARK    8  A    between atoms: C_8  and  C_9
REMARK    9  A    between atoms: C_9  and  C_10
REMARK   10  A    between atoms: C_9  and  C_11
REMARK   11  A    between atoms: C_13  and  O_15
REMARK   12  A    between atoms: O_15  and  C_16
REMARK   13  A    between atoms: C_16  and  C_17
REMARK   14  A    between atoms: C_23  and  C_25
REMARK   15  A    between atoms: N_27  and  C_28
REMARK   16  A    between atoms: C_28  and  C_29
REMARK   17  A    between atoms: C_29  and  C_30
REMARK                            x       y       z     vdW  Elec       q    Type
REMARK                         _______ _______ _______ _____ _____    ______ ____
ROOT
ATOM      1  N   UNL     1       4.403   5.725  18.155  0.00  0.00    +0.000 N 
ATOM      2  C   UNL     1       5.763   5.437  18.240  0.00  0.00    +0.000 C 
ATOM      3  O   UNL     1       6.224   4.822  19.200  0.00  0.00    +0.000 OA
ATOM      4  H   UNL     1       4.136   6.320  17.380  0.00  0.00    +0.000 HD
ENDROOT
BRANCH   1   5
ATOM      5  C   UNL     1       3.373   5.597  19.267  0.00  0.00    +0.000 C 
BRANCH   5   7
ATOM      6  C   UNL     1       1.768   4.406  17.650  0.00  0.00    +0.000 C 
ATOM      7  C   UNL     1       2.523   4.341  18.974  0.00  0.00    +0.000 C 
ENDBRANCH   5   7
BRANCH   5   8
ATOM      8  C   UNL     1       2.360   6.753  19.743  0.00  0.00    +0.000 C 
ATOM      9  O   UNL     1       1.655   6.662  20.751  0.00  0.00    +0.000 OA
BRANCH   8  10
ATOM     10  C   UNL     1       2.160   8.072  18.860  0.00  0.00    +0.000 C 
ATOM     11  O   UNL     1       2.639   8.136  17.736  0.00  0.00    +0.000 OA
ATOM     12  N   UNL     1       1.310   9.013  19.446  0.00  0.00    +0.000 N 
ATOM     13  H   UNL     1       1.197   8.877  20.452  0.00  0.00    +0.000 HD
BRANCH  12  14
ATOM     14  C   UNL     1       0.467  10.107  18.876  0.00  0.00    +0.000 C 
BRANCH  14  15
ATOM     15  C   UNL     1      -0.469   9.910  17.649  0.00  0.00    +0.000 C 
BRANCH  15  16
ATOM     16  C   UNL     1      -1.891  10.474  17.575  0.00  0.00    +0.000 A 
ATOM     17  C   UNL     1      -2.587  10.337  16.367  0.00  0.00    +0.000 A 
ATOM     18  C   UNL     1      -3.888  10.827  16.238  0.00  0.00    +0.000 A 
ATOM     19  C   UNL     1      -4.478  11.467  17.317  0.00  0.00    +0.000 A 
ATOM     20  C   UNL     1      -3.705  11.638  18.459  0.00  0.00    +0.000 A 
ATOM     21  N   UNL     1      -2.423  11.184  18.606  0.00  0.00    +0.000 NA
ENDBRANCH  15  16
ENDBRANCH  14  15
ENDBRANCH  12  14
ENDBRANCH   8  10
ENDBRANCH   5   8
ENDBRANCH   1   5
BRANCH   2  22
ATOM     22  C   UNL     1       6.672   5.841  16.991  0.00  0.00    +0.000 C 
BRANCH  22  23
ATOM     23  N   UNL     1       7.056   7.232  16.994  0.00  0.00    +0.000 N 
ATOM     24  C   UNL     1       7.914   7.811  17.889  0.00  0.00    +0.000 C 
ATOM     25  O   UNL     1       8.472   7.273  18.819  0.00  0.00    +0.000 OA
ATOM     26  H   UNL     1       6.667   7.857  16.313  0.00  0.00    +0.000 HD
BRANCH  24  27
ATOM     27  O   UNL     1       8.000   9.150  17.632  0.00  0.00    +0.000 OA
BRANCH  27  28
ATOM     28  C   UNL     1       8.747   9.812  18.656  0.00  0.00    +0.000 C 
BRANCH  28  29
ATOM     29  C   UNL     1       9.315  11.088  18.137  0.00  0.00    +0.000 A 
ATOM     30  C   UNL     1      10.697  11.144  17.911  0.00  0.00    +0.000 A 
ATOM     31  C   UNL     1      11.239  12.332  17.526  0.00  0.00    +0.000 A 
ATOM     32  C   UNL     1      10.450  13.490  17.500  0.00  0.00    +0.000 A 
ATOM     33  C   UNL     1       9.088  13.442  17.605  0.00  0.00    +0.000 A 
ATOM     34  C   UNL     1       8.516  12.233  17.939  0.00  0.00    +0.000 A 
ENDBRANCH  28  29
ENDBRANCH  27  28
ENDBRANCH  24  27
ENDBRANCH  22  23
BRANCH  22  35
ATOM     35  C   UNL     1       5.850   5.635  15.700  0.00  0.00    +0.000 C 
BRANCH  35  36
ATOM     36  C   UNL     1       6.383   4.541  14.738  0.00  0.00    +0.000 C 
ATOM     37  C   UNL     1       5.299   3.940  13.844  0.00  0.00    +0.000 C 
ATOM     38  C   UNL     1       7.509   5.138  13.888  0.00  0.00    +0.000 C 
ENDBRANCH  35  36
ENDBRANCH  22  35
ENDBRANCH   2  22
TORSDOF 14
ENDMDL
MODEL 3
REMARK VINA RESULT:      -7.7      1.289      1.508
REMARK  Name = 
REMARK  17 active torsions:
REMARK  status: ('A' for Active; 'I' for Inactive)
REMARK    1  A    between atoms: C_1  and  C_2
REMARK    2  A    between atoms: C_2  and  C_3
REMARK    3  A    between atoms: C_3  and  N_4
REMARK    4  A    between atoms: C_3  and  C_23
REMARK    5  A    between atoms: C_5  and  C_7
REMARK    6  A    between atoms: C_7  and  C_8
REMARK    7  A    between atoms: C_7  and  N_12
REMARK    8  A    between atoms: C_8  and  C_9
REMARK    9  A    between atoms: C_9  and  C_10
REMARK   10  A    between atoms: C_9  and  C_11
REMARK   11  A    between atoms: C_13  and  O_15
REMARK   12  A    between atoms: O_15  and  C_16
REMARK   13  A    between atoms: C_16  and  C_17
REMARK   14  A    between atoms: C_23  and  C_25
REMARK   15  A    between atoms: N_27  and  C_28
REMARK   16  A    between atoms: C_28  and  C_29
REMARK   17  A    between atoms: C_29  and  C_30
REMARK                            x       y       z     vdW  Elec       q    Type
REMARK                         _______ _______ _______ _____ _____    ______ ____
ROOT
ATOM      1  N   UNL     1       4.319   5.429  16.109  0.00  0.00    +0.000 N 
ATOM      2  C   UNL     1       4.020   4.686  17.248  0.00  0.00    +0.000 C 
ATOM      3  O   UNL     1       4.864   3.962  17.774  0.00  0.00    +0.000 OA
ATOM      4  H   UNL     1       3.533   5.914  15.692  0.00  0.00    +0.000 HD
ENDROOT
BRANCH   1   5
ATOM      5  C   UNL     1       5.542   5.278  15.217  0.00  0.00    +0.000 C 
BRANCH   5   7
ATOM      6  C   UNL     1       5.693   3.684  13.205  0.00  0.00    +0.000 C 
ATOM      7  C   UNL     1       5.581   3.815  14.721  0.00  0.00    +0.000 C 
ENDBRANCH   5   7
BRANCH   5   8
ATOM      8  C   UNL     1       7.048   5.682  15.614  0.00  0.00    +0.000 C 
ATOM      9  O   UNL     1       8.001   5.588  14.838  0.00  0.00    +0.000 OA
BRANCH   8  10
ATOM     10  C   UNL     1       7.394   6.160  17.101  0.00  0.00    +0.000 C 
ATOM     11  O   UNL     1       7.678   5.337  17.960  0.00  0.00    +0.000 OA
ATOM     12  N   UNL     1       7.460   7.549  17.240  0.00  0.00    +0.000 N 
ATOM     13  H   UNL     1       6.983   8.049  16.487  0.00  0.00    +0.000 HD
BRANCH  12  14
ATOM     14  C   UNL     1       8.169   8.435  18.211  0.00  0.00    +0.000 C 
BRANCH  14  15
ATOM     15  C   UNL     1       8.456   9.939  17.940  0.00  0.00    +0.000 C 
BRANCH  15  16
ATOM     16  C   UNL     1       9.483  10.757  18.730  0.00  0.00    +0.000 A 
ATOM     17  C   UNL     1      10.610  11.229  18.045  0.00  0.00    +0.000 A 
ATOM     18  C   UNL     1      11.580  11.983  18.709  0.00  0.00    +0.000 A 
ATOM     19  C   UNL     1      11.422  12.245  20.061  0.00  0.00    +0.000 A 
ATOM     20  C   UNL     1      10.322  11.681  20.697  0.00  0.00    +0.000 A 
ATOM     21  N   UNL     1       9.367  10.925  20.075  0.00  0.00    +0.000 NA
ENDBRANCH  15  16
ENDBRANCH  14  15
ENDBRANCH  12  14
ENDBRANCH   8  10
ENDBRANCH   5   8
ENDBRANCH   1   5
BRANCH   2  22
ATOM     22  C   UNL     1       2.579   4.901  17.900  0.00  0.00    +0.000 C 
BRANCH  22  23
ATOM     23  N   UNL     1       2.571   5.891  18.950  0.00  0.00    +0.000 N 
ATOM     24  C   UNL     1       2.201   7.200  18.795  0.00  0.00    +0.000 C 
ATOM     25  O   UNL     1       1.840   7.741  17.774  0.00  0.00    +0.000 OA
ATOM     26  H   UNL     1       2.874   5.642  19.872  0.00  0.00    +0.000 HD
BRANCH  24  27
ATOM     27  O   UNL     1       2.373   7.862  19.978  0.00  0.00    +0.000 OA
BRANCH  27  28
ATOM     28  C   UNL     1       1.278   7.609  20.861  0.00  0.00    +0.000 C 
BRANCH  28  29
ATOM     29  C   UNL     1       0.715   8.893  21.365  0.00  0.00    +0.000 A 
ATOM     30  C   UNL     1       0.009   8.867  22.575  0.00  0.00    +0.000 A 
ATOM     31  C   UNL     1      -0.590  10.015  22.997  0.00  0.00    +0.000 A 
ATOM     32  C   UNL     1      -0.612  11.143  22.165  0.00  0.00    +0.000 A 
ATOM     33  C   UNL     1       0.160  11.230  21.040  0.00  0.00    +0.000 A 
ATOM     34  C   UNL     1       0.819  10.091  20.629  0.00  0.00    +0.000 A 
ENDBRANCH  28  29
ENDBRANCH  27  28
ENDBRANCH  24  27
ENDBRANCH  22  23
BRANCH  22  35
ATOM     35  C   UNL     1       2.142   3.579  18.569  0.00  0.00    +0.000 C 
BRANCH  35  36
ATOM     36  C   UNL     1       2.211   3.562  20.118  0.00  0.00    +0.000 C 
ATOM     37  C   UNL     1       0.889   3.171  20.779  0.00  0.00    +0.000 C 
ATOM     38  C   UNL     1       3.329   2.610  20.553  0.00  0.00    +0.000 C 
ENDBRANCH  35  36
ENDBRANCH  22  35
ENDBRANCH   2  22
TORSDOF 14
ENDMDL
MODEL 4
REMARK VINA RESULT:      -7.7      1.264      1.746
REMARK  Name = 
REMARK  17 active torsions:
REMARK  status: ('A' for Active; 'I' for Inactive)
REMARK    1  A    between atoms: C_1  and  C_2
REMARK    2  A    between atoms: C_2  and  C_3
REMARK    3  A    between atoms: C_3  and  N_4
REMARK    4  A    between atoms: C_3  and  C_23
REMARK    5  A    between atoms: C_5  and  C_7
REMARK    6  A    between atoms: C_7  and  C_8
REMARK    7  A    between atoms: C_7  and  N_12
REMARK    8  A    between atoms: C_8  and  C_9
REMARK    9  A    between atoms: C_9  and  C_10
REMARK   10  A    between atoms: C_9  and  C_11
REMARK   11  A    between atoms: C_13  and  O_15
REMARK   12  A    between atoms: O_15  and  C_16
REMARK   13  A    between atoms: C_16  and  C_17
REMARK   14  A    between atoms: C_23  and  C_25
REMARK   15  A    between atoms: N_27  and  C_28
REMARK   16  A    between atoms: C_28  and  C_29
REMARK   17  A    between atoms: C_29  and  C_30
REMARK                            x       y       z     vdW  Elec       q    Type
REMARK                         _______ _______ _______ _____ _____    ______ ____
ROOT
ATOM      1  N   UNL     1       4.294   5.295  17.920  0.00  0.00    +0.000 N 
ATOM      2  C   UNL     1       3.484   6.373  18.272  0.00  0.00    +0.000 C 
ATOM      3  O   UNL     1       3.477   7.407  17.606  0.00  0.00    +0.000 OA
ATOM      4  H   UNL     1       4.306   4.530  18.584  0.00  0.00    +0.000 HD
ENDROOT
BRANCH   1   5
ATOM      5  C   UNL     1       5.429   5.301  16.908  0.00  0.00    +0.000 C 
BRANCH   5   7
ATOM      6  C   UNL     1       5.481   4.383  14.507  0.00  0.00    +0.000 C 
ATOM      7  C   UNL     1       5.236   4.080  15.982  0.00  0.00    +0.000 C 
ENDBRANCH   5   7
BRANCH   5   8
ATOM      8  C   UNL     1       6.997   5.385  17.258  0.00  0.00    +0.000 C 
ATOM      9  O   UNL     1       7.803   4.495  16.974  0.00  0.00    +0.000 OA
BRANCH   8  10
ATOM     10  C   UNL     1       7.579   6.625  18.084  0.00  0.00    +0.000 C 
ATOM     11  O   UNL     1       8.188   6.436  19.128  0.00  0.00    +0.000 OA
ATOM     12  N   UNL     1       7.431   7.851  17.430  0.00  0.00    +0.000 N 
ATOM     13  H   UNL     1       6.718   7.830  16.699  0.00  0.00    +0.000 HD
BRANCH  12  14
ATOM     14  C   UNL     1       8.174   9.144  17.525  0.00  0.00    +0.000 C 
BRANCH  14  15
ATOM     15  C   UNL     1       8.797   9.673  18.849  0.00  0.00    +0.000 C 
BRANCH  15  16
ATOM     16  C   UNL     1       9.673  10.928  18.925  0.00  0.00    +0.000 A 
ATOM     17  C   UNL     1      10.322  11.199  20.136  0.00  0.00    +0.000 A 
ATOM     18  C   UNL     1      11.137  12.326  20.267  0.00  0.00    +0.000 A 
ATOM     19  C   UNL     1      11.282  13.183  19.187  0.00  0.00    +0.000 A 
ATOM     20  C   UNL     1      10.548  12.898  18.042  0.00  0.00    +0.000 A 
ATOM     21  N   UNL     1       9.730  11.812  17.892  0.00  0.00    +0.000 NA
ENDBRANCH  15  16
ENDBRANCH  14  15
ENDBRANCH  12  14
ENDBRANCH   8  10
ENDBRANCH   5   8
ENDBRANCH   1   5
BRANCH   2  22
ATOM     22  C   UNL     1       2.491   6.165  19.504  0.00  0.00    +0.000 C 
BRANCH  22  23
ATOM     23  N   UNL     1       2.404   7.320  20.366  0.00  0.00    +0.000 N 
ATOM     24  C   UNL     1       1.284   7.711  21.048  0.00  0.00    +0.000 C 
ATOM     25  O   UNL     1       0.197   7.178  21.034  0.00  0.00    +0.000 OA
ATOM     26  H   UNL     1       3.201   7.917  20.480  0.00  0.00    +0.000 HD
BRANCH  24  27
ATOM     27  O   UNL     1       1.543   8.876  21.713  0.00  0.00    +0.000 OA
BRANCH  27  28
ATOM     28  C   UNL     1       0.346   9.641  21.873  0.00  0.00    +0.000 C 
BRANCH  28  29
ATOM     29  C   UNL     1       0.248  10.675  20.804  0.00  0.00    +0.000 A 
ATOM     30  C   UNL     1      -0.706  10.484  19.795  0.00  0.00    +0.000 A 
ATOM     31  C   UNL     1      -0.740  11.373  18.764  0.00  0.00    +0.000 A 
ATOM     32  C   UNL     1       0.248  12.362  18.655  0.00  0.00    +0.000 A 
ATOM     33  C   UNL     1       1.113  12.639  19.677  0.00  0.00    +0.000 A 
ATOM     34  C   UNL     1       1.122  11.780  20.755  0.00  0.00    +0.000 A 
ENDBRANCH  28  29
ENDBRANCH  27  28
ENDBRANCH  24  27
ENDBRANCH  22  23
BRANCH  22  35
ATOM     35  C   UNL     1       3.041   5.024  20.388  0.00  0.00    +0.000 C 
BRANCH  35  36
ATOM     36  C   UNL     1       2.258   3.686  20.312  0.00  0.00    +0.000 C 
ATOM     37  C   UNL     1       2.412   2.822  21.564  0.00  0.00    +0.000 C 
ATOM     38  C   UNL     1       0.781   3.993  20.051  0.00  0.00    +0.000 C 
ENDBRANCH  35  36
ENDBRANCH  22  35
ENDBRANCH   2  22
TORSDOF 14
ENDMDL
MODEL 5
REMARK VINA RESULT:      -7.6      1.912      2.518
REMARK  Name = 
REMARK  17 active torsions:
REMARK  status: ('A' for Active; 'I' for Inactive)
REMARK    1  A    between atoms: C_1  and  C_2
REMARK    2  A    between atoms: C_2  and  C_3
REMARK    3  A    between atoms: C_3  and  N_4
REMARK    4  A    between atoms: C_3  and  C_23
REMARK    5  A    between atoms: C_5  and  C_7
REMARK    6  A    between atoms: C_7  and  C_8
REMARK    7  A    between atoms: C_7  and  N_12
REMARK    8  A    between atoms: C_8  and  C_9
REMARK    9  A    between atoms: C_9  and  C_10
REMARK   10  A    between atoms: C_9  and  C_11
REMARK   11  A    between atoms: C_13  and  O_15
REMARK   12  A    between atoms: O_15  and  C_16
REMARK   13  A    between atoms: C_16  and  C_17
REMARK   14  A    between atoms: C_23  and  C_25
REMARK   15  A    between atoms: N_27  and  C_28
REMARK   16  A    between atoms: C_28  and  C_29
REMARK   17  A    between atoms: C_29  and  C_30
REMARK                            x       y       z     vdW  Elec       q    Type
REMARK                         _______ _______ _______ _____ _____    ______ ____
ROOT
ATOM      1  N   UNL     1       3.400   4.993  17.658  0.00  0.00    +0.000 N 
ATOM      2  C   UNL     1       3.423   5.267  19.024  0.00  0.00    +0.000 C 
ATOM      3  O   UNL     1       4.483   5.294  19.648  0.00  0.00    +0.000 OA
ATOM      4  H   UNL     1       2.476   4.893  17.254  0.00  0.00    +0.000 HD
ENDROOT
BRANCH   1   5
ATOM      5  C   UNL     1       4.544   4.444  16.819  0.00  0.00    +0.000 C 
BRANCH   5   7
ATOM      6  C   UNL     1       3.478   2.224  17.557  0.00  0.00    +0.000 C 
ATOM      7  C   UNL     1       4.768   2.974  17.238  0.00  0.00    +0.000 C 
ENDBRANCH   5   7
BRANCH   5   8
ATOM      8  C   UNL     1       5.997   5.116  16.661  0.00  0.00    +0.000 C 
ATOM      9  O   UNL     1       6.993   4.495  16.281  0.00  0.00    +0.000 OA
BRANCH   8  10
ATOM     10  C   UNL     1       6.236   6.641  17.079  0.00  0.00    +0.000 C 
ATOM     11  O   UNL     1       5.290   7.414  17.151  0.00  0.00    +0.000 OA
ATOM     12  N   UNL     1       7.552   6.918  17.459  0.00  0.00    +0.000 N 
ATOM     13  H   UNL     1       8.219   6.220  17.123  0.00  0.00    +0.000 HD
BRANCH  12  14
ATOM     14  C   UNL     1       8.152   7.970  18.333  0.00  0.00    +0.000 C 
BRANCH  14  15
ATOM     15  C   UNL     1       8.364   9.441  17.873  0.00  0.00    +0.000 C 
BRANCH  15  16
ATOM     16  C   UNL     1       9.231  10.446  18.638  0.00  0.00    +0.000 A 
ATOM     17  C   UNL     1      10.074  11.282  17.894  0.00  0.00    +0.000 A 
ATOM     18  C   UNL     1      10.886  12.221  18.533  0.00  0.00    +0.000 A 
ATOM     19  C   UNL     1      10.859  12.305  19.917  0.00  0.00    +0.000 A 
ATOM     20  C   UNL     1      10.060  11.395  20.597  0.00  0.00    +0.000 A 
ATOM     21  N   UNL     1       9.269  10.454  19.998  0.00  0.00    +0.000 NA
ENDBRANCH  15  16
ENDBRANCH  14  15
ENDBRANCH  12  14
ENDBRANCH   8  10
ENDBRANCH   5   8
ENDBRANCH   1   5
BRANCH   2  22
ATOM     22  C   UNL     1       2.036   5.650  19.713  0.00  0.00    +0.000 C 
BRANCH  22  23
ATOM     23  N   UNL     1       1.880   7.069  19.926  0.00  0.00    +0.000 N 
ATOM     24  C   UNL     1       1.851   8.016  18.938  0.00  0.00    +0.000 C 
ATOM     25  O   UNL     1       1.964   7.832  17.748  0.00  0.00    +0.000 OA
ATOM     26  H   UNL     1       1.804   7.427  20.860  0.00  0.00    +0.000 HD
BRANCH  24  27
ATOM     27  O   UNL     1       1.752   9.256  19.503  0.00  0.00    +0.000 OA
BRANCH  27  28
ATOM     28  C   UNL     1       1.546  10.251  18.498  0.00  0.00    +0.000 C 
BRANCH  28  29
ATOM     29  C   UNL     1       0.153  10.776  18.569  0.00  0.00    +0.000 A 
ATOM     30  C   UNL     1      -0.081  11.904  19.369  0.00  0.00    +0.000 A 
ATOM     31  C   UNL     1      -1.364  12.335  19.515  0.00  0.00    +0.000 A 
ATOM     32  C   UNL     1      -2.424  11.580  18.994  0.00  0.00    +0.000 A 
ATOM     33  C   UNL     1      -2.218  10.548  18.121  0.00  0.00    +0.000 A 
ATOM     34  C   UNL     1      -0.919  10.134  17.917  0.00  0.00    +0.000 A 
ENDBRANCH  28  29
ENDBRANCH  27  28
ENDBRANCH  24  27
ENDBRANCH  22  23
BRANCH  22  35
ATOM     35  C   UNL     1       1.993   5.008  21.117  0.00  0.00    +0.000 C 
BRANCH  35  36
ATOM     36  C   UNL     1       1.454   3.554  21.168  0.00  0.00    +0.000 C 
ATOM     37  C   UNL     1       0.783   3.111  19.868  0.00  0.00    +0.000 C 
ATOM     38  C   UNL     1       2.608   2.612  21.524  0.00  0.00    +0.000 C 
ENDBRANCH  35  36
ENDBRANCH  22  35
ENDBRANCH   2  22
TORSDOF 14
ENDMDL
MODEL 6
REMARK VINA RESULT:      -7.6      1.282      1.603
REMARK  Name = 
REMARK  17 active torsions:
REMARK  status: ('A' for Active; 'I' for Inactive)
REMARK    1  A    between atoms: C_1  and  C_2
REMARK    2  A    between atoms: C_2  and  C_3
REMARK    3  A    between atoms: C_3  and  N_4
REMARK    4  A    between atoms: C_3  and  C_23
REMARK    5  A    between atoms: C_5  and  C_7
REMARK    6  A    between atoms: C_7  and  C_8
REMARK    7  A    between atoms: C_7  and  N_12
REMARK    8  A    between atoms: C_8  and  C_9
REMARK    9  A    between atoms: C_9  and  C_10
REMARK   10  A    between atoms: C_9  and  C_11
REMARK   11  A    between atoms: C_13  and  O_15
REMARK   12  A    between atoms: O_15  and  C_16
REMARK   13  A    between atoms: C_16  and  C_17
REMARK   14  A    between atoms: C_23  and  C_25
REMARK   15  A    between atoms: N_27  and  C_28
REMARK   16  A    between atoms: C_28  and  C_29
REMARK   17  A    between atoms: C_29  and  C_30
REMARK                            x       y       z     vdW  Elec       q    Type
REMARK                         _______ _______ _______ _____ _____    ______ ____
ROOT
ATOM      1  N   UNL     1       4.365   5.395  17.079  0.00  0.00    +0.000 N 
ATOM      2  C   UNL     1       3.766   4.368  17.804  0.00  0.00    +0.000 C 
ATOM      3  O   UNL     1       4.369   3.323  18.043  0.00  0.00    +0.000 OA
ATOM      4  H   UNL     1       3.757   6.172  16.848  0.00  0.00    +0.000 HD
ENDROOT
BRANCH   1   5
ATOM      5  C   UNL     1       5.653   5.311  16.274  0.00  0.00    +0.000 C 
BRANCH   5   7
ATOM      6  C   UNL     1       5.769   4.283  13.921  0.00  0.00    +0.000 C 
ATOM      7  C   UNL     1       5.584   4.030  15.414  0.00  0.00    +0.000 C 
ENDBRANCH   5   7
BRANCH   5   8
ATOM      8  C   UNL     1       7.143   5.395  16.877  0.00  0.00    +0.000 C 
ATOM      9  O   UNL     1       8.011   4.548  16.658  0.00  0.00    +0.000 OA
BRANCH   8  10
ATOM     10  C   UNL     1       7.547   6.575  17.880  0.00  0.00    +0.000 C 
ATOM     11  O   UNL     1       8.027   6.312  18.974  0.00  0.00    +0.000 OA
ATOM     12  N   UNL     1       7.418   7.850  17.324  0.00  0.00    +0.000 N 
ATOM     13  H   UNL     1       6.806   7.869  16.506  0.00  0.00    +0.000 HD
BRANCH  12  14
ATOM     14  C   UNL     1       8.072   9.158  17.631  0.00  0.00    +0.000 C 
BRANCH  14  15
ATOM     15  C   UNL     1       8.905   9.412  18.920  0.00  0.00    +0.000 C 
BRANCH  15  16
ATOM     16  C   UNL     1       9.691  10.702  19.174  0.00  0.00    +0.000 A 
ATOM     17  C   UNL     1       9.754  11.180  20.490  0.00  0.00    +0.000 A 
ATOM     18  C   UNL     1      10.457  12.350  20.786  0.00  0.00    +0.000 A 
ATOM     19  C   UNL     1      11.080  13.041  19.759  0.00  0.00    +0.000 A 
ATOM     20  C   UNL     1      10.913  12.555  18.468  0.00  0.00    +0.000 A 
ATOM     21  N   UNL     1      10.215  11.423  18.147  0.00  0.00    +0.000 NA
ENDBRANCH  15  16
ENDBRANCH  14  15
ENDBRANCH  12  14
ENDBRANCH   8  10
ENDBRANCH   5   8
ENDBRANCH   1   5
BRANCH   2  22
ATOM     22  C   UNL     1       2.313   4.651  18.402  0.00  0.00    +0.000 C 
BRANCH  22  23
ATOM     23  N   UNL     1       2.289   5.746  19.343  0.00  0.00    +0.000 N 
ATOM     24  C   UNL     1       2.230   7.072  19.007  0.00  0.00    +0.000 C 
ATOM     25  O   UNL     1       2.205   7.542  17.893  0.00  0.00    +0.000 OA
ATOM     26  H   UNL     1       2.338   5.559  20.326  0.00  0.00    +0.000 HD
BRANCH  24  27
ATOM     27  O   UNL     1       2.285   7.829  20.143  0.00  0.00    +0.000 OA
BRANCH  27  28
ATOM     28  C   UNL     1       0.977   8.012  20.689  0.00  0.00    +0.000 C 
BRANCH  28  29
ATOM     29  C   UNL     1       0.514   9.410  20.462  0.00  0.00    +0.000 A 
ATOM     30  C   UNL     1      -0.287   9.659  19.339  0.00  0.00    +0.000 A 
ATOM     31  C   UNL     1      -0.637  10.948  19.070  0.00  0.00    +0.000 A 
ATOM     32  C   UNL     1      -0.087  11.997  19.820  0.00  0.00    +0.000 A 
ATOM     33  C   UNL     1       0.600  11.777  20.981  0.00  0.00    +0.000 A 
ATOM     34  C   UNL     1       0.914  10.473  21.298  0.00  0.00    +0.000 A 
ENDBRANCH  28  29
ENDBRANCH  27  28
ENDBRANCH  24  27
ENDBRANCH  22  23
BRANCH  22  35
ATOM     35  C   UNL     1       1.860   3.407  19.196  0.00  0.00    +0.000 C 
BRANCH  35  36
ATOM     36  C   UNL     1       2.258   3.392  20.696  0.00  0.00    +0.000 C 
ATOM     37  C   UNL     1       1.122   2.954  21.620  0.00  0.00    +0.000 C 
ATOM     38  C   UNL     1       3.475   2.479  20.874  0.00  0.00    +0.000 C 
ENDBRANCH  35  36
ENDBRANCH  22  35
ENDBRANCH   2  22
TORSDOF 14
ENDMDL
MODEL 7
REMARK VINA RESULT:      -7.5      1.387      1.917
REMARK  Name = 
REMARK  17 active torsions:
REMARK  status: ('A' for Active; 'I' for Inactive)
REMARK    1  A    between atoms: C_1  and  C_2
REMARK    2  A    between atoms: C_2  and  C_3
REMARK    3  A    between atoms: C_3  and  N_4
REMARK    4  A    between atoms: C_3  and  C_23
REMARK    5  A    between atoms: C_5  and  C_7
REMARK    6  A    between atoms: C_7  and  C_8
REMARK    7  A    between atoms: C_7  and  N_12
REMARK    8  A    between atoms: C_8  and  C_9
REMARK    9  A    between atoms: C_9  and  C_10
REMARK   10  A    between atoms: C_9  and  C_11
REMARK   11  A    between atoms: C_13  and  O_15
REMARK   12  A    between atoms: O_15  and  C_16
REMARK   13  A    between atoms: C_16  and  C_17
REMARK   14  A    between atoms: C_23  and  C_25
REMARK   15  A    between atoms: N_27  and  C_28
REMARK   16  A    between atoms: C_28  and  C_29
REMARK   17  A    between atoms: C_29  and  C_30
REMARK                            x       y       z     vdW  Elec       q    Type
REMARK                         _______ _______ _______ _____ _____    ______ ____
ROOT
ATOM      1  N   UNL     1       3.657   5.004  17.867  0.00  0.00    +0.000 N 
ATOM      2  C   UNL     1       3.616   5.752  19.041  0.00  0.00    +0.000 C 
ATOM      3  O   UNL     1       4.619   6.325  19.465  0.00  0.00    +0.000 OA
ATOM      4  H   UNL     1       2.810   4.489  17.655  0.00  0.00    +0.000 HD
ENDROOT
BRANCH   1   5
ATOM      5  C   UNL     1       4.900   4.560  17.112  0.00  0.00    +0.000 C 
BRANCH   5   7
ATOM      6  C   UNL     1       3.648   2.374  17.623  0.00  0.00    +0.000 C 
ATOM      7  C   UNL     1       4.756   3.050  16.822  0.00  0.00    +0.000 C 
ENDBRANCH   5   7
BRANCH   5   8
ATOM      8  C   UNL     1       6.420   4.808  17.579  0.00  0.00    +0.000 C 
ATOM      9  O   UNL     1       6.986   4.123  18.435  0.00  0.00    +0.000 OA
BRANCH   8  10
ATOM     10  C   UNL     1       7.258   6.039  16.996  0.00  0.00    +0.000 C 
ATOM     11  O   UNL     1       7.512   6.097  15.800  0.00  0.00    +0.000 OA
ATOM     12  N   UNL     1       7.520   7.035  17.940  0.00  0.00    +0.000 N 
ATOM     13  H   UNL     1       7.426   6.706  18.903  0.00  0.00    +0.000 HD
BRANCH  12  14
ATOM     14  C   UNL     1       7.811   8.495  17.816  0.00  0.00    +0.000 C 
BRANCH  14  15
ATOM     15  C   UNL     1       8.918   9.216  18.638  0.00  0.00    +0.000 C 
BRANCH  15  16
ATOM     16  C   UNL     1       9.189  10.721  18.546  0.00  0.00    +0.000 A 
ATOM     17  C   UNL     1      10.102  11.277  19.453  0.00  0.00    +0.000 A 
ATOM     18  C   UNL     1      10.394  12.642  19.418  0.00  0.00    +0.000 A 
ATOM     19  C   UNL     1       9.756  13.445  18.484  0.00  0.00    +0.000 A 
ATOM     20  C   UNL     1       8.805  12.844  17.668  0.00  0.00    +0.000 A 
ATOM     21  N   UNL     1       8.488  11.514  17.692  0.00  0.00    +0.000 NA
ENDBRANCH  15  16
ENDBRANCH  14  15
ENDBRANCH  12  14
ENDBRANCH   8  10
ENDBRANCH   5   8
ENDBRANCH   1   5
BRANCH   2  22
ATOM     22  C   UNL     1       2.195   5.922  19.748  0.00  0.00    +0.000 C 
BRANCH  22  23
ATOM     23  N   UNL     1       1.892   7.290  20.095  0.00  0.00    +0.000 N 
ATOM     24  C   UNL     1       1.710   8.308  19.198  0.00  0.00    +0.000 C 
ATOM     25  O   UNL     1       1.786   8.241  17.993  0.00  0.00    +0.000 OA
ATOM     26  H   UNL     1       1.822   7.555  21.059  0.00  0.00    +0.000 HD
BRANCH  24  27
ATOM     27  O   UNL     1       1.501   9.475  19.876  0.00  0.00    +0.000 OA
BRANCH  27  28
ATOM     28  C   UNL     1       1.111   9.211  21.226  0.00  0.00    +0.000 C 
BRANCH  28  29
ATOM     29  C   UNL     1       0.209  10.288  21.723  0.00  0.00    +0.000 A 
ATOM     30  C   UNL     1       0.365  11.572  21.184  0.00  0.00    +0.000 A 
ATOM     31  C   UNL     1      -0.389  12.583  21.698  0.00  0.00    +0.000 A 
ATOM     32  C   UNL     1      -1.189  12.360  22.827  0.00  0.00    +0.000 A 
ATOM     33  C   UNL     1      -1.444  11.102  23.298  0.00  0.00    +0.000 A 
ATOM     34  C   UNL     1      -0.730  10.058  22.750  0.00  0.00    +0.000 A 
ENDBRANCH  28  29
ENDBRANCH  27  28
ENDBRANCH  24  27
ENDBRANCH  22  23
BRANCH  22  35
ATOM     35  C   UNL     1       2.216   5.146  21.083  0.00  0.00    +0.000 C 
BRANCH  35  36
ATOM     36  C   UNL     1       1.570   3.736  21.043  0.00  0.00    +0.000 C 
ATOM     37  C   UNL     1       0.904   3.411  19.706  0.00  0.00    +0.000 C 
ATOM     38  C   UNL     1       2.641   2.692  21.375  0.00  0.00    +0.000 C 
ENDBRANCH  35  36
ENDBRANCH  22  35
ENDBRANCH   2  22
TORSDOF 14
ENDMDL
MODEL 8
REMARK VINA RESULT:      -7.5      2.393      7.837
REMARK  Name = 
REMARK  17 active torsions:
REMARK  status: ('A' for Active; 'I' for Inactive)
REMARK    1  A    between atoms: C_1  and  C_2
REMARK    2  A    between atoms: C_2  and  C_3
REMARK    3  A    between atoms: C_3  and  N_4
REMARK    4  A    between atoms: C_3  and  C_23
REMARK    5  A    between atoms: C_5  and  C_7
REMARK    6  A    between atoms: C_7  and  C_8
REMARK    7  A    between atoms: C_7  and  N_12
REMARK    8  A    between atoms: C_8  and  C_9
REMARK    9  A    between atoms: C_9  and  C_10
REMARK   10  A    between atoms: C_9  and  C_11
REMARK   11  A    between atoms: C_13  and  O_15
REMARK   12  A    between atoms: O_15  and  C_16
REMARK   13  A    between atoms: C_16  and  C_17
REMARK   14  A    between atoms: C_23  and  C_25
REMARK   15  A    between atoms: N_27  and  C_28
REMARK   16  A    between atoms: C_28  and  C_29
REMARK   17  A    between atoms: C_29  and  C_30
REMARK                            x       y       z     vdW  Elec       q    Type
REMARK                         _______ _______ _______ _____ _____    ______ ____
ROOT
ATOM      1  N   UNL     1       5.756   3.744  18.793  0.00  0.00    +0.000 N 
ATOM      2  C   UNL     1       6.154   5.079  18.810  0.00  0.00    +0.000 C 
ATOM      3  O   UNL     1       5.513   5.925  19.431  0.00  0.00    +0.000 OA
ATOM      4  H   UNL     1       6.287   3.144  18.174  0.00  0.00    +0.000 HD
ENDROOT
BRANCH   1   5
ATOM      5  C   UNL     1       4.419   3.186  19.258  0.00  0.00    +0.000 C 
BRANCH   5   7
ATOM      6  C   UNL     1       4.887   1.337  20.981  0.00  0.00    +0.000 C 
ATOM      7  C   UNL     1       4.609   1.676  19.520  0.00  0.00    +0.000 C 
ENDBRANCH   5   7
BRANCH   5   8
ATOM      8  C   UNL     1       3.014   3.359  18.494  0.00  0.00    +0.000 C 
ATOM      9  O   UNL     1       2.636   2.607  17.592  0.00  0.00    +0.000 OA
BRANCH   8  10
ATOM     10  C   UNL     1       2.057   4.597  18.825  0.00  0.00    +0.000 C 
ATOM     11  O   UNL     1       1.047   4.430  19.496  0.00  0.00    +0.000 OA
ATOM     12  N   UNL     1       2.564   5.826  18.396  0.00  0.00    +0.000 N 
ATOM     13  H   UNL     1       3.286   5.732  17.679  0.00  0.00    +0.000 HD
BRANCH  12  14
ATOM     14  C   UNL     1       2.328   7.230  18.849  0.00  0.00    +0.000 C 
BRANCH  14  15
ATOM     15  C   UNL     1       2.173   8.427  17.867  0.00  0.00    +0.000 C 
BRANCH  15  16
ATOM     16  C   UNL     1       1.514   9.755  18.255  0.00  0.00    +0.000 A 
ATOM     17  C   UNL     1       2.288  10.919  18.167  0.00  0.00    +0.000 A 
ATOM     18  C   UNL     1       1.743  12.160  18.504  0.00  0.00    +0.000 A 
ATOM     19  C   UNL     1       0.429  12.224  18.941  0.00  0.00    +0.000 A 
ATOM     20  C   UNL     1      -0.257  11.023  19.080  0.00  0.00    +0.000 A 
ATOM     21  N   UNL     1       0.257   9.793  18.774  0.00  0.00    +0.000 NA
ENDBRANCH  15  16
ENDBRANCH  14  15
ENDBRANCH  12  14
ENDBRANCH   8  10
ENDBRANCH   5   8
ENDBRANCH   1   5
BRANCH   2  22
ATOM     22  C   UNL     1       7.530   5.438  18.084  0.00  0.00    +0.000 C 
BRANCH  22  23
ATOM     23  N   UNL     1       8.136   6.650  18.581  0.00  0.00    +0.000 N 
ATOM     24  C   UNL     1       7.919   7.904  18.077  0.00  0.00    +0.000 C 
ATOM     25  O   UNL     1       7.212   8.201  17.140  0.00  0.00    +0.000 OA
ATOM     26  H   UNL     1       8.787   6.605  19.342  0.00  0.00    +0.000 HD
BRANCH  24  27
ATOM     27  O   UNL     1       8.699   8.802  18.747  0.00  0.00    +0.000 OA
BRANCH  27  28
ATOM     28  C   UNL     1       8.723  10.057  18.063  0.00  0.00    +0.000 C 
BRANCH  28  29
ATOM     29  C   UNL     1       9.711  10.973  18.699  0.00  0.00    +0.000 A 
ATOM     30  C   UNL     1      10.645  11.607  17.868  0.00  0.00    +0.000 A 
ATOM     31  C   UNL     1      11.610  12.371  18.450  0.00  0.00    +0.000 A 
ATOM     32  C   UNL     1      11.741  12.399  19.845  0.00  0.00    +0.000 A 
ATOM     33  C   UNL     1      10.781  11.886  20.673  0.00  0.00    +0.000 A 
ATOM     34  C   UNL     1       9.765  11.155  20.096  0.00  0.00    +0.000 A 
ENDBRANCH  28  29
ENDBRANCH  27  28
ENDBRANCH  24  27
ENDBRANCH  22  23
BRANCH  22  35
ATOM     35  C   UNL     1       7.241   5.696  16.589  0.00  0.00    +0.000 C 
BRANCH  35  36
ATOM     36  C   UNL     1       5.853   5.220  16.087  0.00  0.00    +0.000 C 
ATOM     37  C   UNL     1       4.973   6.358  15.568  0.00  0.00    +0.000 C 
ATOM     38  C   UNL     1       6.058   4.163  14.998  0.00  0.00    +0.000 C 
ENDBRANCH  35  36
ENDBRANCH  22  35
ENDBRANCH   2  22
TORSDOF 14
ENDMDL
MODEL 9
REMARK VINA RESULT:      -7.5      2.417      7.669
REMARK  Name = 
REMARK  17 active torsions:
REMARK  status: ('A' for Active; 'I' for Inactive)
REMARK    1  A    between atoms: C_1  and  C_2
REMARK    2  A    between atoms: C_2  and  C_3
REMARK    3  A    between atoms: C_3  and  N_4
REMARK    4  A    between atoms: C_3  and  C_23
REMARK    5  A    between atoms: C_5  and  C_7
REMARK    6  A    between atoms: C_7  and  C_8
REMARK    7  A    between atoms: C_7  and  N_12
REMARK    8  A    between atoms: C_8  and  C_9
REMARK    9  A    between atoms: C_9  and  C_10
REMARK   10  A    between atoms: C_9  and  C_11
REMARK   11  A    between atoms: C_13  and  O_15
REMARK   12  A    between atoms: O_15  and  C_16
REMARK   13  A    between atoms: C_16  and  C_17
REMARK   14  A    between atoms: C_23  and  C_25
REMARK   15  A    between atoms: N_27  and  C_28
REMARK   16  A    between atoms: C_28  and  C_29
REMARK   17  A    between atoms: C_29  and  C_30
REMARK                            x       y       z     vdW  Elec       q    Type
REMARK                         _______ _______ _______ _____ _____    ______ ____
ROOT
ATOM      1  N   UNL     1       4.001   5.844  18.476  0.00  0.00    +0.000 N 
ATOM      2  C   UNL     1       5.153   5.064  18.544  0.00  0.00    +0.000 C 
ATOM      3  O   UNL     1       5.264   4.164  19.375  0.00  0.00    +0.000 OA
ATOM      4  H   UNL     1       4.045   6.622  17.829  0.00  0.00    +0.000 HD
ENDROOT
BRANCH   1   5
ATOM      5  C   UNL     1       2.885   5.912  19.507  0.00  0.00    +0.000 C 
BRANCH   5   7
ATOM      6  C   UNL     1       1.763   4.502  17.674  0.00  0.00    +0.000 C 
ATOM      7  C   UNL     1       1.865   4.804  19.166  0.00  0.00    +0.000 C 
ENDBRANCH   5   7
BRANCH   5   8
ATOM      8  C   UNL     1       2.042   7.228  19.891  0.00  0.00    +0.000 C 
ATOM      9  O   UNL     1       1.435   7.357  20.956  0.00  0.00    +0.000 OA
BRANCH   8  10
ATOM     10  C   UNL     1       1.885   8.425  18.841  0.00  0.00    +0.000 C 
ATOM     11  O   UNL     1       2.323   8.307  17.705  0.00  0.00    +0.000 OA
ATOM     12  N   UNL     1       1.114   9.489  19.318  0.00  0.00    +0.000 N 
ATOM     13  H   UNL     1       1.033   9.497  20.336  0.00  0.00    +0.000 HD
BRANCH  12  14
ATOM     14  C   UNL     1       0.315  10.546  18.630  0.00  0.00    +0.000 C 
BRANCH  14  15
ATOM     15  C   UNL     1      -0.002  11.928  19.270  0.00  0.00    +0.000 C 
BRANCH  15  16
ATOM     16  C   UNL     1       0.912  13.149  19.134  0.00  0.00    +0.000 A 
ATOM     17  C   UNL     1       2.050  13.027  18.327  0.00  0.00    +0.000 A 
ATOM     18  C   UNL     1       2.921  14.106  18.161  0.00  0.00    +0.000 A 
ATOM     19  C   UNL     1       2.653  15.297  18.819  0.00  0.00    +0.000 A 
ATOM     20  C   UNL     1       1.551  15.325  19.665  0.00  0.00    +0.000 A 
ATOM     21  N   UNL     1       0.692  14.279  19.860  0.00  0.00    +0.000 NA
ENDBRANCH  15  16
ENDBRANCH  14  15
ENDBRANCH  12  14
ENDBRANCH   8  10
ENDBRANCH   5   8
ENDBRANCH   1   5
BRANCH   2  22
ATOM     22  C   UNL     1       6.269   5.316  17.431  0.00  0.00    +0.000 C 
BRANCH  22  23
ATOM     23  N   UNL     1       7.182   6.382  17.772  0.00  0.00    +0.000 N 
ATOM     24  C   UNL     1       8.019   6.385  18.854  0.00  0.00    +0.000 C 
ATOM     25  O   UNL     1       8.125   5.525  19.699  0.00  0.00    +0.000 OA
ATOM     26  H   UNL     1       7.216   7.208  17.205  0.00  0.00    +0.000 HD
BRANCH  24  27
ATOM     27  O   UNL     1       8.693   7.573  18.901  0.00  0.00    +0.000 OA
BRANCH  27  28
ATOM     28  C   UNL     1       8.084   8.531  18.032  0.00  0.00    +0.000 C 
BRANCH  28  29
ATOM     29  C   UNL     1       8.564   9.903  18.361  0.00  0.00    +0.000 A 
ATOM     30  C   UNL     1       8.185  10.950  17.509  0.00  0.00    +0.000 A 
ATOM     31  C   UNL     1       8.693  12.190  17.747  0.00  0.00    +0.000 A 
ATOM     32  C   UNL     1       9.677  12.371  18.729  0.00  0.00    +0.000 A 
ATOM     33  C   UNL     1       9.978  11.398  19.642  0.00  0.00    +0.000 A 
ATOM     34  C   UNL     1       9.426  10.150  19.448  0.00  0.00    +0.000 A 
ENDBRANCH  28  29
ENDBRANCH  27  28
ENDBRANCH  24  27
ENDBRANCH  22  23
BRANCH  22  35
ATOM     35  C   UNL     1       5.570   5.764  16.129  0.00  0.00    +0.000 C 
BRANCH  35  36
ATOM     36  C   UNL     1       5.747   4.813  14.916  0.00  0.00    +0.000 C 
ATOM     37  C   UNL     1       7.083   4.993  14.196  0.00  0.00    +0.000 C 
ATOM     38  C   UNL     1       5.588   3.367  15.396  0.00  0.00    +0.000 C 
ENDBRANCH  35  36
ENDBRANCH  22  35
ENDBRANCH   2  22
TORSDOF 14
ENDMDL
