MODEL 1
REMARK VINA RESULT:      -7.5      0.000      0.000
REMARK  Name = 
REMARK  10 active torsions:
REMARK  status: ('A' for Active; 'I' for Inactive)
REMARK    1  A    between atoms: C_1  and  C_2
REMARK    2  A    between atoms: C_2  and  N_3
REMARK    3  A    between atoms: N_3  and  C_4
REMARK    4  A    between atoms: N_3  and  S_6
REMARK    5  A    between atoms: C_4  and  C_5
REMARK    6  A    between atoms: S_6  and  C_9
REMARK    7  A    between atoms: C_17  and  C_18
REMARK    8  A    between atoms: C_20  and  C_22
REMARK    9  A    between atoms: C_25  and  O_26
REMARK   10  A    between atoms: C_28  and  O_29
REMARK                            x       y       z     vdW  Elec       q    Type
REMARK                         _______ _______ _______ _____ _____    ______ ____
ROOT
ATOM      1  C   UNL     1       2.487   6.670  18.870  0.00  0.00    +0.000 A 
ATOM      2  C   UNL     1       2.461   7.600  17.838  0.00  0.00    +0.000 A 
ATOM      3  C   UNL     1       1.975   8.899  18.080  0.00  0.00    +0.000 A 
ATOM      4  C   UNL     1       1.505   9.294  19.347  0.00  0.00    +0.000 A 
ATOM      5  C   UNL     1       1.495   8.316  20.367  0.00  0.00    +0.000 A 
ATOM      6  C   UNL     1       1.984   7.018  20.124  0.00  0.00    +0.000 A 
ATOM      7  C   UNL     1       0.930   8.561  21.740  0.00  0.00    +0.000 C 
ATOM      8  C   UNL     1       0.697  10.035  21.990  0.00  0.00    +0.000 C 
ATOM      9  C   UNL     1      -0.012  10.615  20.758  0.00  0.00    +0.000 C 
ATOM     10  C   UNL     1      -0.865  11.796  21.213  0.00  0.00    +0.000 C 
ATOM     11  N   UNL     1       0.984  10.652  19.621  0.00  0.00    +0.000 N 
ATOM     12  C   UNL     1       1.507  11.747  18.862  0.00  0.00    +0.000 C 
ATOM     13  O   UNL     1       2.427  11.632  18.046  0.00  0.00    +0.000 OA
ENDROOT
BRANCH  12  14
ATOM     14  C   UNL     1       1.048  13.151  19.051  0.00  0.00    +0.000 A 
ATOM     15  C   UNL     1       1.854  14.050  19.750  0.00  0.00    +0.000 A 
ATOM     16  C   UNL     1       1.356  15.297  20.141  0.00  0.00    +0.000 A 
ATOM     17  C   UNL     1       0.122  15.717  19.667  0.00  0.00    +0.000 A 
ATOM     18  C   UNL     1      -0.576  14.948  18.748  0.00  0.00    +0.000 A 
ATOM     19  C   UNL     1      -0.120  13.660  18.448  0.00  0.00    +0.000 A 
BRANCH  17  20
ATOM     20  O   UNL     1      -0.441  16.882  20.090  0.00  0.00    +0.000 OA
ATOM     21  H   UNL     1      -0.800  16.743  20.983  0.00  0.00    +0.000 HD
ENDBRANCH  17  20
BRANCH  19  22
ATOM     22  O   UNL     1      -0.856  12.917  17.566  0.00  0.00    +0.000 OA
ATOM     23  H   UNL     1      -1.787  12.930  17.861  0.00  0.00    +0.000 HD
ENDBRANCH  19  22
ENDBRANCH  12  14
BRANCH   1  24
ATOM     24  S   UNL     1       3.028   5.000  18.578  0.00  0.00    +0.000 S 
ATOM     25  O   UNL     1       2.218   4.475  17.491  0.00  0.00    +0.000 OA
ATOM     26  O   UNL     1       3.077   4.312  19.855  0.00  0.00    +0.000 OA
BRANCH  24  27
ATOM     27  N   UNL     1       4.644   5.147  18.024  0.00  0.00    +0.000 NA
BRANCH  27  29
ATOM     28  C   UNL     1       6.879   5.630  19.062  0.00  0.00    +0.000 C 
ATOM     29  C   UNL     1       5.677   4.696  19.005  0.00  0.00    +0.000 C 
ENDBRANCH  27  29
BRANCH  27  30
ATOM     30  C   UNL     1       4.841   4.664  16.623  0.00  0.00    +0.000 C 
ATOM     31  C   UNL     1       5.327   5.737  15.660  0.00  0.00    +0.000 C 
ENDBRANCH  27  30
ENDBRANCH  24  27
ENDBRANCH   1  24
TORSDOF 7
ENDMDL
MODEL 2
REMARK VINA RESULT:      -7.5      1.639      2.424
REMARK  Name = 
REMARK  10 active torsions:
REMARK  status: ('A' for Active; 'I' for Inactive)
REMARK    1  A    between atoms: C_1  and  C_2
REMARK    2  A    between atoms: C_2  and  N_3
REMARK    3  A    between atoms: N_3  and  C_4
REMARK    4  A    between atoms: N_3  and  S_6
REMARK    5  A    between atoms: C_4  and  C_5
REMARK    6  A    between atoms: S_6  and  C_9
REMARK    7  A    between atoms: C_17  and  C_18
REMARK    8  A    between atoms: C_20  and  C_22
REMARK    9  A    between atoms: C_25  and  O_26
REMARK   10  A    between atoms: C_28  and  O_29
REMARK                            x       y       z     vdW  Elec       q    Type
REMARK                         _______ _______ _______ _____ _____    ______ ____
ROOT
ATOM      1  C   UNL     1       2.738   6.783  18.883  0.00  0.00    +0.000 A 
ATOM      2  C   UNL     1       2.748   7.740  17.876  0.00  0.00    +0.000 A 
ATOM      3  C   UNL     1       2.170   9.003  18.107  0.00  0.00    +0.000 A 
ATOM      4  C   UNL     1       1.570   9.334  19.337  0.00  0.00    +0.000 A 
ATOM      5  C   UNL     1       1.528   8.327  20.327  0.00  0.00    +0.000 A 
ATOM      6  C   UNL     1       2.110   7.066  20.096  0.00  0.00    +0.000 A 
ATOM      7  C   UNL     1       0.833   8.500  21.651  0.00  0.00    +0.000 C 
ATOM      8  C   UNL     1       0.496   9.951  21.916  0.00  0.00    +0.000 C 
ATOM      9  C   UNL     1      -0.136  10.527  20.642  0.00  0.00    +0.000 C 
ATOM     10  C   UNL     1      -1.091  11.647  21.049  0.00  0.00    +0.000 C 
ATOM     11  N   UNL     1       0.951  10.653  19.598  0.00  0.00    +0.000 N 
ATOM     12  C   UNL     1       1.474  11.797  18.915  0.00  0.00    +0.000 C 
ATOM     13  O   UNL     1       2.466  11.757  18.181  0.00  0.00    +0.000 OA
ENDROOT
BRANCH  12  14
ATOM     14  C   UNL     1       0.921  13.168  19.098  0.00  0.00    +0.000 A 
ATOM     15  C   UNL     1       1.632  14.101  19.852  0.00  0.00    +0.000 A 
ATOM     16  C   UNL     1       1.039  15.310  20.232  0.00  0.00    +0.000 A 
ATOM     17  C   UNL     1      -0.191  15.662  19.697  0.00  0.00    +0.000 A 
ATOM     18  C   UNL     1      -0.790  14.869  18.731  0.00  0.00    +0.000 A 
ATOM     19  C   UNL     1      -0.241  13.616  18.439  0.00  0.00    +0.000 A 
BRANCH  17  20
ATOM     20  O   UNL     1      -0.846  16.784  20.104  0.00  0.00    +0.000 OA
ATOM     21  H   UNL     1      -1.581  16.518  20.683  0.00  0.00    +0.000 HD
ENDBRANCH  17  20
BRANCH  19  22
ATOM     22  O   UNL     1      -0.882  12.845  17.508  0.00  0.00    +0.000 OA
ATOM     23  H   UNL     1      -0.991  11.948  17.879  0.00  0.00    +0.000 HD
ENDBRANCH  19  22
ENDBRANCH  12  14
BRANCH   1  24
ATOM     24  S   UNL     1       3.397   5.154  18.598  0.00  0.00    +0.000 S 
ATOM     25  O   UNL     1       4.593   5.032  19.414  0.00  0.00    +0.000 OA
ATOM     26  O   UNL     1       3.460   4.938  17.164  0.00  0.00    +0.000 OA
BRANCH  24  27
ATOM     27  N   UNL     1       2.210   4.081  19.216  0.00  0.00    +0.000 NA
BRANCH  27  29
ATOM     28  C   UNL     1       0.629   2.195  18.717  0.00  0.00    +0.000 C 
ATOM     29  C   UNL     1       1.396   3.393  18.170  0.00  0.00    +0.000 C 
ENDBRANCH  27  29
BRANCH  27  30
ATOM     30  C   UNL     1       2.715   3.200  20.313  0.00  0.00    +0.000 C 
ATOM     31  C   UNL     1       2.137   3.523  21.683  0.00  0.00    +0.000 C 
ENDBRANCH  27  30
ENDBRANCH  24  27
ENDBRANCH   1  24
TORSDOF 7
ENDMDL
MODEL 3
REMARK VINA RESULT:      -7.4      1.537      2.083
REMARK  Name = 
REMARK  10 active torsions:
REMARK  status: ('A' for Active; 'I' for Inactive)
REMARK    1  A    between atoms: C_1  and  C_2
REMARK    2  A    between atoms: C_2  and  N_3
REMARK    3  A    between atoms: N_3  and  C_4
REMARK    4  A    between atoms: N_3  and  S_6
REMARK    5  A    between atoms: C_4  and  C_5
REMARK    6  A    between atoms: S_6  and  C_9
REMARK    7  A    between atoms: C_17  and  C_18
REMARK    8  A    between atoms: C_20  and  C_22
REMARK    9  A    between atoms: C_25  and  O_26
REMARK   10  A    between atoms: C_28  and  O_29
REMARK                            x       y       z     vdW  Elec       q    Type
REMARK                         _______ _______ _______ _____ _____    ______ ____
ROOT
ATOM      1  C   UNL     1       2.310   6.537  18.551  0.00  0.00    +0.000 A 
ATOM      2  C   UNL     1       2.220   7.512  17.565  0.00  0.00    +0.000 A 
ATOM      3  C   UNL     1       1.812   8.816  17.907  0.00  0.00    +0.000 A 
ATOM      4  C   UNL     1       1.483   9.171  19.229  0.00  0.00    +0.000 A 
ATOM      5  C   UNL     1       1.534   8.149  20.204  0.00  0.00    +0.000 A 
ATOM      6  C   UNL     1       1.946   6.847  19.862  0.00  0.00    +0.000 A 
ATOM      7  C   UNL     1       1.115   8.352  21.635  0.00  0.00    +0.000 C 
ATOM      8  C   UNL     1       0.966   9.821  21.967  0.00  0.00    +0.000 C 
ATOM      9  C   UNL     1       0.164  10.480  20.836  0.00  0.00    +0.000 C 
ATOM     10  C   UNL     1      -0.593  11.669  21.421  0.00  0.00    +0.000 C 
ATOM     11  N   UNL     1       1.045  10.532  19.608  0.00  0.00    +0.000 N 
ATOM     12  C   UNL     1       1.534  11.641  18.847  0.00  0.00    +0.000 C 
ATOM     13  O   UNL     1       2.365  11.530  17.940  0.00  0.00    +0.000 OA
ENDROOT
BRANCH  12  14
ATOM     14  C   UNL     1       1.151  13.051  19.138  0.00  0.00    +0.000 A 
ATOM     15  C   UNL     1       2.002  13.851  19.900  0.00  0.00    +0.000 A 
ATOM     16  C   UNL     1       1.571  15.092  20.381  0.00  0.00    +0.000 A 
ATOM     17  C   UNL     1       0.364  15.611  19.938  0.00  0.00    +0.000 A 
ATOM     18  C   UNL     1      -0.371  14.951  18.966  0.00  0.00    +0.000 A 
ATOM     19  C   UNL     1       0.016  13.665  18.573  0.00  0.00    +0.000 A 
BRANCH  17  20
ATOM     20  O   UNL     1      -0.137  16.772  20.445  0.00  0.00    +0.000 OA
ATOM     21  H   UNL     1       0.504  17.131  21.082  0.00  0.00    +0.000 HD
ENDBRANCH  17  20
BRANCH  19  22
ATOM     22  O   UNL     1      -0.755  13.029  17.639  0.00  0.00    +0.000 OA
ATOM     23  H   UNL     1      -1.692  13.228  17.832  0.00  0.00    +0.000 HD
ENDBRANCH  19  22
ENDBRANCH  12  14
BRANCH   1  24
ATOM     24  S   UNL     1       2.754   4.863  18.138  0.00  0.00    +0.000 S 
ATOM     25  O   UNL     1       4.109   4.901  17.614  0.00  0.00    +0.000 OA
ATOM     26  O   UNL     1       1.677   4.292  17.350  0.00  0.00    +0.000 OA
BRANCH  24  27
ATOM     27  N   UNL     1       2.777   4.029  19.636  0.00  0.00    +0.000 NA
BRANCH  27  29
ATOM     28  C   UNL     1       1.486   2.916  21.480  0.00  0.00    +0.000 C 
ATOM     29  C   UNL     1       1.442   3.536  20.089  0.00  0.00    +0.000 C 
ENDBRANCH  27  29
BRANCH  27  30
ATOM     30  C   UNL     1       3.895   3.043  19.753  0.00  0.00    +0.000 C 
ATOM     31  C   UNL     1       3.727   1.809  18.878  0.00  0.00    +0.000 C 
ENDBRANCH  27  30
ENDBRANCH  24  27
ENDBRANCH   1  24
TORSDOF 7
ENDMDL
MODEL 4
REMARK VINA RESULT:      -7.3      0.382      1.211
REMARK  Name = 
REMARK  10 active torsions:
REMARK  status: ('A' for Active; 'I' for Inactive)
REMARK    1  A    between atoms: C_1  and  C_2
REMARK    2  A    between atoms: C_2  and  N_3
REMARK    3  A    between atoms: N_3  and  C_4
REMARK    4  A    between atoms: N_3  and  S_6
REMARK    5  A    between atoms: C_4  and  C_5
REMARK    6  A    between atoms: S_6  and  C_9
REMARK    7  A    between atoms: C_17  and  C_18
REMARK    8  A    between atoms: C_20  and  C_22
REMARK    9  A    between atoms: C_25  and  O_26
REMARK   10  A    between atoms: C_28  and  O_29
REMARK                            x       y       z     vdW  Elec       q    Type
REMARK                         _______ _______ _______ _____ _____    ______ ____
ROOT
ATOM      1  C   UNL     1       2.449   6.447  18.888  0.00  0.00    +0.000 A 
ATOM      2  C   UNL     1       2.405   7.358  17.840  0.00  0.00    +0.000 A 
ATOM      3  C   UNL     1       1.955   8.671  18.076  0.00  0.00    +0.000 A 
ATOM      4  C   UNL     1       1.538   9.099  19.351  0.00  0.00    +0.000 A 
ATOM      5  C   UNL     1       1.544   8.139  20.388  0.00  0.00    +0.000 A 
ATOM      6  C   UNL     1       1.998   6.828  20.152  0.00  0.00    +0.000 A 
ATOM      7  C   UNL     1       1.032   8.420  21.775  0.00  0.00    +0.000 C 
ATOM      8  C   UNL     1       0.838   9.903  22.005  0.00  0.00    +0.000 C 
ATOM      9  C   UNL     1       0.098  10.475  20.789  0.00  0.00    +0.000 C 
ATOM     10  C   UNL     1      -0.714  11.682  21.251  0.00  0.00    +0.000 C 
ATOM     11  N   UNL     1       1.054  10.471  19.617  0.00  0.00    +0.000 N 
ATOM     12  C   UNL     1       1.572  11.542  18.821  0.00  0.00    +0.000 C 
ATOM     13  O   UNL     1       2.460  11.394  17.975  0.00  0.00    +0.000 OA
ENDROOT
BRANCH  12  14
ATOM     14  C   UNL     1       1.148  12.958  19.000  0.00  0.00    +0.000 A 
ATOM     15  C   UNL     1       1.975  13.841  19.694  0.00  0.00    +0.000 A 
ATOM     16  C   UNL     1       1.508  15.103  20.076  0.00  0.00    +0.000 A 
ATOM     17  C   UNL     1       0.286  15.550  19.597  0.00  0.00    +0.000 A 
ATOM     18  C   UNL     1      -0.429  14.794  18.682  0.00  0.00    +0.000 A 
ATOM     19  C   UNL     1      -0.006  13.492  18.391  0.00  0.00    +0.000 A 
BRANCH  17  20
ATOM     20  O   UNL     1      -0.249  16.733  20.011  0.00  0.00    +0.000 OA
ATOM     21  H   UNL     1       0.379  17.156  20.622  0.00  0.00    +0.000 HD
ENDBRANCH  17  20
BRANCH  19  22
ATOM     22  O   UNL     1      -0.758  12.762  17.512  0.00  0.00    +0.000 OA
ATOM     23  H   UNL     1      -1.394  13.366  17.081  0.00  0.00    +0.000 HD
ENDBRANCH  19  22
ENDBRANCH  12  14
BRANCH   1  24
ATOM     24  S   UNL     1       2.946   4.760  18.608  0.00  0.00    +0.000 S 
ATOM     25  O   UNL     1       2.204   4.286  17.453  0.00  0.00    +0.000 OA
ATOM     26  O   UNL     1       2.868   4.052  19.873  0.00  0.00    +0.000 OA
BRANCH  24  27
ATOM     27  N   UNL     1       4.605   4.852  18.184  0.00  0.00    +0.000 NA
BRANCH  27  29
ATOM     28  C   UNL     1       5.384   4.139  15.906  0.00  0.00    +0.000 C 
ATOM     29  C   UNL     1       4.860   5.275  16.774  0.00  0.00    +0.000 C 
ENDBRANCH  27  29
BRANCH  27  30
ATOM     30  C   UNL     1       5.448   5.529  19.216  0.00  0.00    +0.000 C 
ATOM     31  C   UNL     1       6.932   5.558  18.882  0.00  0.00    +0.000 C 
ENDBRANCH  27  30
ENDBRANCH  24  27
ENDBRANCH   1  24
TORSDOF 7
ENDMDL
MODEL 5
REMARK VINA RESULT:      -7.2      2.326      3.417
REMARK  Name = 
REMARK  10 active torsions:
REMARK  status: ('A' for Active; 'I' for Inactive)
REMARK    1  A    between atoms: C_1  and  C_2
REMARK    2  A    between atoms: C_2  and  N_3
REMARK    3  A    between atoms: N_3  and  C_4
REMARK    4  A    between atoms: N_3  and  S_6
REMARK    5  A    between atoms: C_4  and  C_5
REMARK    6  A    between atoms: S_6  and  C_9
REMARK    7  A    between atoms: C_17  and  C_18
REMARK    8  A    between atoms: C_20  and  C_22
REMARK    9  A    between atoms: C_25  and  O_26
REMARK   10  A    between atoms: C_28  and  O_29
REMARK                            x       y       z     vdW  Elec       q    Type
REMARK                         _______ _______ _______ _____ _____    ______ ____
ROOT
ATOM      1  C   UNL     1       3.053   5.516  18.975  0.00  0.00    +0.000 A 
ATOM      2  C   UNL     1       2.469   5.645  20.230  0.00  0.00    +0.000 A 
ATOM      3  C   UNL     1       1.834   6.850  20.583  0.00  0.00    +0.000 A 
ATOM      4  C   UNL     1       1.771   7.946  19.701  0.00  0.00    +0.000 A 
ATOM      5  C   UNL     1       2.415   7.807  18.451  0.00  0.00    +0.000 A 
ATOM      6  C   UNL     1       3.047   6.600  18.097  0.00  0.00    +0.000 A 
ATOM      7  C   UNL     1       2.518   8.924  17.447  0.00  0.00    +0.000 C 
ATOM      8  C   UNL     1       1.583  10.063  17.786  0.00  0.00    +0.000 C 
ATOM      9  C   UNL     1       1.734  10.367  19.283  0.00  0.00    +0.000 C 
ATOM     10  C   UNL     1       1.418  11.844  19.503  0.00  0.00    +0.000 C 
ATOM     11  N   UNL     1       1.114   9.224  20.055  0.00  0.00    +0.000 N 
ATOM     12  C   UNL     1       0.017   9.193  20.973  0.00  0.00    +0.000 C 
ATOM     13  O   UNL     1      -0.464   8.149  21.424  0.00  0.00    +0.000 OA
ENDROOT
BRANCH  12  14
ATOM     14  C   UNL     1      -0.710  10.420  21.404  0.00  0.00    +0.000 A 
ATOM     15  C   UNL     1      -1.540  11.080  20.498  0.00  0.00    +0.000 A 
ATOM     16  C   UNL     1      -2.049  12.350  20.794  0.00  0.00    +0.000 A 
ATOM     17  C   UNL     1      -1.884  12.869  22.070  0.00  0.00    +0.000 A 
ATOM     18  C   UNL     1      -1.295  12.107  23.067  0.00  0.00    +0.000 A 
ATOM     19  C   UNL     1      -0.697  10.887  22.733  0.00  0.00    +0.000 A 
BRANCH  17  20
ATOM     20  O   UNL     1      -2.283  14.134  22.378  0.00  0.00    +0.000 OA
ATOM     21  H   UNL     1      -2.432  14.183  23.338  0.00  0.00    +0.000 HD
ENDBRANCH  17  20
BRANCH  19  22
ATOM     22  O   UNL     1      -0.093  10.182  23.737  0.00  0.00    +0.000 OA
ATOM     23  H   UNL     1       0.240   9.343  23.362  0.00  0.00    +0.000 HD
ENDBRANCH  19  22
ENDBRANCH  12  14
BRANCH   1  24
ATOM     24  S   UNL     1       3.925   4.030  18.525  0.00  0.00    +0.000 S 
ATOM     25  O   UNL     1       3.015   3.231  17.723  0.00  0.00    +0.000 OA
ATOM     26  O   UNL     1       4.525   3.478  19.726  0.00  0.00    +0.000 OA
BRANCH  24  27
ATOM     27  N   UNL     1       5.210   4.558  17.519  0.00  0.00    +0.000 NA
BRANCH  27  29
ATOM     28  C   UNL     1       7.099   6.110  18.091  0.00  0.00    +0.000 C 
ATOM     29  C   UNL     1       6.521   4.706  18.219  0.00  0.00    +0.000 C 
ENDBRANCH  27  29
BRANCH  27  30
ATOM     30  C   UNL     1       5.265   3.852  16.202  0.00  0.00    +0.000 C 
ATOM     31  C   UNL     1       5.662   4.744  15.036  0.00  0.00    +0.000 C 
ENDBRANCH  27  30
ENDBRANCH  24  27
ENDBRANCH   1  24
TORSDOF 7
ENDMDL
MODEL 6
REMARK VINA RESULT:      -7.2      1.045      1.474
REMARK  Name = 
REMARK  10 active torsions:
REMARK  status: ('A' for Active; 'I' for Inactive)
REMARK    1  A    between atoms: C_1  and  C_2
REMARK    2  A    between atoms: C_2  and  N_3
REMARK    3  A    between atoms: N_3  and  C_4
REMARK    4  A    between atoms: N_3  and  S_6
REMARK    5  A    between atoms: C_4  and  C_5
REMARK    6  A    between atoms: S_6  and  C_9
REMARK    7  A    between atoms: C_17  and  C_18
REMARK    8  A    between atoms: C_20  and  C_22
REMARK    9  A    between atoms: C_25  and  O_26
REMARK   10  A    between atoms: C_28  and  O_29
REMARK                            x       y       z     vdW  Elec       q    Type
REMARK                         _______ _______ _______ _____ _____    ______ ____
ROOT
ATOM      1  C   UNL     1       2.970   6.434  18.508  0.00  0.00    +0.000 A 
ATOM      2  C   UNL     1       2.911   7.444  17.556  0.00  0.00    +0.000 A 
ATOM      3  C   UNL     1       2.316   8.677  17.884  0.00  0.00    +0.000 A 
ATOM      4  C   UNL     1       1.767   8.926  19.156  0.00  0.00    +0.000 A 
ATOM      5  C   UNL     1       1.794   7.866  20.090  0.00  0.00    +0.000 A 
ATOM      6  C   UNL     1       2.393   6.634  19.763  0.00  0.00    +0.000 A 
ATOM      7  C   UNL     1       1.158   7.948  21.451  0.00  0.00    +0.000 C 
ATOM      8  C   UNL     1       0.801   9.374  21.811  0.00  0.00    +0.000 C 
ATOM      9  C   UNL     1       0.096  10.002  20.602  0.00  0.00    +0.000 C 
ATOM     10  C   UNL     1      -0.863  11.073  21.113  0.00  0.00    +0.000 C 
ATOM     11  N   UNL     1       1.130  10.212  19.517  0.00  0.00    +0.000 N 
ATOM     12  C   UNL     1       1.594  11.404  18.876  0.00  0.00    +0.000 C 
ATOM     13  O   UNL     1       2.551  11.430  18.096  0.00  0.00    +0.000 OA
ENDROOT
BRANCH  12  14
ATOM     14  C   UNL     1       1.019  12.749  19.160  0.00  0.00    +0.000 A 
ATOM     15  C   UNL     1      -0.036  13.223  18.380  0.00  0.00    +0.000 A 
ATOM     16  C   UNL     1      -0.442  14.559  18.468  0.00  0.00    +0.000 A 
ATOM     17  C   UNL     1       0.079  15.364  19.471  0.00  0.00    +0.000 A 
ATOM     18  C   UNL     1       0.928  14.831  20.429  0.00  0.00    +0.000 A 
ATOM     19  C   UNL     1       1.408  13.527  20.268  0.00  0.00    +0.000 A 
BRANCH  17  20
ATOM     20  O   UNL     1      -0.218  16.691  19.542  0.00  0.00    +0.000 OA
ATOM     21  H   UNL     1      -0.147  17.069  18.649  0.00  0.00    +0.000 HD
ENDBRANCH  17  20
BRANCH  19  22
ATOM     22  O   UNL     1       2.274  13.049  21.213  0.00  0.00    +0.000 OA
ATOM     23  H   UNL     1       3.104  12.797  20.764  0.00  0.00    +0.000 HD
ENDBRANCH  19  22
ENDBRANCH  12  14
BRANCH   1  24
ATOM     24  S   UNL     1       3.652   4.840  18.104  0.00  0.00    +0.000 S 
ATOM     25  O   UNL     1       2.671   4.157  17.278  0.00  0.00    +0.000 OA
ATOM     26  O   UNL     1       4.132   4.231  19.331  0.00  0.00    +0.000 OA
BRANCH  24  27
ATOM     27  N   UNL     1       5.029   5.179  17.139  0.00  0.00    +0.000 NA
BRANCH  27  29
ATOM     28  C   UNL     1       7.409   4.823  17.854  0.00  0.00    +0.000 C 
ATOM     29  C   UNL     1       6.190   5.736  17.895  0.00  0.00    +0.000 C 
ENDBRANCH  27  29
BRANCH  27  30
ATOM     30  C   UNL     1       5.361   4.090  16.170  0.00  0.00    +0.000 C 
ATOM     31  C   UNL     1       5.464   4.555  14.726  0.00  0.00    +0.000 C 
ENDBRANCH  27  30
ENDBRANCH  24  27
ENDBRANCH   1  24
TORSDOF 7
ENDMDL
MODEL 7
REMARK VINA RESULT:      -7.2      1.682      2.451
REMARK  Name = 
REMARK  10 active torsions:
REMARK  status: ('A' for Active; 'I' for Inactive)
REMARK    1  A    between atoms: C_1  and  C_2
REMARK    2  A    between atoms: C_2  and  N_3
REMARK    3  A    between atoms: N_3  and  C_4
REMARK    4  A    between atoms: N_3  and  S_6
REMARK    5  A    between atoms: C_4  and  C_5
REMARK    6  A    between atoms: S_6  and  C_9
REMARK    7  A    between atoms: C_17  and  C_18
REMARK    8  A    between atoms: C_20  and  C_22
REMARK    9  A    between atoms: C_25  and  O_26
REMARK   10  A    between atoms: C_28  and  O_29
REMARK                            x       y       z     vdW  Elec       q    Type
REMARK                         _______ _______ _______ _____ _____    ______ ____
ROOT
ATOM      1  C   UNL     1       2.301   6.575  18.595  0.00  0.00    +0.000 A 
ATOM      2  C   UNL     1       2.217   7.574  17.632  0.00  0.00    +0.000 A 
ATOM      3  C   UNL     1       1.808   8.868  18.004  0.00  0.00    +0.000 A 
ATOM      4  C   UNL     1       1.473   9.191  19.333  0.00  0.00    +0.000 A 
ATOM      5  C   UNL     1       1.519   8.147  20.283  0.00  0.00    +0.000 A 
ATOM      6  C   UNL     1       1.932   6.853  19.911  0.00  0.00    +0.000 A 
ATOM      7  C   UNL     1       1.093   8.315  21.717  0.00  0.00    +0.000 C 
ATOM      8  C   UNL     1       0.943   9.775  22.083  0.00  0.00    +0.000 C 
ATOM      9  C   UNL     1       0.146  10.462  20.965  0.00  0.00    +0.000 C 
ATOM     10  C   UNL     1      -0.613  11.637  21.575  0.00  0.00    +0.000 C 
ATOM     11  N   UNL     1       1.033  10.543  19.743  0.00  0.00    +0.000 N 
ATOM     12  C   UNL     1       1.526  11.670  19.011  0.00  0.00    +0.000 C 
ATOM     13  O   UNL     1       2.362  11.581  18.106  0.00  0.00    +0.000 OA
ENDROOT
BRANCH  12  14
ATOM     14  C   UNL     1       1.142  13.072  19.334  0.00  0.00    +0.000 A 
ATOM     15  C   UNL     1       0.062  13.659  18.674  0.00  0.00    +0.000 A 
ATOM     16  C   UNL     1      -0.178  15.033  18.783  0.00  0.00    +0.000 A 
ATOM     17  C   UNL     1       0.544  15.779  19.702  0.00  0.00    +0.000 A 
ATOM     18  C   UNL     1       1.436  15.160  20.564  0.00  0.00    +0.000 A 
ATOM     19  C   UNL     1       1.745  13.808  20.374  0.00  0.00    +0.000 A 
BRANCH  17  20
ATOM     20  O   UNL     1       0.408  17.132  19.782  0.00  0.00    +0.000 OA
ATOM     21  H   UNL     1       0.960  17.537  19.091  0.00  0.00    +0.000 HD
ENDBRANCH  17  20
BRANCH  19  22
ATOM     22  O   UNL     1       2.658  13.241  21.220  0.00  0.00    +0.000 OA
ATOM     23  H   UNL     1       2.590  12.271  21.134  0.00  0.00    +0.000 HD
ENDBRANCH  19  22
ENDBRANCH  12  14
BRANCH   1  24
ATOM     24  S   UNL     1       2.747   4.911  18.144  0.00  0.00    +0.000 S 
ATOM     25  O   UNL     1       4.097   4.964  17.611  0.00  0.00    +0.000 OA
ATOM     26  O   UNL     1       1.666   4.354  17.352  0.00  0.00    +0.000 OA
BRANCH  24  27
ATOM     27  N   UNL     1       2.783   4.046  19.624  0.00  0.00    +0.000 NA
BRANCH  27  29
ATOM     28  C   UNL     1       1.503   2.920  21.468  0.00  0.00    +0.000 C 
ATOM     29  C   UNL     1       1.451   3.545  20.080  0.00  0.00    +0.000 C 
ENDBRANCH  27  29
BRANCH  27  30
ATOM     30  C   UNL     1       3.899   3.055  19.708  0.00  0.00    +0.000 C 
ATOM     31  C   UNL     1       3.708   1.829  18.828  0.00  0.00    +0.000 C 
ENDBRANCH  27  30
ENDBRANCH  24  27
ENDBRANCH   1  24
TORSDOF 7
ENDMDL
MODEL 8
REMARK VINA RESULT:      -7.1      1.816      2.744
REMARK  Name = 
REMARK  10 active torsions:
REMARK  status: ('A' for Active; 'I' for Inactive)
REMARK    1  A    between atoms: C_1  and  C_2
REMARK    2  A    between atoms: C_2  and  N_3
REMARK    3  A    between atoms: N_3  and  C_4
REMARK    4  A    between atoms: N_3  and  S_6
REMARK    5  A    between atoms: C_4  and  C_5
REMARK    6  A    between atoms: S_6  and  C_9
REMARK    7  A    between atoms: C_17  and  C_18
REMARK    8  A    between atoms: C_20  and  C_22
REMARK    9  A    between atoms: C_25  and  O_26
REMARK   10  A    between atoms: C_28  and  O_29
REMARK                            x       y       z     vdW  Elec       q    Type
REMARK                         _______ _______ _______ _____ _____    ______ ____
ROOT
ATOM      1  C   UNL     1       2.715   6.770  18.954  0.00  0.00    +0.000 A 
ATOM      2  C   UNL     1       2.721   7.756  17.974  0.00  0.00    +0.000 A 
ATOM      3  C   UNL     1       2.135   9.008  18.240  0.00  0.00    +0.000 A 
ATOM      4  C   UNL     1       1.531   9.301  19.478  0.00  0.00    +0.000 A 
ATOM      5  C   UNL     1       1.493   8.266  20.438  0.00  0.00    +0.000 A 
ATOM      6  C   UNL     1       2.083   7.015  20.173  0.00  0.00    +0.000 A 
ATOM      7  C   UNL     1       0.793   8.396  21.765  0.00  0.00    +0.000 C 
ATOM      8  C   UNL     1       0.447   9.837  22.070  0.00  0.00    +0.000 C 
ATOM      9  C   UNL     1      -0.186  10.445  20.811  0.00  0.00    +0.000 C 
ATOM     10  C   UNL     1      -1.149  11.547  21.248  0.00  0.00    +0.000 C 
ATOM     11  N   UNL     1       0.902  10.607  19.774  0.00  0.00    +0.000 N 
ATOM     12  C   UNL     1       1.420  11.773  19.125  0.00  0.00    +0.000 C 
ATOM     13  O   UNL     1       2.414  11.760  18.392  0.00  0.00    +0.000 OA
ENDROOT
BRANCH  12  14
ATOM     14  C   UNL     1       0.857  13.135  19.345  0.00  0.00    +0.000 A 
ATOM     15  C   UNL     1      -0.144  13.610  18.499  0.00  0.00    +0.000 A 
ATOM     16  C   UNL     1      -0.527  14.955  18.533  0.00  0.00    +0.000 A 
ATOM     17  C   UNL     1      -0.044  15.774  19.543  0.00  0.00    +0.000 A 
ATOM     18  C   UNL     1       0.742  15.250  20.558  0.00  0.00    +0.000 A 
ATOM     19  C   UNL     1       1.203  13.933  20.454  0.00  0.00    +0.000 A 
BRANCH  17  20
ATOM     20  O   UNL     1      -0.318  17.108  19.566  0.00  0.00    +0.000 OA
ATOM     21  H   UNL     1       0.090  17.519  18.785  0.00  0.00    +0.000 HD
ENDBRANCH  17  20
BRANCH  19  22
ATOM     22  O   UNL     1       2.007  13.462  21.456  0.00  0.00    +0.000 OA
ATOM     23  H   UNL     1       2.100  14.166  22.127  0.00  0.00    +0.000 HD
ENDBRANCH  19  22
ENDBRANCH  12  14
BRANCH   1  24
ATOM     24  S   UNL     1       3.385   5.154  18.625  0.00  0.00    +0.000 S 
ATOM     25  O   UNL     1       4.600   5.031  19.411  0.00  0.00    +0.000 OA
ATOM     26  O   UNL     1       3.418   4.965  17.186  0.00  0.00    +0.000 OA
BRANCH  24  27
ATOM     27  N   UNL     1       2.224   4.057  19.249  0.00  0.00    +0.000 NA
BRANCH  27  29
ATOM     28  C   UNL     1       0.581   2.219  18.771  0.00  0.00    +0.000 C 
ATOM     29  C   UNL     1       1.394   3.378  18.208  0.00  0.00    +0.000 C 
ENDBRANCH  27  29
BRANCH  27  30
ATOM     30  C   UNL     1       2.763   3.163  20.319  0.00  0.00    +0.000 C 
ATOM     31  C   UNL     1       2.146   3.395  21.690  0.00  0.00    +0.000 C 
ENDBRANCH  27  30
ENDBRANCH  24  27
ENDBRANCH   1  24
TORSDOF 7
ENDMDL
MODEL 9
REMARK VINA RESULT:      -7.1      1.210      1.961
REMARK  Name = 
REMARK  10 active torsions:
REMARK  status: ('A' for Active; 'I' for Inactive)
REMARK    1  A    between atoms: C_1  and  C_2
REMARK    2  A    between atoms: C_2  and  N_3
REMARK    3  A    between atoms: N_3  and  C_4
REMARK    4  A    between atoms: N_3  and  S_6
REMARK    5  A    between atoms: C_4  and  C_5
REMARK    6  A    between atoms: S_6  and  C_9
REMARK    7  A    between atoms: C_17  and  C_18
REMARK    8  A    between atoms: C_20  and  C_22
REMARK    9  A    between atoms: C_25  and  O_26
REMARK   10  A    between atoms: C_28  and  O_29
REMARK                            x       y       z     vdW  Elec       q    Type
REMARK                         _______ _______ _______ _____ _____    ______ ____
ROOT
ATOM      1  C   UNL     1       2.694   6.824  18.343  0.00  0.00    +0.000 A 
ATOM      2  C   UNL     1       2.636   7.879  17.440  0.00  0.00    +0.000 A 
ATOM      3  C   UNL     1       2.108   9.119  17.847  0.00  0.00    +0.000 A 
ATOM      4  C   UNL     1       1.626   9.330  19.153  0.00  0.00    +0.000 A 
ATOM      5  C   UNL     1       1.649   8.229  20.037  0.00  0.00    +0.000 A 
ATOM      6  C   UNL     1       2.181   6.990  19.630  0.00  0.00    +0.000 A 
ATOM      7  C   UNL     1       1.077   8.274  21.428  0.00  0.00    +0.000 C 
ATOM      8  C   UNL     1       0.795   9.695  21.866  0.00  0.00    +0.000 C 
ATOM      9  C   UNL     1       0.066  10.405  20.718  0.00  0.00    +0.000 C 
ATOM     10  C   UNL     1      -0.825  11.489  21.319  0.00  0.00    +0.000 C 
ATOM     11  N   UNL     1       1.060  10.623  19.599  0.00  0.00    +0.000 N 
ATOM     12  C   UNL     1       1.545  11.824  18.990  0.00  0.00    +0.000 C 
ATOM     13  O   UNL     1       2.468  11.847  18.170  0.00  0.00    +0.000 OA
ENDROOT
BRANCH  12  14
ATOM     14  C   UNL     1       1.039  13.176  19.358  0.00  0.00    +0.000 A 
ATOM     15  C   UNL     1      -0.014  13.735  18.636  0.00  0.00    +0.000 A 
ATOM     16  C   UNL     1      -0.357  15.082  18.803  0.00  0.00    +0.000 A 
ATOM     17  C   UNL     1       0.228  15.810  19.828  0.00  0.00    +0.000 A 
ATOM     18  C   UNL     1       1.079  15.193  20.732  0.00  0.00    +0.000 A 
ATOM     19  C   UNL     1       1.495  13.878  20.492  0.00  0.00    +0.000 A 
BRANCH  17  20
ATOM     20  O   UNL     1      -0.007  17.143  19.975  0.00  0.00    +0.000 OA
ATOM     21  H   UNL     1      -0.591  17.433  19.253  0.00  0.00    +0.000 HD
ENDBRANCH  17  20
BRANCH  19  22
ATOM     22  O   UNL     1       2.365  13.315  21.384  0.00  0.00    +0.000 OA
ATOM     23  H   UNL     1       2.028  12.429  21.620  0.00  0.00    +0.000 HD
ENDBRANCH  19  22
ENDBRANCH  12  14
BRANCH   1  24
ATOM     24  S   UNL     1       3.291   5.225  17.838  0.00  0.00    +0.000 S 
ATOM     25  O   UNL     1       4.210   5.444  16.735  0.00  0.00    +0.000 OA
ATOM     26  O   UNL     1       2.146   4.347  17.678  0.00  0.00    +0.000 OA
BRANCH  24  27
ATOM     27  N   UNL     1       4.187   4.642  19.180  0.00  0.00    +0.000 NA
BRANCH  27  29
ATOM     28  C   UNL     1       4.172   2.195  19.742  0.00  0.00    +0.000 C 
ATOM     29  C   UNL     1       3.511   3.552  19.946  0.00  0.00    +0.000 C 
ENDBRANCH  27  29
BRANCH  27  30
ATOM     30  C   UNL     1       5.631   4.408  18.876  0.00  0.00    +0.000 C 
ATOM     31  C   UNL     1       6.554   5.520  19.352  0.00  0.00    +0.000 C 
ENDBRANCH  27  30
ENDBRANCH  24  27
ENDBRANCH   1  24
TORSDOF 7
ENDMDL
