MODEL 1
REMARK VINA RESULT:      -8.7      0.000      0.000
REMARK  Name = 
REMARK  7 active torsions:
REMARK  status: ('A' for Active; 'I' for Inactive)
REMARK    1  A    between atoms: C_1  and  C_2
REMARK    2  A    between atoms: C_5  and  N_6
REMARK    3  A    between atoms: C_8  and  C_9
REMARK    4  A    between atoms: C_12  and  N_13
REMARK    5  A    between atoms: N_13  and  S_14
REMARK    6  A    between atoms: S_14  and  C_17
REMARK    7  A    between atoms: C_26  and  N_27
REMARK                            x       y       z     vdW  Elec       q    Type
REMARK                         _______ _______ _______ _____ _____    ______ ____
ROOT
ATOM      1  C   UNL     1       1.079   9.165  19.053  0.00  0.00    +0.000 A 
ATOM      2  C   UNL     1       1.909   8.702  18.019  0.00  0.00    +0.000 A 
ATOM      3  C   UNL     1       2.765   7.611  18.224  0.00  0.00    +0.000 A 
ATOM      4  C   UNL     1       2.790   6.973  19.461  0.00  0.00    +0.000 A 
ATOM      5  C   UNL     1       1.965   7.418  20.492  0.00  0.00    +0.000 A 
ATOM      6  C   UNL     1       1.120   8.510  20.291  0.00  0.00    +0.000 A 
ENDROOT
BRANCH   1   9
ATOM      7  N   UNL     1      -1.586  11.492  18.602  0.00  0.00    +0.000 N 
ATOM      8  N   UNL     1      -1.133  10.234  18.878  0.00  0.00    +0.000 NA
ATOM      9  C   UNL     1       0.205  10.329  18.867  0.00  0.00    +0.000 A 
ATOM     10  C   UNL     1       0.615  11.674  18.690  0.00  0.00    +0.000 A 
ATOM     11  C   UNL     1      -0.534  12.412  18.560  0.00  0.00    +0.000 A 
BRANCH   7  16
ATOM     12  C   UNL     1      -7.218  12.341  17.907  0.00  0.00    +0.000 C 
ATOM     13  C   UNL     1      -5.741  12.132  18.071  0.00  0.00    +0.000 A 
ATOM     14  C   UNL     1      -4.956  11.632  17.024  0.00  0.00    +0.000 A 
ATOM     15  C   UNL     1      -3.579  11.451  17.191  0.00  0.00    +0.000 A 
ATOM     16  C   UNL     1      -2.979  11.735  18.424  0.00  0.00    +0.000 A 
ATOM     17  C   UNL     1      -3.757  12.259  19.464  0.00  0.00    +0.000 A 
ATOM     18  C   UNL     1      -5.128  12.455  19.286  0.00  0.00    +0.000 A 
ENDBRANCH   7  16
BRANCH  11  19
ATOM     19  N   UNL     1      -0.657  13.763  18.470  0.00  0.00    +0.000 N 
ATOM     20  H   UNL     1      -1.226  14.256  19.155  0.00  0.00    +0.000 HD
ATOM     21  H   UNL     1      -0.711  14.204  17.552  0.00  0.00    +0.000 HD
ENDBRANCH  11  19
ENDBRANCH   1   9
BRANCH   4  22
ATOM     22  N   UNL     1       3.622   5.852  19.700  0.00  0.00    +0.000 N 
ATOM     23  H   UNL     1       4.051   5.729  20.616  0.00  0.00    +0.000 HD
BRANCH  22  24
ATOM     24  S   UNL     1       3.388   4.430  18.833  0.00  0.00    +0.000 S 
ATOM     25  O   UNL     1       3.514   3.347  19.788  0.00  0.00    +0.000 OA
ATOM     26  O   UNL     1       2.200   4.572  18.018  0.00  0.00    +0.000 OA
BRANCH  24  27
ATOM     27  C   UNL     1       4.811   4.375  17.780  0.00  0.00    +0.000 A 
ATOM     28  C   UNL     1       6.069   4.693  18.307  0.00  0.00    +0.000 A 
ATOM     29  C   UNL     1       7.174   4.744  17.458  0.00  0.00    +0.000 A 
ATOM     30  C   UNL     1       7.025   4.457  16.099  0.00  0.00    +0.000 A 
ATOM     31  C   UNL     1       5.774   4.107  15.585  0.00  0.00    +0.000 A 
ATOM     32  C   UNL     1       4.662   4.064  16.425  0.00  0.00    +0.000 A 
ENDBRANCH  24  27
ENDBRANCH  22  24
ENDBRANCH   4  22
TORSDOF 6
ENDMDL
MODEL 2
REMARK VINA RESULT:      -8.7      0.159      1.276
REMARK  Name = 
REMARK  7 active torsions:
REMARK  status: ('A' for Active; 'I' for Inactive)
REMARK    1  A    between atoms: C_1  and  C_2
REMARK    2  A    between atoms: C_5  and  N_6
REMARK    3  A    between atoms: C_8  and  C_9
REMARK    4  A    between atoms: C_12  and  N_13
REMARK    5  A    between atoms: N_13  and  S_14
REMARK    6  A    between atoms: S_14  and  C_17
REMARK    7  A    between atoms: C_26  and  N_27
REMARK                            x       y       z     vdW  Elec       q    Type
REMARK                         _______ _______ _______ _____ _____    ______ ____
ROOT
ATOM      1  C   UNL     1       1.147   9.130  19.054  0.00  0.00    +0.000 A 
ATOM      2  C   UNL     1       1.122   8.424  20.268  0.00  0.00    +0.000 A 
ATOM      3  C   UNL     1       1.949   7.308  20.462  0.00  0.00    +0.000 A 
ATOM      4  C   UNL     1       2.809   6.899  19.447  0.00  0.00    +0.000 A 
ATOM      5  C   UNL     1       2.848   7.597  18.242  0.00  0.00    +0.000 A 
ATOM      6  C   UNL     1       2.018   8.701  18.044  0.00  0.00    +0.000 A 
ENDROOT
BRANCH   1   9
ATOM      7  N   UNL     1      -1.541  11.409  18.496  0.00  0.00    +0.000 N 
ATOM      8  N   UNL     1      -1.076  10.165  18.814  0.00  0.00    +0.000 NA
ATOM      9  C   UNL     1       0.261  10.277  18.821  0.00  0.00    +0.000 A 
ATOM     10  C   UNL     1       0.656  11.622  18.613  0.00  0.00    +0.000 A 
ATOM     11  C   UNL     1      -0.500  12.341  18.444  0.00  0.00    +0.000 A 
BRANCH   7  16
ATOM     12  C   UNL     1      -7.125  12.421  17.652  0.00  0.00    +0.000 C 
ATOM     13  C   UNL     1      -5.670  12.141  17.889  0.00  0.00    +0.000 A 
ATOM     14  C   UNL     1      -5.096  12.299  19.156  0.00  0.00    +0.000 A 
ATOM     15  C   UNL     1      -3.739  12.027  19.363  0.00  0.00    +0.000 A 
ATOM     16  C   UNL     1      -2.933  11.628  18.289  0.00  0.00    +0.000 A 
ATOM     17  C   UNL     1      -3.511  11.444  17.026  0.00  0.00    +0.000 A 
ATOM     18  C   UNL     1      -4.870  11.700  16.830  0.00  0.00    +0.000 A 
ENDBRANCH   7  16
BRANCH  11  19
ATOM     19  N   UNL     1      -0.639  13.687  18.315  0.00  0.00    +0.000 N 
ATOM     20  H   UNL     1      -1.483  14.135  18.665  0.00  0.00    +0.000 HD
ATOM     21  H   UNL     1      -0.291  14.151  17.476  0.00  0.00    +0.000 HD
ENDBRANCH  11  19
ENDBRANCH   1   9
BRANCH   4  22
ATOM     22  N   UNL     1       3.678   5.793  19.614  0.00  0.00    +0.000 N 
ATOM     23  H   UNL     1       4.161   5.662  20.502  0.00  0.00    +0.000 HD
BRANCH  22  24
ATOM     24  S   UNL     1       3.426   4.384  18.732  0.00  0.00    +0.000 S 
ATOM     25  O   UNL     1       3.577   3.287  19.667  0.00  0.00    +0.000 OA
ATOM     26  O   UNL     1       2.218   4.535  17.947  0.00  0.00    +0.000 OA
BRANCH  24  27
ATOM     27  C   UNL     1       4.824   4.348  17.644  0.00  0.00    +0.000 A 
ATOM     28  C   UNL     1       6.102   4.593  18.160  0.00  0.00    +0.000 A 
ATOM     29  C   UNL     1       7.189   4.661  17.289  0.00  0.00    +0.000 A 
ATOM     30  C   UNL     1       7.002   4.462  15.919  0.00  0.00    +0.000 A 
ATOM     31  C   UNL     1       5.729   4.184  15.415  0.00  0.00    +0.000 A 
ATOM     32  C   UNL     1       4.634   4.126  16.277  0.00  0.00    +0.000 A 
ENDBRANCH  24  27
ENDBRANCH  22  24
ENDBRANCH   4  22
TORSDOF 6
ENDMDL
MODEL 3
REMARK VINA RESULT:      -8.6      0.141      1.277
REMARK  Name = 
REMARK  7 active torsions:
REMARK  status: ('A' for Active; 'I' for Inactive)
REMARK    1  A    between atoms: C_1  and  C_2
REMARK    2  A    between atoms: C_5  and  N_6
REMARK    3  A    between atoms: C_8  and  C_9
REMARK    4  A    between atoms: C_12  and  N_13
REMARK    5  A    between atoms: N_13  and  S_14
REMARK    6  A    between atoms: S_14  and  C_17
REMARK    7  A    between atoms: C_26  and  N_27
REMARK                            x       y       z     vdW  Elec       q    Type
REMARK                         _______ _______ _______ _____ _____    ______ ____
ROOT
ATOM      1  C   UNL     1       1.020   9.224  19.217  0.00  0.00    +0.000 A 
ATOM      2  C   UNL     1       0.961   8.491  20.413  0.00  0.00    +0.000 A 
ATOM      3  C   UNL     1       1.773   7.363  20.601  0.00  0.00    +0.000 A 
ATOM      4  C   UNL     1       2.652   6.969  19.596  0.00  0.00    +0.000 A 
ATOM      5  C   UNL     1       2.724   7.692  18.408  0.00  0.00    +0.000 A 
ATOM      6  C   UNL     1       1.910   8.809  18.217  0.00  0.00    +0.000 A 
ENDROOT
BRANCH   1   9
ATOM      7  N   UNL     1      -1.638  11.543  18.685  0.00  0.00    +0.000 N 
ATOM      8  N   UNL     1      -1.189  10.294  19.005  0.00  0.00    +0.000 NA
ATOM      9  C   UNL     1       0.150  10.384  18.990  0.00  0.00    +0.000 A 
ATOM     10  C   UNL     1       0.564  11.721  18.766  0.00  0.00    +0.000 A 
ATOM     11  C   UNL     1      -0.582  12.458  18.611  0.00  0.00    +0.000 A 
BRANCH   7  16
ATOM     12  C   UNL     1      -7.266  12.386  17.958  0.00  0.00    +0.000 C 
ATOM     13  C   UNL     1      -5.790  12.179  18.130  0.00  0.00    +0.000 A 
ATOM     14  C   UNL     1      -5.002  11.665  17.093  0.00  0.00    +0.000 A 
ATOM     15  C   UNL     1      -3.626  11.485  17.267  0.00  0.00    +0.000 A 
ATOM     16  C   UNL     1      -3.030  11.785  18.498  0.00  0.00    +0.000 A 
ATOM     17  C   UNL     1      -3.811  12.322  19.528  0.00  0.00    +0.000 A 
ATOM     18  C   UNL     1      -5.182  12.517  19.344  0.00  0.00    +0.000 A 
ENDBRANCH   7  16
BRANCH  11  19
ATOM     19  N   UNL     1      -0.700  13.805  18.474  0.00  0.00    +0.000 N 
ATOM     20  H   UNL     1      -1.535  14.188  18.034  0.00  0.00    +0.000 HD
ATOM     21  H   UNL     1       0.125  14.364  18.258  0.00  0.00    +0.000 HD
ENDBRANCH  11  19
ENDBRANCH   1   9
BRANCH   4  22
ATOM     22  N   UNL     1       3.507   5.851  19.758  0.00  0.00    +0.000 N 
ATOM     23  H   UNL     1       3.939   5.674  20.664  0.00  0.00    +0.000 HD
BRANCH  22  24
ATOM     24  S   UNL     1       3.302   4.487  18.796  0.00  0.00    +0.000 S 
ATOM     25  O   UNL     1       3.407   3.345  19.681  0.00  0.00    +0.000 OA
ATOM     26  O   UNL     1       2.134   4.678  17.960  0.00  0.00    +0.000 OA
BRANCH  24  27
ATOM     27  C   UNL     1       4.752   4.504  17.778  0.00  0.00    +0.000 A 
ATOM     28  C   UNL     1       4.654   4.110  16.438  0.00  0.00    +0.000 A 
ATOM     29  C   UNL     1       5.811   4.030  15.663  0.00  0.00    +0.000 A 
ATOM     30  C   UNL     1       7.049   4.364  16.218  0.00  0.00    +0.000 A 
ATOM     31  C   UNL     1       7.135   4.790  17.545  0.00  0.00    +0.000 A 
ATOM     32  C   UNL     1       5.984   4.862  18.331  0.00  0.00    +0.000 A 
ENDBRANCH  24  27
ENDBRANCH  22  24
ENDBRANCH   4  22
TORSDOF 6
ENDMDL
MODEL 4
REMARK VINA RESULT:      -8.5      2.094      2.773
REMARK  Name = 
REMARK  7 active torsions:
REMARK  status: ('A' for Active; 'I' for Inactive)
REMARK    1  A    between atoms: C_1  and  C_2
REMARK    2  A    between atoms: C_5  and  N_6
REMARK    3  A    between atoms: C_8  and  C_9
REMARK    4  A    between atoms: C_12  and  N_13
REMARK    5  A    between atoms: N_13  and  S_14
REMARK    6  A    between atoms: S_14  and  C_17
REMARK    7  A    between atoms: C_26  and  N_27
REMARK                            x       y       z     vdW  Elec       q    Type
REMARK                         _______ _______ _______ _____ _____    ______ ____
ROOT
ATOM      1  C   UNL     1       1.658   8.382  19.391  0.00  0.00    +0.000 A 
ATOM      2  C   UNL     1       1.658   7.425  20.419  0.00  0.00    +0.000 A 
ATOM      3  C   UNL     1       2.214   6.154  20.213  0.00  0.00    +0.000 A 
ATOM      4  C   UNL     1       2.778   5.838  18.980  0.00  0.00    +0.000 A 
ATOM      5  C   UNL     1       2.791   6.782  17.955  0.00  0.00    +0.000 A 
ATOM      6  C   UNL     1       2.230   8.043  18.158  0.00  0.00    +0.000 A 
ENDROOT
BRANCH   1   9
ATOM      7  N   UNL     1      -0.270  11.237  20.319  0.00  0.00    +0.000 N 
ATOM      8  N   UNL     1       0.092   9.932  20.494  0.00  0.00    +0.000 NA
ATOM      9  C   UNL     1       1.048   9.703  19.580  0.00  0.00    +0.000 A 
ATOM     10  C   UNL     1       1.379  10.895  18.887  0.00  0.00    +0.000 A 
ATOM     11  C   UNL     1       0.560  11.873  19.391  0.00  0.00    +0.000 A 
BRANCH   7  16
ATOM     12  C   UNL     1      -4.706  13.352  23.279  0.00  0.00    +0.000 C 
ATOM     13  C   UNL     1      -3.544  12.819  22.494  0.00  0.00    +0.000 A 
ATOM     14  C   UNL     1      -3.533  12.854  21.095  0.00  0.00    +0.000 A 
ATOM     15  C   UNL     1      -2.438  12.360  20.378  0.00  0.00    +0.000 A 
ATOM     16  C   UNL     1      -1.354  11.790  21.059  0.00  0.00    +0.000 A 
ATOM     17  C   UNL     1      -1.352  11.777  22.459  0.00  0.00    +0.000 A 
ATOM     18  C   UNL     1      -2.439  12.288  23.170  0.00  0.00    +0.000 A 
ENDBRANCH   7  16
BRANCH  11  19
ATOM     19  N   UNL     1       0.573  13.204  19.111  0.00  0.00    +0.000 N 
ATOM     20  H   UNL     1       0.247  13.862  19.815  0.00  0.00    +0.000 HD
ATOM     21  H   UNL     1       0.347  13.522  18.168  0.00  0.00    +0.000 HD
ENDBRANCH  11  19
ENDBRANCH   1   9
BRANCH   4  22
ATOM     22  N   UNL     1       3.371   4.575  18.740  0.00  0.00    +0.000 N 
ATOM     23  H   UNL     1       2.956   3.945  18.053  0.00  0.00    +0.000 HD
BRANCH  22  24
ATOM     24  S   UNL     1       5.019   4.357  18.991  0.00  0.00    +0.000 S 
ATOM     25  O   UNL     1       5.488   5.549  19.669  0.00  0.00    +0.000 OA
ATOM     26  O   UNL     1       5.234   3.042  19.560  0.00  0.00    +0.000 OA
BRANCH  24  27
ATOM     27  C   UNL     1       5.674   4.390  17.346  0.00  0.00    +0.000 A 
ATOM     28  C   UNL     1       7.015   4.743  17.148  0.00  0.00    +0.000 A 
ATOM     29  C   UNL     1       7.505   4.863  15.848  0.00  0.00    +0.000 A 
ATOM     30  C   UNL     1       6.668   4.611  14.758  0.00  0.00    +0.000 A 
ATOM     31  C   UNL     1       5.342   4.226  14.963  0.00  0.00    +0.000 A 
ATOM     32  C   UNL     1       4.840   4.114  16.260  0.00  0.00    +0.000 A 
ENDBRANCH  24  27
ENDBRANCH  22  24
ENDBRANCH   4  22
TORSDOF 6
ENDMDL
MODEL 5
REMARK VINA RESULT:      -8.5      2.126      2.761
REMARK  Name = 
REMARK  7 active torsions:
REMARK  status: ('A' for Active; 'I' for Inactive)
REMARK    1  A    between atoms: C_1  and  C_2
REMARK    2  A    between atoms: C_5  and  N_6
REMARK    3  A    between atoms: C_8  and  C_9
REMARK    4  A    between atoms: C_12  and  N_13
REMARK    5  A    between atoms: N_13  and  S_14
REMARK    6  A    between atoms: S_14  and  C_17
REMARK    7  A    between atoms: C_26  and  N_27
REMARK                            x       y       z     vdW  Elec       q    Type
REMARK                         _______ _______ _______ _____ _____    ______ ____
ROOT
ATOM      1  C   UNL     1       1.665   8.411  19.289  0.00  0.00    +0.000 A 
ATOM      2  C   UNL     1       2.304   8.095  18.079  0.00  0.00    +0.000 A 
ATOM      3  C   UNL     1       2.907   6.842  17.895  0.00  0.00    +0.000 A 
ATOM      4  C   UNL     1       2.866   5.898  18.916  0.00  0.00    +0.000 A 
ATOM      5  C   UNL     1       2.228   6.197  20.118  0.00  0.00    +0.000 A 
ATOM      6  C   UNL     1       1.637   7.447  20.305  0.00  0.00    +0.000 A 
ENDROOT
BRANCH   1   9
ATOM      7  N   UNL     1      -0.248  11.252  20.287  0.00  0.00    +0.000 N 
ATOM      8  N   UNL     1       0.104   9.940  20.426  0.00  0.00    +0.000 NA
ATOM      9  C   UNL     1       1.063   9.731  19.512  0.00  0.00    +0.000 A 
ATOM     10  C   UNL     1       1.407  10.939  18.855  0.00  0.00    +0.000 A 
ATOM     11  C   UNL     1       0.593  11.909  19.382  0.00  0.00    +0.000 A 
BRANCH   7  16
ATOM     12  C   UNL     1      -4.547  13.536  23.323  0.00  0.00    +0.000 C 
ATOM     13  C   UNL     1      -3.426  12.919  22.539  0.00  0.00    +0.000 A 
ATOM     14  C   UNL     1      -2.354  12.284  23.179  0.00  0.00    +0.000 A 
ATOM     15  C   UNL     1      -1.321  11.706  22.433  0.00  0.00    +0.000 A 
ATOM     16  C   UNL     1      -1.333  11.792  21.035  0.00  0.00    +0.000 A 
ATOM     17  C   UNL     1      -2.417  12.404  20.393  0.00  0.00    +0.000 A 
ATOM     18  C   UNL     1      -3.455  12.963  21.141  0.00  0.00    +0.000 A 
ENDBRANCH   7  16
BRANCH  11  19
ATOM     19  N   UNL     1       0.617  13.246  19.140  0.00  0.00    +0.000 N 
ATOM     20  H   UNL     1       0.666  13.576  18.179  0.00  0.00    +0.000 HD
ATOM     21  H   UNL     1       1.126  13.863  19.773  0.00  0.00    +0.000 HD
ENDBRANCH  11  19
ENDBRANCH   1   9
BRANCH   4  22
ATOM     22  N   UNL     1       3.440   4.613  18.760  0.00  0.00    +0.000 N 
ATOM     23  H   UNL     1       3.000   3.937  18.136  0.00  0.00    +0.000 HD
BRANCH  22  24
ATOM     24  S   UNL     1       5.092   4.395  18.984  0.00  0.00    +0.000 S 
ATOM     25  O   UNL     1       5.574   5.592  19.644  0.00  0.00    +0.000 OA
ATOM     26  O   UNL     1       5.315   3.085  19.559  0.00  0.00    +0.000 OA
BRANCH  24  27
ATOM     27  C   UNL     1       5.718   4.415  17.327  0.00  0.00    +0.000 A 
ATOM     28  C   UNL     1       7.063   4.738  17.105  0.00  0.00    +0.000 A 
ATOM     29  C   UNL     1       7.532   4.849  15.797  0.00  0.00    +0.000 A 
ATOM     30  C   UNL     1       6.670   4.616  14.722  0.00  0.00    +0.000 A 
ATOM     31  C   UNL     1       5.340   4.260  14.951  0.00  0.00    +0.000 A 
ATOM     32  C   UNL     1       4.858   4.158  16.256  0.00  0.00    +0.000 A 
ENDBRANCH  24  27
ENDBRANCH  22  24
ENDBRANCH   4  22
TORSDOF 6
ENDMDL
MODEL 6
REMARK VINA RESULT:      -8.5      2.140      2.792
REMARK  Name = 
REMARK  7 active torsions:
REMARK  status: ('A' for Active; 'I' for Inactive)
REMARK    1  A    between atoms: C_1  and  C_2
REMARK    2  A    between atoms: C_5  and  N_6
REMARK    3  A    between atoms: C_8  and  C_9
REMARK    4  A    between atoms: C_12  and  N_13
REMARK    5  A    between atoms: N_13  and  S_14
REMARK    6  A    between atoms: S_14  and  C_17
REMARK    7  A    between atoms: C_26  and  N_27
REMARK                            x       y       z     vdW  Elec       q    Type
REMARK                         _______ _______ _______ _____ _____    ______ ____
ROOT
ATOM      1  C   UNL     1       1.615   8.427  19.384  0.00  0.00    +0.000 A 
ATOM      2  C   UNL     1       2.251   8.129  18.168  0.00  0.00    +0.000 A 
ATOM      3  C   UNL     1       2.859   6.881  17.966  0.00  0.00    +0.000 A 
ATOM      4  C   UNL     1       2.826   5.925  18.977  0.00  0.00    +0.000 A 
ATOM      5  C   UNL     1       2.190   6.206  20.184  0.00  0.00    +0.000 A 
ATOM      6  C   UNL     1       1.595   7.451  20.388  0.00  0.00    +0.000 A 
ENDROOT
BRANCH   1   9
ATOM      7  N   UNL     1      -0.310  11.247  20.417  0.00  0.00    +0.000 N 
ATOM      8  N   UNL     1       0.045   9.934  20.538  0.00  0.00    +0.000 NA
ATOM      9  C   UNL     1       1.008   9.742  19.624  0.00  0.00    +0.000 A 
ATOM     10  C   UNL     1       1.351  10.961  18.987  0.00  0.00    +0.000 A 
ATOM     11  C   UNL     1       0.532  11.920  19.525  0.00  0.00    +0.000 A 
BRANCH   7  16
ATOM     12  C   UNL     1      -4.769  13.253  23.419  0.00  0.00    +0.000 C 
ATOM     13  C   UNL     1      -3.600  12.749  22.625  0.00  0.00    +0.000 A 
ATOM     14  C   UNL     1      -3.555  12.883  21.232  0.00  0.00    +0.000 A 
ATOM     15  C   UNL     1      -2.454  12.415  20.507  0.00  0.00    +0.000 A 
ATOM     16  C   UNL     1      -1.400  11.772  21.169  0.00  0.00    +0.000 A 
ATOM     17  C   UNL     1      -1.431  11.661  22.565  0.00  0.00    +0.000 A 
ATOM     18  C   UNL     1      -2.524  12.146  23.286  0.00  0.00    +0.000 A 
ENDBRANCH   7  16
BRANCH  11  19
ATOM     19  N   UNL     1       0.553  13.261  19.304  0.00  0.00    +0.000 N 
ATOM     20  H   UNL     1       1.322  13.665  18.774  0.00  0.00    +0.000 HD
ATOM     21  H   UNL     1       0.227  13.897  20.032  0.00  0.00    +0.000 HD
ENDBRANCH  11  19
ENDBRANCH   1   9
BRANCH   4  22
ATOM     22  N   UNL     1       3.405   4.644  18.803  0.00  0.00    +0.000 N 
ATOM     23  H   UNL     1       2.959   3.969  18.181  0.00  0.00    +0.000 HD
BRANCH  22  24
ATOM     24  S   UNL     1       5.061   4.434  18.999  0.00  0.00    +0.000 S 
ATOM     25  O   UNL     1       5.542   5.617  19.685  0.00  0.00    +0.000 OA
ATOM     26  O   UNL     1       5.303   3.111  19.536  0.00  0.00    +0.000 OA
BRANCH  24  27
ATOM     27  C   UNL     1       5.665   4.505  17.336  0.00  0.00    +0.000 A 
ATOM     28  C   UNL     1       4.808   4.172  16.280  0.00  0.00    +0.000 A 
ATOM     29  C   UNL     1       5.309   4.134  14.979  0.00  0.00    +0.000 A 
ATOM     30  C   UNL     1       6.649   4.448  14.736  0.00  0.00    +0.000 A 
ATOM     31  C   UNL     1       7.489   4.812  15.789  0.00  0.00    +0.000 A 
ATOM     32  C   UNL     1       7.000   4.843  17.095  0.00  0.00    +0.000 A 
ENDBRANCH  24  27
ENDBRANCH  22  24
ENDBRANCH   4  22
TORSDOF 6
ENDMDL
MODEL 7
REMARK VINA RESULT:      -8.5      2.814      3.613
REMARK  Name = 
REMARK  7 active torsions:
REMARK  status: ('A' for Active; 'I' for Inactive)
REMARK    1  A    between atoms: C_1  and  C_2
REMARK    2  A    between atoms: C_5  and  N_6
REMARK    3  A    between atoms: C_8  and  C_9
REMARK    4  A    between atoms: C_12  and  N_13
REMARK    5  A    between atoms: N_13  and  S_14
REMARK    6  A    between atoms: S_14  and  C_17
REMARK    7  A    between atoms: C_26  and  N_27
REMARK                            x       y       z     vdW  Elec       q    Type
REMARK                         _______ _______ _______ _____ _____    ______ ____
ROOT
ATOM      1  C   UNL     1       1.697   8.363  19.268  0.00  0.00    +0.000 A 
ATOM      2  C   UNL     1       1.676   7.452  20.337  0.00  0.00    +0.000 A 
ATOM      3  C   UNL     1       2.230   6.172  20.195  0.00  0.00    +0.000 A 
ATOM      4  C   UNL     1       2.812   5.800  18.986  0.00  0.00    +0.000 A 
ATOM      5  C   UNL     1       2.846   6.698  17.922  0.00  0.00    +0.000 A 
ATOM      6  C   UNL     1       2.287   7.969  18.060  0.00  0.00    +0.000 A 
ENDROOT
BRANCH   1   9
ATOM      7  N   UNL     1       0.263  11.467  20.286  0.00  0.00    +0.000 N 
ATOM      8  N   UNL     1       0.915  10.302  20.572  0.00  0.00    +0.000 NA
ATOM      9  C   UNL     1       1.089   9.694  19.389  0.00  0.00    +0.000 A 
ATOM     10  C   UNL     1       0.645  10.520  18.326  0.00  0.00    +0.000 A 
ATOM     11  C   UNL     1       0.155  11.662  18.905  0.00  0.00    +0.000 A 
BRANCH   7  16
ATOM     12  C   UNL     1      -1.625  14.960  24.428  0.00  0.00    +0.000 C 
ATOM     13  C   UNL     1      -1.110  14.049  23.353  0.00  0.00    +0.000 A 
ATOM     14  C   UNL     1      -0.101  14.459  22.473  0.00  0.00    +0.000 A 
ATOM     15  C   UNL     1       0.374  13.595  21.481  0.00  0.00    +0.000 A 
ATOM     16  C   UNL     1      -0.186  12.319  21.336  0.00  0.00    +0.000 A 
ATOM     17  C   UNL     1      -1.177  11.898  22.231  0.00  0.00    +0.000 A 
ATOM     18  C   UNL     1      -1.635  12.758  23.231  0.00  0.00    +0.000 A 
ENDBRANCH   7  16
BRANCH  11  19
ATOM     19  N   UNL     1      -0.291  12.790  18.291  0.00  0.00    +0.000 N 
ATOM     20  H   UNL     1      -0.223  12.863  17.278  0.00  0.00    +0.000 HD
ATOM     21  H   UNL     1      -0.157  13.695  18.740  0.00  0.00    +0.000 HD
ENDBRANCH  11  19
ENDBRANCH   1   9
BRANCH   4  22
ATOM     22  N   UNL     1       3.405   4.525  18.811  0.00  0.00    +0.000 N 
ATOM     23  H   UNL     1       2.976   3.853  18.176  0.00  0.00    +0.000 HD
BRANCH  22  24
ATOM     24  S   UNL     1       5.059   4.327  19.036  0.00  0.00    +0.000 S 
ATOM     25  O   UNL     1       5.527   5.530  19.696  0.00  0.00    +0.000 OA
ATOM     26  O   UNL     1       5.297   3.020  19.613  0.00  0.00    +0.000 OA
BRANCH  24  27
ATOM     27  C   UNL     1       5.686   4.353  17.380  0.00  0.00    +0.000 A 
ATOM     28  C   UNL     1       7.025   4.698  17.158  0.00  0.00    +0.000 A 
ATOM     29  C   UNL     1       7.493   4.813  15.849  0.00  0.00    +0.000 A 
ATOM     30  C   UNL     1       6.636   4.563  14.775  0.00  0.00    +0.000 A 
ATOM     31  C   UNL     1       5.311   4.186  15.004  0.00  0.00    +0.000 A 
ATOM     32  C   UNL     1       4.831   4.079  16.309  0.00  0.00    +0.000 A 
ENDBRANCH  24  27
ENDBRANCH  22  24
ENDBRANCH   4  22
TORSDOF 6
ENDMDL
MODEL 8
REMARK VINA RESULT:      -8.4      2.108      3.010
REMARK  Name = 
REMARK  7 active torsions:
REMARK  status: ('A' for Active; 'I' for Inactive)
REMARK    1  A    between atoms: C_1  and  C_2
REMARK    2  A    between atoms: C_5  and  N_6
REMARK    3  A    between atoms: C_8  and  C_9
REMARK    4  A    between atoms: C_12  and  N_13
REMARK    5  A    between atoms: N_13  and  S_14
REMARK    6  A    between atoms: S_14  and  C_17
REMARK    7  A    between atoms: C_26  and  N_27
REMARK                            x       y       z     vdW  Elec       q    Type
REMARK                         _______ _______ _______ _____ _____    ______ ____
ROOT
ATOM      1  C   UNL     1       1.647   8.388  19.382  0.00  0.00    +0.000 A 
ATOM      2  C   UNL     1       1.614   7.422  20.401  0.00  0.00    +0.000 A 
ATOM      3  C   UNL     1       2.174   6.152  20.201  0.00  0.00    +0.000 A 
ATOM      4  C   UNL     1       2.775   5.846  18.983  0.00  0.00    +0.000 A 
ATOM      5  C   UNL     1       2.821   6.798  17.968  0.00  0.00    +0.000 A 
ATOM      6  C   UNL     1       2.256   8.059  18.164  0.00  0.00    +0.000 A 
ENDROOT
BRANCH   1   9
ATOM      7  N   UNL     1      -0.283  11.244  20.301  0.00  0.00    +0.000 N 
ATOM      8  N   UNL     1       0.087   9.942  20.485  0.00  0.00    +0.000 NA
ATOM      9  C   UNL     1       1.033   9.708  19.563  0.00  0.00    +0.000 A 
ATOM     10  C   UNL     1       1.351  10.893  18.854  0.00  0.00    +0.000 A 
ATOM     11  C   UNL     1       0.534  11.874  19.357  0.00  0.00    +0.000 A 
BRANCH   7  16
ATOM     12  C   UNL     1      -4.557  13.596  23.321  0.00  0.00    +0.000 C 
ATOM     13  C   UNL     1      -3.443  12.961  22.542  0.00  0.00    +0.000 A 
ATOM     14  C   UNL     1      -2.358  12.354  23.187  0.00  0.00    +0.000 A 
ATOM     15  C   UNL     1      -1.331  11.759  22.446  0.00  0.00    +0.000 A 
ATOM     16  C   UNL     1      -1.362  11.800  21.046  0.00  0.00    +0.000 A 
ATOM     17  C   UNL     1      -2.459  12.384  20.400  0.00  0.00    +0.000 A 
ATOM     18  C   UNL     1      -3.490  12.960  21.144  0.00  0.00    +0.000 A 
ENDBRANCH   7  16
BRANCH  11  19
ATOM     19  N   UNL     1       0.538  13.201  19.062  0.00  0.00    +0.000 N 
ATOM     20  H   UNL     1      -0.318  13.637  18.726  0.00  0.00    +0.000 HD
ATOM     21  H   UNL     1       1.363  13.620  18.635  0.00  0.00    +0.000 HD
ENDBRANCH  11  19
ENDBRANCH   1   9
BRANCH   4  22
ATOM     22  N   UNL     1       3.375   4.583  18.751  0.00  0.00    +0.000 N 
ATOM     23  H   UNL     1       2.954   3.942  18.078  0.00  0.00    +0.000 HD
BRANCH  22  24
ATOM     24  S   UNL     1       5.027   4.380  18.981  0.00  0.00    +0.000 S 
ATOM     25  O   UNL     1       5.486   5.555  19.696  0.00  0.00    +0.000 OA
ATOM     26  O   UNL     1       5.265   3.050  19.502  0.00  0.00    +0.000 OA
BRANCH  24  27
ATOM     27  C   UNL     1       5.668   4.480  17.333  0.00  0.00    +0.000 A 
ATOM     28  C   UNL     1       4.825   4.201  16.250  0.00  0.00    +0.000 A 
ATOM     29  C   UNL     1       5.352   4.185  14.959  0.00  0.00    +0.000 A 
ATOM     30  C   UNL     1       6.704   4.468  14.752  0.00  0.00    +0.000 A 
ATOM     31  C   UNL     1       7.532   4.779  15.833  0.00  0.00    +0.000 A 
ATOM     32  C   UNL     1       7.016   4.787  17.129  0.00  0.00    +0.000 A 
ENDBRANCH  24  27
ENDBRANCH  22  24
ENDBRANCH   4  22
TORSDOF 6
ENDMDL
MODEL 9
REMARK VINA RESULT:      -8.4      2.807      3.700
REMARK  Name = 
REMARK  7 active torsions:
REMARK  status: ('A' for Active; 'I' for Inactive)
REMARK    1  A    between atoms: C_1  and  C_2
REMARK    2  A    between atoms: C_5  and  N_6
REMARK    3  A    between atoms: C_8  and  C_9
REMARK    4  A    between atoms: C_12  and  N_13
REMARK    5  A    between atoms: N_13  and  S_14
REMARK    6  A    between atoms: S_14  and  C_17
REMARK    7  A    between atoms: C_26  and  N_27
REMARK                            x       y       z     vdW  Elec       q    Type
REMARK                         _______ _______ _______ _____ _____    ______ ____
ROOT
ATOM      1  C   UNL     1       1.710   8.406  19.268  0.00  0.00    +0.000 A 
ATOM      2  C   UNL     1       1.660   7.501  20.341  0.00  0.00    +0.000 A 
ATOM      3  C   UNL     1       2.199   6.212  20.214  0.00  0.00    +0.000 A 
ATOM      4  C   UNL     1       2.796   5.827  19.017  0.00  0.00    +0.000 A 
ATOM      5  C   UNL     1       2.859   6.719  17.949  0.00  0.00    +0.000 A 
ATOM      6  C   UNL     1       2.314   7.998  18.072  0.00  0.00    +0.000 A 
ENDROOT
BRANCH   1   9
ATOM      7  N   UNL     1       0.276  11.523  20.246  0.00  0.00    +0.000 N 
ATOM      8  N   UNL     1       0.895  10.344  20.552  0.00  0.00    +0.000 NA
ATOM      9  C   UNL     1       1.117   9.744  19.372  0.00  0.00    +0.000 A 
ATOM     10  C   UNL     1       0.737  10.587  18.297  0.00  0.00    +0.000 A 
ATOM     11  C   UNL     1       0.238  11.732  18.864  0.00  0.00    +0.000 A 
BRANCH   7  16
ATOM     12  C   UNL     1      -1.603  14.879  24.503  0.00  0.00    +0.000 C 
ATOM     13  C   UNL     1      -1.133  14.000  23.382  0.00  0.00    +0.000 A 
ATOM     14  C   UNL     1      -1.682  12.728  23.175  0.00  0.00    +0.000 A 
ATOM     15  C   UNL     1      -1.238  11.924  22.120  0.00  0.00    +0.000 A 
ATOM     16  C   UNL     1      -0.210  12.372  21.282  0.00  0.00    +0.000 A 
ATOM     17  C   UNL     1       0.323  13.653  21.471  0.00  0.00    +0.000 A 
ATOM     18  C   UNL     1      -0.136  14.460  22.514  0.00  0.00    +0.000 A 
ENDBRANCH   7  16
BRANCH  11  19
ATOM     19  N   UNL     1      -0.161  12.872  18.239  0.00  0.00    +0.000 N 
ATOM     20  H   UNL     1      -0.282  13.721  18.787  0.00  0.00    +0.000 HD
ATOM     21  H   UNL     1      -0.836  12.818  17.477  0.00  0.00    +0.000 HD
ENDBRANCH  11  19
ENDBRANCH   1   9
BRANCH   4  22
ATOM     22  N   UNL     1       3.375   4.544  18.858  0.00  0.00    +0.000 N 
ATOM     23  H   UNL     1       2.928   3.862  18.246  0.00  0.00    +0.000 HD
BRANCH  22  24
ATOM     24  S   UNL     1       5.031   4.336  19.055  0.00  0.00    +0.000 S 
ATOM     25  O   UNL     1       5.507   5.508  19.764  0.00  0.00    +0.000 OA
ATOM     26  O   UNL     1       5.276   3.004  19.569  0.00  0.00    +0.000 OA
BRANCH  24  27
ATOM     27  C   UNL     1       5.640   4.438  17.395  0.00  0.00    +0.000 A 
ATOM     28  C   UNL     1       4.789   4.112  16.331  0.00  0.00    +0.000 A 
ATOM     29  C   UNL     1       5.295   4.098  15.031  0.00  0.00    +0.000 A 
ATOM     30  C   UNL     1       6.632   4.431  14.797  0.00  0.00    +0.000 A 
ATOM     31  C   UNL     1       7.465   4.789  15.859  0.00  0.00    +0.000 A 
ATOM     32  C   UNL     1       6.971   4.794  17.163  0.00  0.00    +0.000 A 
ENDBRANCH  24  27
ENDBRANCH  22  24
ENDBRANCH   4  22
TORSDOF 6
ENDMDL
