MODEL 1
REMARK VINA RESULT:      -6.0      0.000      0.000
REMARK  Name = 
REMARK  6 active torsions:
REMARK  status: ('A' for Active; 'I' for Inactive)
REMARK    1  A    between atoms: N_3  and  C_4
REMARK    2  A    between atoms: C_4  and  C_5
REMARK    3  A    between atoms: N_10  and  C_11
REMARK    4  A    between atoms: C_11  and  C_12
REMARK    5  A    between atoms: N_15  and  C_16
REMARK    6  A    between atoms: C_16  and  C_17
REMARK                            x       y       z     vdW  Elec       q    Type
REMARK                         _______ _______ _______ _____ _____    ______ ____
ROOT
ATOM      1  O   UNL     1       6.379   4.940  19.779  0.00  0.00    +0.000 OA
ATOM      2  C   UNL     1       5.643   4.876  18.806  0.00  0.00    +0.000 A 
ATOM      3  N   UNL     1       4.582   4.021  18.632  0.00  0.00    +0.000 N 
ATOM      4  C   UNL     1       4.111   4.138  17.334  0.00  0.00    +0.000 A 
ATOM      5  O   UNL     1       3.406   3.331  16.752  0.00  0.00    +0.000 OA
ATOM      6  N   UNL     1       4.689   5.299  16.770  0.00  0.00    +0.000 N 
ATOM      7  N   UNL     1       5.721   5.692  17.670  0.00  0.00    +0.000 N 
ENDROOT
BRANCH   3   8
ATOM      8  C   UNL     1       4.283   2.902  19.500  0.00  0.00    +0.000 C 
BRANCH   8   9
ATOM      9  C   UNL     1       2.885   2.925  20.047  0.00  0.00    +0.000 C 
ATOM     10  C   UNL     1       2.558   2.897  21.522  0.00  0.00    +0.000 C 
ATOM     11  O   UNL     1       2.564   4.120  20.776  0.00  0.00    +0.000 OA
ENDBRANCH   8   9
ENDBRANCH   3   8
BRANCH   6  12
ATOM     12  C   UNL     1       5.105   5.301  15.367  0.00  0.00    +0.000 C 
BRANCH  12  13
ATOM     13  C   UNL     1       6.335   4.497  15.068  0.00  0.00    +0.000 C 
ATOM     14  C   UNL     1       6.964   4.317  13.708  0.00  0.00    +0.000 C 
ATOM     15  O   UNL     1       7.433   5.317  14.618  0.00  0.00    +0.000 OA
ENDBRANCH  12  13
ENDBRANCH   6  12
BRANCH   7  16
ATOM     16  C   UNL     1       6.037   7.106  17.794  0.00  0.00    +0.000 C 
BRANCH  16  17
ATOM     17  C   UNL     1       7.467   7.407  17.468  0.00  0.00    +0.000 C 
ATOM     18  C   UNL     1       8.125   8.710  17.849  0.00  0.00    +0.000 C 
ATOM     19  O   UNL     1       8.334   7.509  18.604  0.00  0.00    +0.000 OA
ENDBRANCH  16  17
ENDBRANCH   7  16
TORSDOF 6
ENDMDL
MODEL 2
REMARK VINA RESULT:      -5.7      1.600      3.665
REMARK  Name = 
REMARK  6 active torsions:
REMARK  status: ('A' for Active; 'I' for Inactive)
REMARK    1  A    between atoms: N_3  and  C_4
REMARK    2  A    between atoms: C_4  and  C_5
REMARK    3  A    between atoms: N_10  and  C_11
REMARK    4  A    between atoms: C_11  and  C_12
REMARK    5  A    between atoms: N_15  and  C_16
REMARK    6  A    between atoms: C_16  and  C_17
REMARK                            x       y       z     vdW  Elec       q    Type
REMARK                         _______ _______ _______ _____ _____    ______ ____
ROOT
ATOM      1  O   UNL     1       2.357   3.243  16.526  0.00  0.00    +0.000 OA
ATOM      2  C   UNL     1       3.137   3.826  17.263  0.00  0.00    +0.000 A 
ATOM      3  N   UNL     1       2.971   4.079  18.603  0.00  0.00    +0.000 N 
ATOM      4  C   UNL     1       3.990   4.910  19.040  0.00  0.00    +0.000 A 
ATOM      5  O   UNL     1       3.985   5.574  20.062  0.00  0.00    +0.000 OA
ATOM      6  N   UNL     1       4.982   4.940  18.031  0.00  0.00    +0.000 N 
ATOM      7  N   UNL     1       4.387   4.336  16.887  0.00  0.00    +0.000 N 
ENDROOT
BRANCH   3   8
ATOM      8  C   UNL     1       1.735   3.871  19.327  0.00  0.00    +0.000 C 
BRANCH   8   9
ATOM      9  C   UNL     1       1.762   2.666  20.222  0.00  0.00    +0.000 C 
ATOM     10  C   UNL     1       2.430   2.640  21.577  0.00  0.00    +0.000 C 
ATOM     11  O   UNL     1       1.017   2.827  21.440  0.00  0.00    +0.000 OA
ENDBRANCH   8   9
ENDBRANCH   3   8
BRANCH   6  12
ATOM     12  C   UNL     1       5.685   6.188  17.734  0.00  0.00    +0.000 C 
BRANCH  12  13
ATOM     13  C   UNL     1       7.177   6.127  17.879  0.00  0.00    +0.000 C 
ATOM     14  C   UNL     1       7.931   5.928  19.170  0.00  0.00    +0.000 C 
ATOM     15  O   UNL     1       7.635   4.827  18.306  0.00  0.00    +0.000 OA
ENDBRANCH  12  13
ENDBRANCH   6  12
BRANCH   7  16
ATOM     16  C   UNL     1       5.238   3.605  15.962  0.00  0.00    +0.000 C 
BRANCH  16  17
ATOM     17  C   UNL     1       5.506   4.367  14.702  0.00  0.00    +0.000 C 
ATOM     18  C   UNL     1       6.888   4.833  14.318  0.00  0.00    +0.000 C 
ATOM     19  O   UNL     1       6.295   3.667  13.731  0.00  0.00    +0.000 OA
ENDBRANCH  16  17
ENDBRANCH   7  16
TORSDOF 6
ENDMDL
MODEL 3
REMARK VINA RESULT:      -5.7      1.259      1.315
REMARK  Name = 
REMARK  6 active torsions:
REMARK  status: ('A' for Active; 'I' for Inactive)
REMARK    1  A    between atoms: N_3  and  C_4
REMARK    2  A    between atoms: C_4  and  C_5
REMARK    3  A    between atoms: N_10  and  C_11
REMARK    4  A    between atoms: C_11  and  C_12
REMARK    5  A    between atoms: N_15  and  C_16
REMARK    6  A    between atoms: C_16  and  C_17
REMARK                            x       y       z     vdW  Elec       q    Type
REMARK                         _______ _______ _______ _____ _____    ______ ____
ROOT
ATOM      1  O   UNL     1       6.099   4.730  20.184  0.00  0.00    +0.000 OA
ATOM      2  C   UNL     1       5.514   4.694  19.112  0.00  0.00    +0.000 A 
ATOM      3  N   UNL     1       4.155   4.695  18.916  0.00  0.00    +0.000 N 
ATOM      4  C   UNL     1       3.887   4.470  17.575  0.00  0.00    +0.000 A 
ATOM      5  O   UNL     1       2.822   4.103  17.108  0.00  0.00    +0.000 OA
ATOM      6  N   UNL     1       5.100   4.628  16.863  0.00  0.00    +0.000 N 
ATOM      7  N   UNL     1       6.124   4.669  17.851  0.00  0.00    +0.000 N 
ENDROOT
BRANCH   3   8
ATOM      8  C   UNL     1       3.176   4.533  19.971  0.00  0.00    +0.000 C 
BRANCH   8   9
ATOM      9  C   UNL     1       3.046   3.117  20.452  0.00  0.00    +0.000 C 
ATOM     10  C   UNL     1       1.855   2.597  21.223  0.00  0.00    +0.000 C 
ATOM     11  O   UNL     1       1.992   2.378  19.815  0.00  0.00    +0.000 OA
ENDBRANCH   8   9
ENDBRANCH   3   8
BRANCH   6  12
ATOM     12  C   UNL     1       5.408   3.744  15.738  0.00  0.00    +0.000 C 
BRANCH  12  13
ATOM     13  C   UNL     1       5.649   4.440  14.431  0.00  0.00    +0.000 C 
ATOM     14  C   UNL     1       6.987   4.611  13.756  0.00  0.00    +0.000 C 
ATOM     15  O   UNL     1       6.110   3.538  13.405  0.00  0.00    +0.000 OA
ENDBRANCH  12  13
ENDBRANCH   6  12
BRANCH   7  16
ATOM     16  C   UNL     1       7.314   5.462  17.588  0.00  0.00    +0.000 C 
BRANCH  16  17
ATOM     17  C   UNL     1       7.061   6.933  17.696  0.00  0.00    +0.000 C 
ATOM     18  C   UNL     1       8.121   7.904  18.156  0.00  0.00    +0.000 C 
ATOM     19  O   UNL     1       7.796   7.741  16.769  0.00  0.00    +0.000 OA
ENDBRANCH  16  17
ENDBRANCH   7  16
TORSDOF 6
ENDMDL
MODEL 4
REMARK VINA RESULT:      -5.6      2.931      5.215
REMARK  Name = 
REMARK  6 active torsions:
REMARK  status: ('A' for Active; 'I' for Inactive)
REMARK    1  A    between atoms: N_3  and  C_4
REMARK    2  A    between atoms: C_4  and  C_5
REMARK    3  A    between atoms: N_10  and  C_11
REMARK    4  A    between atoms: C_11  and  C_12
REMARK    5  A    between atoms: N_15  and  C_16
REMARK    6  A    between atoms: C_16  and  C_17
REMARK                            x       y       z     vdW  Elec       q    Type
REMARK                         _______ _______ _______ _____ _____    ______ ____
ROOT
ATOM      1  O   UNL     1       4.743   7.340  16.989  0.00  0.00    +0.000 OA
ATOM      2  C   UNL     1       4.544   6.504  17.856  0.00  0.00    +0.000 A 
ATOM      3  N   UNL     1       5.446   5.586  18.336  0.00  0.00    +0.000 N 
ATOM      4  C   UNL     1       4.794   4.705  19.183  0.00  0.00    +0.000 A 
ATOM      5  O   UNL     1       5.200   3.608  19.529  0.00  0.00    +0.000 OA
ATOM      6  N   UNL     1       3.524   5.254  19.478  0.00  0.00    +0.000 N 
ATOM      7  N   UNL     1       3.346   6.329  18.562  0.00  0.00    +0.000 N 
ENDROOT
BRANCH   3   8
ATOM      8  C   UNL     1       6.740   5.322  17.741  0.00  0.00    +0.000 C 
BRANCH   8   9
ATOM      9  C   UNL     1       6.669   4.453  16.519  0.00  0.00    +0.000 C 
ATOM     10  C   UNL     1       6.562   4.989  15.110  0.00  0.00    +0.000 C 
ATOM     11  O   UNL     1       7.814   4.562  15.658  0.00  0.00    +0.000 OA
ENDBRANCH   8   9
ENDBRANCH   3   8
BRANCH   6  12
ATOM     12  C   UNL     1       2.356   4.379  19.587  0.00  0.00    +0.000 C 
BRANCH  12  13
ATOM     13  C   UNL     1       1.909   3.754  18.299  0.00  0.00    +0.000 C 
ATOM     14  C   UNL     1       2.240   2.357  17.834  0.00  0.00    +0.000 C 
ATOM     15  O   UNL     1       1.012   2.644  18.509  0.00  0.00    +0.000 OA
ENDBRANCH  12  13
ENDBRANCH   6  12
BRANCH   7  16
ATOM     16  C   UNL     1       2.558   7.478  18.978  0.00  0.00    +0.000 C 
BRANCH  16  17
ATOM     17  C   UNL     1       1.838   8.126  17.837  0.00  0.00    +0.000 C 
ATOM     18  C   UNL     1       0.984   9.357  18.016  0.00  0.00    +0.000 C 
ATOM     19  O   UNL     1       2.314   9.431  17.487  0.00  0.00    +0.000 OA
ENDBRANCH  16  17
ENDBRANCH   7  16
TORSDOF 6
ENDMDL
MODEL 5
REMARK VINA RESULT:      -5.6      2.885      5.348
REMARK  Name = 
REMARK  6 active torsions:
REMARK  status: ('A' for Active; 'I' for Inactive)
REMARK    1  A    between atoms: N_3  and  C_4
REMARK    2  A    between atoms: C_4  and  C_5
REMARK    3  A    between atoms: N_10  and  C_11
REMARK    4  A    between atoms: C_11  and  C_12
REMARK    5  A    between atoms: N_15  and  C_16
REMARK    6  A    between atoms: C_16  and  C_17
REMARK                            x       y       z     vdW  Elec       q    Type
REMARK                         _______ _______ _______ _____ _____    ______ ____
ROOT
ATOM      1  O   UNL     1       4.605   6.975  16.613  0.00  0.00    +0.000 OA
ATOM      2  C   UNL     1       4.256   6.109  17.400  0.00  0.00    +0.000 A 
ATOM      3  N   UNL     1       4.928   4.948  17.697  0.00  0.00    +0.000 N 
ATOM      4  C   UNL     1       4.129   4.151  18.500  0.00  0.00    +0.000 A 
ATOM      5  O   UNL     1       4.269   2.954  18.690  0.00  0.00    +0.000 OA
ATOM      6  N   UNL     1       3.056   4.948  18.964  0.00  0.00    +0.000 N 
ATOM      7  N   UNL     1       3.097   6.140  18.187  0.00  0.00    +0.000 N 
ENDROOT
BRANCH   3   8
ATOM      8  C   UNL     1       6.077   4.458  16.964  0.00  0.00    +0.000 C 
BRANCH   8   9
ATOM      9  C   UNL     1       7.388   4.810  17.604  0.00  0.00    +0.000 C 
ATOM     10  C   UNL     1       7.636   6.093  18.363  0.00  0.00    +0.000 C 
ATOM     11  O   UNL     1       7.342   4.865  19.039  0.00  0.00    +0.000 OA
ENDBRANCH   8   9
ENDBRANCH   3   8
BRANCH   6  12
ATOM     12  C   UNL     1       1.715   4.373  19.082  0.00  0.00    +0.000 C 
BRANCH  12  13
ATOM     13  C   UNL     1       1.237   4.159  20.488  0.00  0.00    +0.000 C 
ATOM     14  C   UNL     1       1.248   2.847  21.234  0.00  0.00    +0.000 C 
ATOM     15  O   UNL     1       2.308   3.796  21.383  0.00  0.00    +0.000 OA
ENDBRANCH  12  13
ENDBRANCH   6  12
BRANCH   7  16
ATOM     16  C   UNL     1       2.647   7.383  18.792  0.00  0.00    +0.000 C 
BRANCH  16  17
ATOM     17  C   UNL     1       1.773   8.185  17.879  0.00  0.00    +0.000 C 
ATOM     18  C   UNL     1       1.168   9.504  18.291  0.00  0.00    +0.000 C 
ATOM     19  O   UNL     1       2.330   9.435  17.455  0.00  0.00    +0.000 OA
ENDBRANCH  16  17
ENDBRANCH   7  16
TORSDOF 6
ENDMDL
MODEL 6
REMARK VINA RESULT:      -5.6      2.484      5.620
REMARK  Name = 
REMARK  6 active torsions:
REMARK  status: ('A' for Active; 'I' for Inactive)
REMARK    1  A    between atoms: N_3  and  C_4
REMARK    2  A    between atoms: C_4  and  C_5
REMARK    3  A    between atoms: N_10  and  C_11
REMARK    4  A    between atoms: C_11  and  C_12
REMARK    5  A    between atoms: N_15  and  C_16
REMARK    6  A    between atoms: C_16  and  C_17
REMARK                            x       y       z     vdW  Elec       q    Type
REMARK                         _______ _______ _______ _____ _____    ______ ____
ROOT
ATOM      1  O   UNL     1       4.650   7.144  16.998  0.00  0.00    +0.000 OA
ATOM      2  C   UNL     1       4.469   6.258  17.820  0.00  0.00    +0.000 A 
ATOM      3  N   UNL     1       5.434   5.514  18.454  0.00  0.00    +0.000 N 
ATOM      4  C   UNL     1       4.827   4.500  19.176  0.00  0.00    +0.000 A 
ATOM      5  O   UNL     1       5.370   3.491  19.591  0.00  0.00    +0.000 OA
ATOM      6  N   UNL     1       3.443   4.789  19.242  0.00  0.00    +0.000 N 
ATOM      7  N   UNL     1       3.223   5.838  18.304  0.00  0.00    +0.000 N 
ENDROOT
BRANCH   3   8
ATOM      8  C   UNL     1       6.837   5.520  18.095  0.00  0.00    +0.000 C 
BRANCH   8   9
ATOM      9  C   UNL     1       7.180   4.543  17.008  0.00  0.00    +0.000 C 
ATOM     10  C   UNL     1       6.364   4.366  15.749  0.00  0.00    +0.000 C 
ATOM     11  O   UNL     1       7.555   5.161  15.766  0.00  0.00    +0.000 OA
ENDBRANCH   8   9
ENDBRANCH   3   8
BRANCH   6  12
ATOM     12  C   UNL     1       2.464   3.705  19.146  0.00  0.00    +0.000 C 
BRANCH  12  13
ATOM     13  C   UNL     1       1.551   3.568  20.327  0.00  0.00    +0.000 C 
ATOM     14  C   UNL     1       1.750   2.633  21.495  0.00  0.00    +0.000 C 
ATOM     15  O   UNL     1       2.172   3.998  21.556  0.00  0.00    +0.000 OA
ENDBRANCH  12  13
ENDBRANCH   6  12
BRANCH   7  16
ATOM     16  C   UNL     1       2.169   6.802  18.572  0.00  0.00    +0.000 C 
BRANCH  16  17
ATOM     17  C   UNL     1       2.302   7.441  19.920  0.00  0.00    +0.000 C 
ATOM     18  C   UNL     1       1.310   8.455  20.434  0.00  0.00    +0.000 C 
ATOM     19  O   UNL     1       1.279   7.086  20.858  0.00  0.00    +0.000 OA
ENDBRANCH  16  17
ENDBRANCH   7  16
TORSDOF 6
ENDMDL
MODEL 7
REMARK VINA RESULT:      -5.6      2.858      5.821
REMARK  Name = 
REMARK  6 active torsions:
REMARK  status: ('A' for Active; 'I' for Inactive)
REMARK    1  A    between atoms: N_3  and  C_4
REMARK    2  A    between atoms: C_4  and  C_5
REMARK    3  A    between atoms: N_10  and  C_11
REMARK    4  A    between atoms: C_11  and  C_12
REMARK    5  A    between atoms: N_15  and  C_16
REMARK    6  A    between atoms: C_16  and  C_17
REMARK                            x       y       z     vdW  Elec       q    Type
REMARK                         _______ _______ _______ _____ _____    ______ ____
ROOT
ATOM      1  O   UNL     1       5.359   3.906  19.672  0.00  0.00    +0.000 OA
ATOM      2  C   UNL     1       4.779   4.755  19.013  0.00  0.00    +0.000 A 
ATOM      3  N   UNL     1       5.199   5.302  17.825  0.00  0.00    +0.000 N 
ATOM      4  C   UNL     1       4.359   6.350  17.483  0.00  0.00    +0.000 A 
ATOM      5  O   UNL     1       4.607   7.237  16.684  0.00  0.00    +0.000 OA
ATOM      6  N   UNL     1       3.216   6.271  18.312  0.00  0.00    +0.000 N 
ATOM      7  N   UNL     1       3.541   5.328  19.329  0.00  0.00    +0.000 N 
ENDROOT
BRANCH   3   8
ATOM      8  C   UNL     1       6.516   5.106  17.255  0.00  0.00    +0.000 C 
BRANCH   8   9
ATOM      9  C   UNL     1       6.508   4.277  16.004  0.00  0.00    +0.000 C 
ATOM     10  C   UNL     1       6.178   4.823  14.634  0.00  0.00    +0.000 C 
ATOM     11  O   UNL     1       7.532   4.633  15.061  0.00  0.00    +0.000 OA
ENDBRANCH   8   9
ENDBRANCH   3   8
BRANCH   6  12
ATOM     12  C   UNL     1       2.598   7.495  18.826  0.00  0.00    +0.000 C 
BRANCH  12  13
ATOM     13  C   UNL     1       1.742   8.235  17.842  0.00  0.00    +0.000 C 
ATOM     14  C   UNL     1       1.033   9.542  18.097  0.00  0.00    +0.000 C 
ATOM     15  O   UNL     1       2.313   9.504  17.461  0.00  0.00    +0.000 OA
ENDBRANCH  12  13
ENDBRANCH   6  12
BRANCH   7  16
ATOM     16  C   UNL     1       2.474   4.520  19.897  0.00  0.00    +0.000 C 
BRANCH  16  17
ATOM     17  C   UNL     1       1.898   3.552  18.912  0.00  0.00    +0.000 C 
ATOM     18  C   UNL     1       1.929   2.060  19.133  0.00  0.00    +0.000 C 
ATOM     19  O   UNL     1       0.747   2.834  19.374  0.00  0.00    +0.000 OA
ENDBRANCH  16  17
ENDBRANCH   7  16
TORSDOF 6
ENDMDL
MODEL 8
REMARK VINA RESULT:      -5.6      2.867      5.856
REMARK  Name = 
REMARK  6 active torsions:
REMARK  status: ('A' for Active; 'I' for Inactive)
REMARK    1  A    between atoms: N_3  and  C_4
REMARK    2  A    between atoms: C_4  and  C_5
REMARK    3  A    between atoms: N_10  and  C_11
REMARK    4  A    between atoms: C_11  and  C_12
REMARK    5  A    between atoms: N_15  and  C_16
REMARK    6  A    between atoms: C_16  and  C_17
REMARK                            x       y       z     vdW  Elec       q    Type
REMARK                         _______ _______ _______ _____ _____    ______ ____
ROOT
ATOM      1  O   UNL     1       4.374   3.210  19.375  0.00  0.00    +0.000 OA
ATOM      2  C   UNL     1       4.105   4.267  18.824  0.00  0.00    +0.000 A 
ATOM      3  N   UNL     1       4.907   4.971  17.959  0.00  0.00    +0.000 N 
ATOM      4  C   UNL     1       4.321   6.198  17.690  0.00  0.00    +0.000 A 
ATOM      5  O   UNL     1       4.884   7.176  17.229  0.00  0.00    +0.000 OA
ATOM      6  N   UNL     1       2.985   6.146  18.153  0.00  0.00    +0.000 N 
ATOM      7  N   UNL     1       2.898   4.968  18.949  0.00  0.00    +0.000 N 
ENDROOT
BRANCH   3   8
ATOM      8  C   UNL     1       6.303   4.674  17.713  0.00  0.00    +0.000 C 
BRANCH   8   9
ATOM      9  C   UNL     1       6.567   4.156  16.329  0.00  0.00    +0.000 C 
ATOM     10  C   UNL     1       6.727   5.042  15.115  0.00  0.00    +0.000 C 
ATOM     11  O   UNL     1       7.860   4.509  15.811  0.00  0.00    +0.000 OA
ENDBRANCH   8   9
ENDBRANCH   3   8
BRANCH   6  12
ATOM     12  C   UNL     1       2.384   7.322  18.783  0.00  0.00    +0.000 C 
BRANCH  12  13
ATOM     13  C   UNL     1       1.992   8.418  17.838  0.00  0.00    +0.000 C 
ATOM     14  C   UNL     1       0.883   9.419  18.056  0.00  0.00    +0.000 C 
ATOM     15  O   UNL     1       2.240   9.730  18.383  0.00  0.00    +0.000 OA
ENDBRANCH  12  13
ENDBRANCH   6  12
BRANCH   7  16
ATOM     16  C   UNL     1       1.632   4.257  19.005  0.00  0.00    +0.000 C 
BRANCH  16  17
ATOM     17  C   UNL     1       1.085   4.164  20.396  0.00  0.00    +0.000 C 
ATOM     18  C   UNL     1       1.239   2.926  21.243  0.00  0.00    +0.000 C 
ATOM     19  O   UNL     1       2.075   4.076  21.428  0.00  0.00    +0.000 OA
ENDBRANCH  16  17
ENDBRANCH   7  16
TORSDOF 6
ENDMDL
MODEL 9
REMARK VINA RESULT:      -5.6      2.374      5.916
REMARK  Name = 
REMARK  6 active torsions:
REMARK  status: ('A' for Active; 'I' for Inactive)
REMARK    1  A    between atoms: N_3  and  C_4
REMARK    2  A    between atoms: C_4  and  C_5
REMARK    3  A    between atoms: N_10  and  C_11
REMARK    4  A    between atoms: C_11  and  C_12
REMARK    5  A    between atoms: N_15  and  C_16
REMARK    6  A    between atoms: C_16  and  C_17
REMARK                            x       y       z     vdW  Elec       q    Type
REMARK                         _______ _______ _______ _____ _____    ______ ____
ROOT
ATOM      1  O   UNL     1       6.242   4.378  19.411  0.00  0.00    +0.000 OA
ATOM      2  C   UNL     1       5.400   4.917  18.709  0.00  0.00    +0.000 A 
ATOM      3  N   UNL     1       5.610   5.532  17.499  0.00  0.00    +0.000 N 
ATOM      4  C   UNL     1       4.446   6.171  17.104  0.00  0.00    +0.000 A 
ATOM      5  O   UNL     1       4.360   7.051  16.265  0.00  0.00    +0.000 OA
ATOM      6  N   UNL     1       3.398   5.701  17.930  0.00  0.00    +0.000 N 
ATOM      7  N   UNL     1       4.030   4.994  18.992  0.00  0.00    +0.000 N 
ENDROOT
BRANCH   3   8
ATOM      8  C   UNL     1       6.917   5.824  16.946  0.00  0.00    +0.000 C 
BRANCH   8   9
ATOM      9  C   UNL     1       7.347   4.852  15.886  0.00  0.00    +0.000 C 
ATOM     10  C   UNL     1       6.663   4.711  14.546  0.00  0.00    +0.000 C 
ATOM     11  O   UNL     1       7.865   5.474  14.700  0.00  0.00    +0.000 OA
ENDBRANCH   8   9
ENDBRANCH   3   8
BRANCH   6  12
ATOM     12  C   UNL     1       2.354   6.622  18.382  0.00  0.00    +0.000 C 
BRANCH  12  13
ATOM     13  C   UNL     1       2.543   7.166  19.766  0.00  0.00    +0.000 C 
ATOM     14  C   UNL     1       1.591   8.086  20.491  0.00  0.00    +0.000 C 
ATOM     15  O   UNL     1       1.554   6.670  20.692  0.00  0.00    +0.000 OA
ENDBRANCH  12  13
ENDBRANCH   6  12
BRANCH   7  16
ATOM     16  C   UNL     1       3.334   3.868  19.592  0.00  0.00    +0.000 C 
BRANCH  16  17
ATOM     17  C   UNL     1       2.873   2.868  18.577  0.00  0.00    +0.000 C 
ATOM     18  C   UNL     1       3.478   1.491  18.467  0.00  0.00    +0.000 C 
ATOM     19  O   UNL     1       2.222   1.714  19.121  0.00  0.00    +0.000 OA
ENDBRANCH  16  17
ENDBRANCH   7  16
TORSDOF 6
ENDMDL
