MODEL 1
REMARK VINA RESULT:      -7.2      0.000      0.000
REMARK  Name = 
REMARK  10 active torsions:
REMARK  status: ('A' for Active; 'I' for Inactive)
REMARK    1  A    between atoms: C_1  and  C_2
REMARK    2  A    between atoms: C_2  and  O_3
REMARK    3  A    between atoms: O_3  and  C_4
REMARK    4  A    between atoms: C_4  and  C_6
REMARK    5  A    between atoms: C_6  and  N_7
REMARK    6  A    between atoms: C_6  and  N_12
REMARK    7  A    between atoms: C_6  and  C_21
REMARK    8  A    between atoms: C_8  and  C_10
REMARK    9  A    between atoms: C_10  and  C_11
REMARK   10  A    between atoms: N_12  and  C_13
REMARK                            x       y       z     vdW  Elec       q    Type
REMARK                         _______ _______ _______ _____ _____    ______ ____
ROOT
ATOM      1  C   UNL     1       4.798   5.194  17.301  0.00  0.00    +0.000 C 
ENDROOT
BRANCH   1   2
ATOM      2  N   UNL     1       4.818   5.164  15.840  0.00  0.00    +0.000 N 
ATOM      3  C   UNL     1       5.397   4.135  15.149  0.00  0.00    +0.000 C 
ATOM      4  O   UNL     1       5.934   3.188  15.707  0.00  0.00    +0.000 OA
ATOM      5  H   UNL     1       4.680   6.058  15.393  0.00  0.00    +0.000 HD
BRANCH   3   6
ATOM      6  C   UNL     1       5.307   4.291  13.647  0.00  0.00    +0.000 C 
ATOM      7  C   UNL     1       6.483   3.624  12.958  0.00  0.00    +0.000 C 
ENDBRANCH   3   6
ENDBRANCH   1   2
BRANCH   1   8
ATOM      8  C   UNL     1       4.127   6.465  17.957  0.00  0.00    +0.000 C 
ATOM      9  F   UNL     1       4.106   6.471  19.307  0.00  0.00    +0.000 F 
ATOM     10  F   UNL     1       4.670   7.632  17.533  0.00  0.00    +0.000 F 
ATOM     11  F   UNL     1       2.815   6.524  17.565  0.00  0.00    +0.000 F 
ENDBRANCH   1   8
BRANCH   1  12
ATOM     12  C   UNL     1       6.240   5.161  17.886  0.00  0.00    +0.000 C 
ATOM     13  O   UNL     1       6.623   4.406  18.779  0.00  0.00    +0.000 OA
BRANCH  12  14
ATOM     14  O   UNL     1       7.064   6.093  17.319  0.00  0.00    +0.000 OA
BRANCH  14  16
ATOM     15  C   UNL     1       7.901   8.296  17.711  0.00  0.00    +0.000 C 
ATOM     16  C   UNL     1       7.841   6.878  18.239  0.00  0.00    +0.000 C 
ENDBRANCH  14  16
ENDBRANCH  12  14
ENDBRANCH   1  12
BRANCH   1  17
ATOM     17  N   UNL     1       3.977   3.975  17.595  0.00  0.00    +0.000 N 
ATOM     18  H   UNL     1       3.604   3.544  16.742  0.00  0.00    +0.000 HD
BRANCH  17  19
ATOM     19  C   UNL     1       3.230   3.655  18.727  0.00  0.00    +0.000 A 
ATOM     20  C   UNL     1       3.786   3.168  19.911  0.00  0.00    +0.000 A 
ATOM     21  C   UNL     1       2.966   2.748  20.968  0.00  0.00    +0.000 A 
ATOM     22  C   UNL     1       1.583   2.807  20.834  0.00  0.00    +0.000 A 
ATOM     23  F   UNL     1       0.805   2.375  21.835  0.00  0.00    +0.000 F 
ATOM     24  C   UNL     1       0.999   3.291  19.677  0.00  0.00    +0.000 A 
ATOM     25  C   UNL     1       1.828   3.706  18.640  0.00  0.00    +0.000 A 
ATOM     26  F   UNL     1       1.257   4.168  17.514  0.00  0.00    +0.000 F 
ENDBRANCH  17  19
ENDBRANCH   1  17
TORSDOF 8
ENDMDL
MODEL 2
REMARK VINA RESULT:      -7.1      1.013      1.476
REMARK  Name = 
REMARK  10 active torsions:
REMARK  status: ('A' for Active; 'I' for Inactive)
REMARK    1  A    between atoms: C_1  and  C_2
REMARK    2  A    between atoms: C_2  and  O_3
REMARK    3  A    between atoms: O_3  and  C_4
REMARK    4  A    between atoms: C_4  and  C_6
REMARK    5  A    between atoms: C_6  and  N_7
REMARK    6  A    between atoms: C_6  and  N_12
REMARK    7  A    between atoms: C_6  and  C_21
REMARK    8  A    between atoms: C_8  and  C_10
REMARK    9  A    between atoms: C_10  and  C_11
REMARK   10  A    between atoms: N_12  and  C_13
REMARK                            x       y       z     vdW  Elec       q    Type
REMARK                         _______ _______ _______ _____ _____    ______ ____
ROOT
ATOM      1  C   UNL     1       4.637   5.210  17.683  0.00  0.00    +0.000 C 
ENDROOT
BRANCH   1   2
ATOM      2  N   UNL     1       4.870   5.179  16.241  0.00  0.00    +0.000 N 
ATOM      3  C   UNL     1       5.448   4.100  15.629  0.00  0.00    +0.000 C 
ATOM      4  O   UNL     1       5.806   3.107  16.247  0.00  0.00    +0.000 OA
ATOM      5  H   UNL     1       4.883   6.081  15.791  0.00  0.00    +0.000 HD
BRANCH   3   6
ATOM      6  C   UNL     1       5.597   4.264  14.133  0.00  0.00    +0.000 C 
ATOM      7  C   UNL     1       7.000   4.713  13.770  0.00  0.00    +0.000 C 
ENDBRANCH   3   6
ENDBRANCH   1   2
BRANCH   1   8
ATOM      8  C   UNL     1       3.752   6.407  18.214  0.00  0.00    +0.000 C 
ATOM      9  F   UNL     1       3.512   6.398  19.543  0.00  0.00    +0.000 F 
ATOM     10  F   UNL     1       4.246   7.623  17.878  0.00  0.00    +0.000 F 
ATOM     11  F   UNL     1       2.521   6.348  17.614  0.00  0.00    +0.000 F 
ENDBRANCH   1   8
BRANCH   1  12
ATOM     12  C   UNL     1       5.974   5.326  18.471  0.00  0.00    +0.000 C 
ATOM     13  O   UNL     1       6.138   4.983  19.640  0.00  0.00    +0.000 OA
BRANCH  12  14
ATOM     14  O   UNL     1       6.978   5.884  17.730  0.00  0.00    +0.000 OA
BRANCH  14  16
ATOM     15  C   UNL     1       7.815   8.118  17.590  0.00  0.00    +0.000 C 
ATOM     16  C   UNL     1       7.795   6.849  18.415  0.00  0.00    +0.000 C 
ENDBRANCH  14  16
ENDBRANCH  12  14
ENDBRANCH   1  12
BRANCH   1  17
ATOM     17  N   UNL     1       3.908   3.914  17.877  0.00  0.00    +0.000 N 
ATOM     18  H   UNL     1       3.689   3.455  16.986  0.00  0.00    +0.000 HD
BRANCH  17  19
ATOM     19  C   UNL     1       3.061   3.513  18.908  0.00  0.00    +0.000 A 
ATOM     20  C   UNL     1       1.710   3.858  18.981  0.00  0.00    +0.000 A 
ATOM     21  C   UNL     1       0.945   3.526  20.107  0.00  0.00    +0.000 A 
ATOM     22  C   UNL     1       1.538   2.854  21.170  0.00  0.00    +0.000 A 
ATOM     23  F   UNL     1       0.810   2.567  22.258  0.00  0.00    +0.000 F 
ATOM     24  C   UNL     1       2.872   2.489  21.128  0.00  0.00    +0.000 A 
ATOM     25  C   UNL     1       3.615   2.825  20.001  0.00  0.00    +0.000 A 
ATOM     26  F   UNL     1       4.913   2.477  19.967  0.00  0.00    +0.000 F 
ENDBRANCH  17  19
ENDBRANCH   1  17
TORSDOF 8
ENDMDL
MODEL 3
REMARK VINA RESULT:      -6.9      2.152      3.936
REMARK  Name = 
REMARK  10 active torsions:
REMARK  status: ('A' for Active; 'I' for Inactive)
REMARK    1  A    between atoms: C_1  and  C_2
REMARK    2  A    between atoms: C_2  and  O_3
REMARK    3  A    between atoms: O_3  and  C_4
REMARK    4  A    between atoms: C_4  and  C_6
REMARK    5  A    between atoms: C_6  and  N_7
REMARK    6  A    between atoms: C_6  and  N_12
REMARK    7  A    between atoms: C_6  and  C_21
REMARK    8  A    between atoms: C_8  and  C_10
REMARK    9  A    between atoms: C_10  and  C_11
REMARK   10  A    between atoms: N_12  and  C_13
REMARK                            x       y       z     vdW  Elec       q    Type
REMARK                         _______ _______ _______ _____ _____    ______ ____
ROOT
ATOM      1  C   UNL     1       5.944   4.763  17.107  0.00  0.00    +0.000 C 
ENDROOT
BRANCH   1   2
ATOM      2  N   UNL     1       4.825   5.668  17.358  0.00  0.00    +0.000 N 
ATOM      3  C   UNL     1       4.879   6.992  17.017  0.00  0.00    +0.000 C 
ATOM      4  O   UNL     1       5.861   7.495  16.490  0.00  0.00    +0.000 OA
ATOM      5  H   UNL     1       4.171   5.353  18.058  0.00  0.00    +0.000 HD
BRANCH   3   6
ATOM      6  C   UNL     1       3.617   7.754  17.355  0.00  0.00    +0.000 C 
ATOM      7  C   UNL     1       2.691   6.918  18.220  0.00  0.00    +0.000 C 
ENDBRANCH   3   6
ENDBRANCH   1   2
BRANCH   1   8
ATOM      8  C   UNL     1       7.229   4.990  17.999  0.00  0.00    +0.000 C 
ATOM      9  F   UNL     1       8.200   4.063  17.853  0.00  0.00    +0.000 F 
ATOM     10  F   UNL     1       7.781   6.216  17.834  0.00  0.00    +0.000 F 
ATOM     11  F   UNL     1       6.865   4.942  19.319  0.00  0.00    +0.000 F 
ENDBRANCH   1   8
BRANCH   1  12
ATOM     12  C   UNL     1       6.453   4.885  15.641  0.00  0.00    +0.000 C 
ATOM     13  O   UNL     1       7.510   5.415  15.302  0.00  0.00    +0.000 OA
BRANCH  12  14
ATOM     14  O   UNL     1       5.581   4.356  14.732  0.00  0.00    +0.000 OA
BRANCH  14  16
ATOM     15  C   UNL     1       5.071   3.553  12.540  0.00  0.00    +0.000 C 
ATOM     16  C   UNL     1       6.177   3.812  13.541  0.00  0.00    +0.000 C 
ENDBRANCH  14  16
ENDBRANCH  12  14
ENDBRANCH   1  12
BRANCH   1  17
ATOM     17  N   UNL     1       5.318   3.443  17.443  0.00  0.00    +0.000 N 
ATOM     18  H   UNL     1       5.678   2.682  16.856  0.00  0.00    +0.000 HD
BRANCH  17  19
ATOM     19  C   UNL     1       4.059   3.161  17.969  0.00  0.00    +0.000 A 
ATOM     20  C   UNL     1       2.868   3.308  17.255  0.00  0.00    +0.000 A 
ATOM     21  C   UNL     1       1.629   3.127  17.883  0.00  0.00    +0.000 A 
ATOM     22  C   UNL     1       1.581   2.807  19.236  0.00  0.00    +0.000 A 
ATOM     23  F   UNL     1       0.392   2.666  19.838  0.00  0.00    +0.000 F 
ATOM     24  C   UNL     1       2.741   2.645  19.972  0.00  0.00    +0.000 A 
ATOM     25  C   UNL     1       3.963   2.826  19.331  0.00  0.00    +0.000 A 
ATOM     26  F   UNL     1       5.088   2.678  20.050  0.00  0.00    +0.000 F 
ENDBRANCH  17  19
ENDBRANCH   1  17
TORSDOF 8
ENDMDL
MODEL 4
REMARK VINA RESULT:      -6.9      2.189      3.658
REMARK  Name = 
REMARK  10 active torsions:
REMARK  status: ('A' for Active; 'I' for Inactive)
REMARK    1  A    between atoms: C_1  and  C_2
REMARK    2  A    between atoms: C_2  and  O_3
REMARK    3  A    between atoms: O_3  and  C_4
REMARK    4  A    between atoms: C_4  and  C_6
REMARK    5  A    between atoms: C_6  and  N_7
REMARK    6  A    between atoms: C_6  and  N_12
REMARK    7  A    between atoms: C_6  and  C_21
REMARK    8  A    between atoms: C_8  and  C_10
REMARK    9  A    between atoms: C_10  and  C_11
REMARK   10  A    between atoms: N_12  and  C_13
REMARK                            x       y       z     vdW  Elec       q    Type
REMARK                         _______ _______ _______ _____ _____    ______ ____
ROOT
ATOM      1  C   UNL     1       6.529   5.453  17.877  0.00  0.00    +0.000 C 
ENDROOT
BRANCH   1   2
ATOM      2  N   UNL     1       5.382   6.329  18.107  0.00  0.00    +0.000 N 
ATOM      3  C   UNL     1       4.557   6.717  17.087  0.00  0.00    +0.000 C 
ATOM      4  O   UNL     1       4.731   6.363  15.930  0.00  0.00    +0.000 OA
ATOM      5  H   UNL     1       5.422   6.869  18.958  0.00  0.00    +0.000 HD
BRANCH   3   6
ATOM      6  C   UNL     1       3.428   7.618  17.534  0.00  0.00    +0.000 C 
ATOM      7  C   UNL     1       2.568   6.934  18.582  0.00  0.00    +0.000 C 
ENDBRANCH   3   6
ENDBRANCH   1   2
BRANCH   1   8
ATOM      8  C   UNL     1       7.664   5.497  18.976  0.00  0.00    +0.000 C 
ATOM      9  F   UNL     1       8.381   6.640  19.015  0.00  0.00    +0.000 F 
ATOM     10  F   UNL     1       7.205   5.238  20.225  0.00  0.00    +0.000 F 
ATOM     11  F   UNL     1       8.568   4.500  18.719  0.00  0.00    +0.000 F 
ENDBRANCH   1   8
BRANCH   1  12
ATOM     12  C   UNL     1       7.254   5.808  16.546  0.00  0.00    +0.000 C 
ATOM     13  O   UNL     1       7.645   6.932  16.232  0.00  0.00    +0.000 OA
BRANCH  12  14
ATOM     14  O   UNL     1       7.401   4.730  15.719  0.00  0.00    +0.000 OA
BRANCH  14  16
ATOM     15  C   UNL     1       6.164   3.917  13.843  0.00  0.00    +0.000 C 
ATOM     16  C   UNL     1       7.135   4.973  14.327  0.00  0.00    +0.000 C 
ENDBRANCH  14  16
ENDBRANCH  12  14
ENDBRANCH   1  12
BRANCH   1  17
ATOM     17  N   UNL     1       5.863   4.110  17.886  0.00  0.00    +0.000 N 
ATOM     18  H   UNL     1       6.137   3.536  17.082  0.00  0.00    +0.000 HD
BRANCH  17  19
ATOM     19  C   UNL     1       4.635   3.728  18.423  0.00  0.00    +0.000 A 
ATOM     20  C   UNL     1       4.412   3.531  19.787  0.00  0.00    +0.000 A 
ATOM     21  C   UNL     1       3.188   3.026  20.247  0.00  0.00    +0.000 A 
ATOM     22  C   UNL     1       2.186   2.708  19.336  0.00  0.00    +0.000 A 
ATOM     23  F   UNL     1       1.030   2.196  19.779  0.00  0.00    +0.000 F 
ATOM     24  C   UNL     1       2.371   2.899  17.978  0.00  0.00    +0.000 A 
ATOM     25  C   UNL     1       3.591   3.403  17.540  0.00  0.00    +0.000 A 
ATOM     26  F   UNL     1       3.770   3.579  16.220  0.00  0.00    +0.000 F 
ENDBRANCH  17  19
ENDBRANCH   1  17
TORSDOF 8
ENDMDL
MODEL 5
REMARK VINA RESULT:      -6.8      1.061      1.574
REMARK  Name = 
REMARK  10 active torsions:
REMARK  status: ('A' for Active; 'I' for Inactive)
REMARK    1  A    between atoms: C_1  and  C_2
REMARK    2  A    between atoms: C_2  and  O_3
REMARK    3  A    between atoms: O_3  and  C_4
REMARK    4  A    between atoms: C_4  and  C_6
REMARK    5  A    between atoms: C_6  and  N_7
REMARK    6  A    between atoms: C_6  and  N_12
REMARK    7  A    between atoms: C_6  and  C_21
REMARK    8  A    between atoms: C_8  and  C_10
REMARK    9  A    between atoms: C_10  and  C_11
REMARK   10  A    between atoms: N_12  and  C_13
REMARK                            x       y       z     vdW  Elec       q    Type
REMARK                         _______ _______ _______ _____ _____    ______ ____
ROOT
ATOM      1  C   UNL     1       5.367   5.033  17.014  0.00  0.00    +0.000 C 
ENDROOT
BRANCH   1   2
ATOM      2  N   UNL     1       5.399   5.126  15.556  0.00  0.00    +0.000 N 
ATOM      3  C   UNL     1       6.090   4.225  14.792  0.00  0.00    +0.000 C 
ATOM      4  O   UNL     1       6.721   3.298  15.279  0.00  0.00    +0.000 OA
ATOM      5  H   UNL     1       5.169   6.034  15.182  0.00  0.00    +0.000 HD
BRANCH   3   6
ATOM      6  C   UNL     1       5.994   4.495  13.307  0.00  0.00    +0.000 C 
ATOM      7  C   UNL     1       5.159   3.433  12.614  0.00  0.00    +0.000 C 
ENDBRANCH   3   6
ENDBRANCH   1   2
BRANCH   1   8
ATOM      8  C   UNL     1       4.509   6.131  17.758  0.00  0.00    +0.000 C 
ATOM      9  F   UNL     1       4.534   6.063  19.106  0.00  0.00    +0.000 F 
ATOM     10  F   UNL     1       4.827   7.395  17.388  0.00  0.00    +0.000 F 
ATOM     11  F   UNL     1       3.194   5.981  17.403  0.00  0.00    +0.000 F 
ENDBRANCH   1   8
BRANCH   1  12
ATOM     12  C   UNL     1       6.794   5.166  17.621  0.00  0.00    +0.000 C 
ATOM     13  O   UNL     1       7.296   4.382  18.425  0.00  0.00    +0.000 OA
BRANCH  12  14
ATOM     14  O   UNL     1       7.453   6.281  17.186  0.00  0.00    +0.000 OA
BRANCH  14  16
ATOM     15  C   UNL     1       7.924   8.566  17.704  0.00  0.00    +0.000 C 
ATOM     16  C   UNL     1       7.968   7.142  18.216  0.00  0.00    +0.000 C 
ENDBRANCH  14  16
ENDBRANCH  12  14
ENDBRANCH   1  12
BRANCH   1  17
ATOM     17  N   UNL     1       4.735   3.685  17.194  0.00  0.00    +0.000 N 
ATOM     18  H   UNL     1       4.824   3.100  16.355  0.00  0.00    +0.000 HD
BRANCH  17  19
ATOM     19  C   UNL     1       3.667   3.301  18.002  0.00  0.00    +0.000 A 
ATOM     20  C   UNL     1       2.342   3.251  17.566  0.00  0.00    +0.000 A 
ATOM     21  C   UNL     1       1.301   2.977  18.464  0.00  0.00    +0.000 A 
ATOM     22  C   UNL     1       1.588   2.763  19.808  0.00  0.00    +0.000 A 
ATOM     23  F   UNL     1       0.587   2.533  20.668  0.00  0.00    +0.000 F 
ATOM     24  C   UNL     1       2.891   2.797  20.273  0.00  0.00    +0.000 A 
ATOM     25  C   UNL     1       3.911   3.068  19.367  0.00  0.00    +0.000 A 
ATOM     26  F   UNL     1       5.174   3.109  19.823  0.00  0.00    +0.000 F 
ENDBRANCH  17  19
ENDBRANCH   1  17
TORSDOF 8
ENDMDL
MODEL 6
REMARK VINA RESULT:      -6.8      1.965      3.687
REMARK  Name = 
REMARK  10 active torsions:
REMARK  status: ('A' for Active; 'I' for Inactive)
REMARK    1  A    between atoms: C_1  and  C_2
REMARK    2  A    between atoms: C_2  and  O_3
REMARK    3  A    between atoms: O_3  and  C_4
REMARK    4  A    between atoms: C_4  and  C_6
REMARK    5  A    between atoms: C_6  and  N_7
REMARK    6  A    between atoms: C_6  and  N_12
REMARK    7  A    between atoms: C_6  and  C_21
REMARK    8  A    between atoms: C_8  and  C_10
REMARK    9  A    between atoms: C_10  and  C_11
REMARK   10  A    between atoms: N_12  and  C_13
REMARK                            x       y       z     vdW  Elec       q    Type
REMARK                         _______ _______ _______ _____ _____    ______ ____
ROOT
ATOM      1  C   UNL     1       5.984   4.790  17.119  0.00  0.00    +0.000 C 
ENDROOT
BRANCH   1   2
ATOM      2  N   UNL     1       4.865   5.700  17.355  0.00  0.00    +0.000 N 
ATOM      3  C   UNL     1       4.921   7.019  16.992  0.00  0.00    +0.000 C 
ATOM      4  O   UNL     1       5.903   7.512  16.456  0.00  0.00    +0.000 OA
ATOM      5  H   UNL     1       4.212   5.398  18.061  0.00  0.00    +0.000 HD
BRANCH   3   6
ATOM      6  C   UNL     1       3.661   7.788  17.319  0.00  0.00    +0.000 C 
ATOM      7  C   UNL     1       2.716   6.953  18.164  0.00  0.00    +0.000 C 
ENDBRANCH   3   6
ENDBRANCH   1   2
BRANCH   1   8
ATOM      8  C   UNL     1       7.286   5.060  17.971  0.00  0.00    +0.000 C 
ATOM      9  F   UNL     1       8.239   4.107  17.881  0.00  0.00    +0.000 F 
ATOM     10  F   UNL     1       7.856   6.260  17.706  0.00  0.00    +0.000 F 
ATOM     11  F   UNL     1       6.944   5.118  19.297  0.00  0.00    +0.000 F 
ENDBRANCH   1   8
BRANCH   1  12
ATOM     12  C   UNL     1       6.459   4.851  15.638  0.00  0.00    +0.000 C 
ATOM     13  O   UNL     1       7.510   5.363  15.254  0.00  0.00    +0.000 OA
BRANCH  12  14
ATOM     14  O   UNL     1       5.566   4.288  14.771  0.00  0.00    +0.000 OA
BRANCH  14  16
ATOM     15  C   UNL     1       5.019   3.623  12.542  0.00  0.00    +0.000 C 
ATOM     16  C   UNL     1       6.128   3.741  13.565  0.00  0.00    +0.000 C 
ENDBRANCH  14  16
ENDBRANCH  12  14
ENDBRANCH   1  12
BRANCH   1  17
ATOM     17  N   UNL     1       5.371   3.483  17.524  0.00  0.00    +0.000 N 
ATOM     18  H   UNL     1       5.496   2.758  16.810  0.00  0.00    +0.000 HD
BRANCH  17  19
ATOM     19  C   UNL     1       4.286   3.228  18.361  0.00  0.00    +0.000 A 
ATOM     20  C   UNL     1       4.404   2.964  19.727  0.00  0.00    +0.000 A 
ATOM     21  C   UNL     1       3.284   2.593  20.484  0.00  0.00    +0.000 A 
ATOM     22  C   UNL     1       2.043   2.477  19.869  0.00  0.00    +0.000 A 
ATOM     23  F   UNL     1       0.982   2.091  20.591  0.00  0.00    +0.000 F 
ATOM     24  C   UNL     1       1.888   2.739  18.519  0.00  0.00    +0.000 A 
ATOM     25  C   UNL     1       3.010   3.109  17.783  0.00  0.00    +0.000 A 
ATOM     26  F   UNL     1       2.859   3.354  16.471  0.00  0.00    +0.000 F 
ENDBRANCH  17  19
ENDBRANCH   1  17
TORSDOF 8
ENDMDL
MODEL 7
REMARK VINA RESULT:      -6.7      1.548      2.080
REMARK  Name = 
REMARK  10 active torsions:
REMARK  status: ('A' for Active; 'I' for Inactive)
REMARK    1  A    between atoms: C_1  and  C_2
REMARK    2  A    between atoms: C_2  and  O_3
REMARK    3  A    between atoms: O_3  and  C_4
REMARK    4  A    between atoms: C_4  and  C_6
REMARK    5  A    between atoms: C_6  and  N_7
REMARK    6  A    between atoms: C_6  and  N_12
REMARK    7  A    between atoms: C_6  and  C_21
REMARK    8  A    between atoms: C_8  and  C_10
REMARK    9  A    between atoms: C_10  and  C_11
REMARK   10  A    between atoms: N_12  and  C_13
REMARK                            x       y       z     vdW  Elec       q    Type
REMARK                         _______ _______ _______ _____ _____    ______ ____
ROOT
ATOM      1  C   UNL     1       5.812   4.410  16.839  0.00  0.00    +0.000 C 
ENDROOT
BRANCH   1   2
ATOM      2  N   UNL     1       6.058   4.033  15.449  0.00  0.00    +0.000 N 
ATOM      3  C   UNL     1       6.904   4.750  14.647  0.00  0.00    +0.000 C 
ATOM      4  O   UNL     1       7.496   5.745  15.040  0.00  0.00    +0.000 OA
ATOM      5  H   UNL     1       5.354   3.439  15.037  0.00  0.00    +0.000 HD
BRANCH   3   6
ATOM      6  C   UNL     1       7.025   4.193  13.247  0.00  0.00    +0.000 C 
ATOM      7  C   UNL     1       5.734   3.521  12.814  0.00  0.00    +0.000 C 
ENDBRANCH   3   6
ENDBRANCH   1   2
BRANCH   1   8
ATOM      8  C   UNL     1       5.116   5.811  17.062  0.00  0.00    +0.000 C 
ATOM      9  F   UNL     1       4.541   5.980  18.272  0.00  0.00    +0.000 F 
ATOM     10  F   UNL     1       5.944   6.859  16.832  0.00  0.00    +0.000 F 
ATOM     11  F   UNL     1       4.105   5.954  16.147  0.00  0.00    +0.000 F 
ENDBRANCH   1   8
BRANCH   1  12
ATOM     12  C   UNL     1       7.140   4.495  17.646  0.00  0.00    +0.000 C 
ATOM     13  O   UNL     1       8.238   4.114  17.242  0.00  0.00    +0.000 OA
BRANCH  12  14
ATOM     14  O   UNL     1       6.970   5.026  18.893  0.00  0.00    +0.000 OA
BRANCH  14  16
ATOM     15  C   UNL     1       8.159   7.083  18.642  0.00  0.00    +0.000 C 
ATOM     16  C   UNL     1       8.082   5.779  19.407  0.00  0.00    +0.000 C 
ENDBRANCH  14  16
ENDBRANCH  12  14
ENDBRANCH   1  12
BRANCH   1  17
ATOM     17  N   UNL     1       4.890   3.309  17.269  0.00  0.00    +0.000 N 
ATOM     18  H   UNL     1       4.920   2.507  16.630  0.00  0.00    +0.000 HD
BRANCH  17  19
ATOM     19  C   UNL     1       3.700   3.374  17.991  0.00  0.00    +0.000 A 
ATOM     20  C   UNL     1       2.459   3.660  17.418  0.00  0.00    +0.000 A 
ATOM     21  C   UNL     1       1.322   3.832  18.220  0.00  0.00    +0.000 A 
ATOM     22  C   UNL     1       1.430   3.727  19.603  0.00  0.00    +0.000 A 
ATOM     23  F   UNL     1       0.347   3.924  20.366  0.00  0.00    +0.000 F 
ATOM     24  C   UNL     1       2.643   3.436  20.203  0.00  0.00    +0.000 A 
ATOM     25  C   UNL     1       3.760   3.266  19.391  0.00  0.00    +0.000 A 
ATOM     26  F   UNL     1       4.937   2.992  19.977  0.00  0.00    +0.000 F 
ENDBRANCH  17  19
ENDBRANCH   1  17
TORSDOF 8
ENDMDL
MODEL 8
REMARK VINA RESULT:      -6.7      1.263      2.037
REMARK  Name = 
REMARK  10 active torsions:
REMARK  status: ('A' for Active; 'I' for Inactive)
REMARK    1  A    between atoms: C_1  and  C_2
REMARK    2  A    between atoms: C_2  and  O_3
REMARK    3  A    between atoms: O_3  and  C_4
REMARK    4  A    between atoms: C_4  and  C_6
REMARK    5  A    between atoms: C_6  and  N_7
REMARK    6  A    between atoms: C_6  and  N_12
REMARK    7  A    between atoms: C_6  and  C_21
REMARK    8  A    between atoms: C_8  and  C_10
REMARK    9  A    between atoms: C_10  and  C_11
REMARK   10  A    between atoms: N_12  and  C_13
REMARK                            x       y       z     vdW  Elec       q    Type
REMARK                         _______ _______ _______ _____ _____    ______ ____
ROOT
ATOM      1  C   UNL     1       5.460   5.172  16.649  0.00  0.00    +0.000 C 
ENDROOT
BRANCH   1   2
ATOM      2  N   UNL     1       5.092   5.038  15.242  0.00  0.00    +0.000 N 
ATOM      3  C   UNL     1       5.661   4.091  14.435  0.00  0.00    +0.000 C 
ATOM      4  O   UNL     1       6.509   3.307  14.839  0.00  0.00    +0.000 OA
ATOM      5  H   UNL     1       4.659   5.854  14.835  0.00  0.00    +0.000 HD
BRANCH   3   6
ATOM      6  C   UNL     1       5.140   4.115  13.016  0.00  0.00    +0.000 C 
ATOM      7  C   UNL     1       5.913   3.149  12.135  0.00  0.00    +0.000 C 
ENDBRANCH   3   6
ENDBRANCH   1   2
BRANCH   1   8
ATOM      8  C   UNL     1       4.698   6.294  17.460  0.00  0.00    +0.000 C 
ATOM      9  F   UNL     1       5.186   7.544  17.307  0.00  0.00    +0.000 F 
ATOM     10  F   UNL     1       3.367   6.321  17.208  0.00  0.00    +0.000 F 
ATOM     11  F   UNL     1       4.798   6.018  18.799  0.00  0.00    +0.000 F 
ENDBRANCH   1   8
BRANCH   1  12
ATOM     12  C   UNL     1       6.968   5.523  16.808  0.00  0.00    +0.000 C 
ATOM     13  O   UNL     1       7.581   6.337  16.119  0.00  0.00    +0.000 OA
BRANCH  12  14
ATOM     14  O   UNL     1       7.577   4.806  17.800  0.00  0.00    +0.000 OA
BRANCH  14  16
ATOM     15  C   UNL     1       8.129   6.962  18.669  0.00  0.00    +0.000 C 
ATOM     16  C   UNL     1       7.826   5.521  19.022  0.00  0.00    +0.000 C 
ENDBRANCH  14  16
ENDBRANCH  12  14
ENDBRANCH   1  12
BRANCH   1  17
ATOM     17  N   UNL     1       5.076   3.819  17.168  0.00  0.00    +0.000 N 
ATOM     18  H   UNL     1       5.485   3.060  16.613  0.00  0.00    +0.000 HD
BRANCH  17  19
ATOM     19  C   UNL     1       3.933   3.420  17.859  0.00  0.00    +0.000 A 
ATOM     20  C   UNL     1       2.662   3.355  17.284  0.00  0.00    +0.000 A 
ATOM     21  C   UNL     1       1.536   3.066  18.067  0.00  0.00    +0.000 A 
ATOM     22  C   UNL     1       1.681   2.851  19.433  0.00  0.00    +0.000 A 
ATOM     23  F   UNL     1       0.597   2.607  20.181  0.00  0.00    +0.000 F 
ATOM     24  C   UNL     1       2.927   2.900  20.034  0.00  0.00    +0.000 A 
ATOM     25  C   UNL     1       4.034   3.185  19.241  0.00  0.00    +0.000 A 
ATOM     26  F   UNL     1       5.241   3.240  19.829  0.00  0.00    +0.000 F 
ENDBRANCH  17  19
ENDBRANCH   1  17
TORSDOF 8
ENDMDL
MODEL 9
REMARK VINA RESULT:      -6.7      2.550      5.815
REMARK  Name = 
REMARK  10 active torsions:
REMARK  status: ('A' for Active; 'I' for Inactive)
REMARK    1  A    between atoms: C_1  and  C_2
REMARK    2  A    between atoms: C_2  and  O_3
REMARK    3  A    between atoms: O_3  and  C_4
REMARK    4  A    between atoms: C_4  and  C_6
REMARK    5  A    between atoms: C_6  and  N_7
REMARK    6  A    between atoms: C_6  and  N_12
REMARK    7  A    between atoms: C_6  and  C_21
REMARK    8  A    between atoms: C_8  and  C_10
REMARK    9  A    between atoms: C_10  and  C_11
REMARK   10  A    between atoms: N_12  and  C_13
REMARK                            x       y       z     vdW  Elec       q    Type
REMARK                         _______ _______ _______ _____ _____    ______ ____
ROOT
ATOM      1  C   UNL     1       3.572   3.862  18.773  0.00  0.00    +0.000 C 
ENDROOT
BRANCH   1   2
ATOM      2  N   UNL     1       3.193   5.136  19.379  0.00  0.00    +0.000 N 
ATOM      3  C   UNL     1       2.620   6.140  18.645  0.00  0.00    +0.000 C 
ATOM      4  O   UNL     1       2.398   6.034  17.447  0.00  0.00    +0.000 OA
ATOM      5  H   UNL     1       3.653   5.348  20.251  0.00  0.00    +0.000 HD
BRANCH   3   6
ATOM      6  C   UNL     1       2.299   7.373  19.458  0.00  0.00    +0.000 C 
ATOM      7  C   UNL     1       1.985   8.554  18.557  0.00  0.00    +0.000 C 
ENDBRANCH   3   6
ENDBRANCH   1   2
BRANCH   1   8
ATOM      8  C   UNL     1       2.426   3.093  18.004  0.00  0.00    +0.000 C 
ATOM      9  F   UNL     1       2.462   1.748  18.115  0.00  0.00    +0.000 F 
ATOM     10  F   UNL     1       1.183   3.516  18.342  0.00  0.00    +0.000 F 
ATOM     11  F   UNL     1       2.536   3.359  16.664  0.00  0.00    +0.000 F 
ENDBRANCH   1   8
BRANCH   1  12
ATOM     12  C   UNL     1       4.075   2.853  19.847  0.00  0.00    +0.000 C 
ATOM     13  O   UNL     1       4.846   1.919  19.633  0.00  0.00    +0.000 OA
BRANCH  12  14
ATOM     14  O   UNL     1       3.546   3.090  21.085  0.00  0.00    +0.000 OA
BRANCH  14  16
ATOM     15  C   UNL     1       1.218   2.906  21.588  0.00  0.00    +0.000 C 
ATOM     16  C   UNL     1       2.535   2.163  21.517  0.00  0.00    +0.000 C 
ENDBRANCH  14  16
ENDBRANCH  12  14
ENDBRANCH   1  12
BRANCH   1  17
ATOM     17  N   UNL     1       4.622   4.315  17.802  0.00  0.00    +0.000 N 
ATOM     18  H   UNL     1       4.742   3.655  17.026  0.00  0.00    +0.000 HD
BRANCH  17  19
ATOM     19  C   UNL     1       5.751   5.104  18.013  0.00  0.00    +0.000 A 
ATOM     20  C   UNL     1       6.629   4.932  19.085  0.00  0.00    +0.000 A 
ATOM     21  C   UNL     1       7.674   5.839  19.308  0.00  0.00    +0.000 A 
ATOM     22  C   UNL     1       7.835   6.928  18.458  0.00  0.00    +0.000 A 
ATOM     23  F   UNL     1       8.817   7.809  18.694  0.00  0.00    +0.000 F 
ATOM     24  C   UNL     1       6.989   7.124  17.381  0.00  0.00    +0.000 A 
ATOM     25  C   UNL     1       5.958   6.213  17.175  0.00  0.00    +0.000 A 
ATOM     26  F   UNL     1       5.132   6.411  16.134  0.00  0.00    +0.000 F 
ENDBRANCH  17  19
ENDBRANCH   1  17
TORSDOF 8
ENDMDL
