MODEL 1
REMARK VINA RESULT:      -9.6      0.000      0.000
REMARK  Name = 
REMARK  6 active torsions:
REMARK  status: ('A' for Active; 'I' for Inactive)
REMARK    1  A    between atoms: C_1  and  C_2
REMARK    2  A    between atoms: C_2  and  C_3
REMARK    3  A    between atoms: N_7  and  C_8
REMARK    4  A    between atoms: C_11  and  C_12
REMARK    5  A    between atoms: N_14  and  C_15
REMARK    6  A    between atoms: C_27  and  C_28
REMARK                            x       y       z     vdW  Elec       q    Type
REMARK                         _______ _______ _______ _____ _____    ______ ____
ROOT
ATOM      1  C   UNL     1       2.352   6.112  19.261  0.00  0.00    +0.000 A 
ATOM      2  C   UNL     1       1.955   6.886  20.346  0.00  0.00    +0.000 A 
ATOM      3  C   UNL     1       1.590   8.217  20.142  0.00  0.00    +0.000 A 
ATOM      4  C   UNL     1       1.664   8.822  18.871  0.00  0.00    +0.000 A 
ATOM      5  C   UNL     1       2.106   8.057  17.792  0.00  0.00    +0.000 A 
ATOM      6  C   UNL     1       2.423   6.703  17.987  0.00  0.00    +0.000 A 
ENDROOT
BRANCH   1  13
ATOM      7  C   UNL     1       4.743   1.844  20.211  0.00  0.00    +0.000 C 
ATOM      8  C   UNL     1       3.761   2.729  19.450  0.00  0.00    +0.000 C 
ATOM      9  C   UNL     1       3.582   2.219  18.012  0.00  0.00    +0.000 C 
ATOM     10  O   UNL     1       2.464   2.618  20.076  0.00  0.00    +0.000 OA
ATOM     11  C   UNL     1       1.812   3.812  19.882  0.00  0.00    +0.000 C 
ATOM     12  O   UNL     1       0.630   3.966  20.145  0.00  0.00    +0.000 OA
ATOM     13  N   UNL     1       2.716   4.761  19.410  0.00  0.00    +0.000 N 
ATOM     14  C   UNL     1       4.050   4.238  19.586  0.00  0.00    +0.000 C 
BRANCH  14  15
ATOM     15  C   UNL     1       5.149   4.785  18.690  0.00  0.00    +0.000 A 
ATOM     16  C   UNL     1       6.249   5.445  19.271  0.00  0.00    +0.000 A 
ATOM     17  C   UNL     1       7.269   5.981  18.478  0.00  0.00    +0.000 A 
ATOM     18  C   UNL     1       7.212   5.861  17.093  0.00  0.00    +0.000 A 
ATOM     19  C   UNL     1       6.139   5.196  16.500  0.00  0.00    +0.000 A 
ATOM     20  C   UNL     1       5.122   4.658  17.293  0.00  0.00    +0.000 A 
ENDBRANCH  14  15
ENDBRANCH   1  13
BRANCH   4  21
ATOM     21  C   UNL     1       1.277  10.259  18.795  0.00  0.00    +0.000 C 
ATOM     22  O   UNL     1       2.085  11.018  18.267  0.00  0.00    +0.000 OA
ATOM     23  N   UNL     1       0.082  10.676  19.388  0.00  0.00    +0.000 N 
ATOM     24  H   UNL     1      -0.411  10.061  20.027  0.00  0.00    +0.000 HD
BRANCH  23  25
ATOM     25  C   UNL     1      -0.284  12.053  19.524  0.00  0.00    +0.000 A 
ATOM     26  C   UNL     1      -0.112  12.966  18.474  0.00  0.00    +0.000 A 
ATOM     27  C   UNL     1      -0.296  14.327  18.667  0.00  0.00    +0.000 A 
ATOM     28  C   UNL     1      -0.645  14.795  19.925  0.00  0.00    +0.000 A 
ATOM     29  C   UNL     1      -0.858  13.891  20.977  0.00  0.00    +0.000 A 
ATOM     30  C   UNL     1      -1.145  14.370  22.259  0.00  0.00    +0.000 A 
ATOM     31  C   UNL     1      -1.376  13.473  23.292  0.00  0.00    +0.000 A 
ATOM     32  C   UNL     1      -1.334  12.124  22.998  0.00  0.00    +0.000 A 
ATOM     33  N   UNL     1      -1.009  11.618  21.783  0.00  0.00    +0.000 NA
ATOM     34  C   UNL     1      -0.746  12.495  20.778  0.00  0.00    +0.000 A 
ENDBRANCH  23  25
ENDBRANCH   4  21
TORSDOF 4
ENDMDL
MODEL 2
REMARK VINA RESULT:      -9.4      1.142      1.161
REMARK  Name = 
REMARK  6 active torsions:
REMARK  status: ('A' for Active; 'I' for Inactive)
REMARK    1  A    between atoms: C_1  and  C_2
REMARK    2  A    between atoms: C_2  and  C_3
REMARK    3  A    between atoms: N_7  and  C_8
REMARK    4  A    between atoms: C_11  and  C_12
REMARK    5  A    between atoms: N_14  and  C_15
REMARK    6  A    between atoms: C_27  and  C_28
REMARK                            x       y       z     vdW  Elec       q    Type
REMARK                         _______ _______ _______ _____ _____    ______ ____
ROOT
ATOM      1  C   UNL     1       2.261   6.245  19.481  0.00  0.00    +0.000 A 
ATOM      2  C   UNL     1       1.897   6.847  20.680  0.00  0.00    +0.000 A 
ATOM      3  C   UNL     1       1.487   8.181  20.682  0.00  0.00    +0.000 A 
ATOM      4  C   UNL     1       1.484   8.959  19.507  0.00  0.00    +0.000 A 
ATOM      5  C   UNL     1       1.894   8.367  18.313  0.00  0.00    +0.000 A 
ATOM      6  C   UNL     1       2.255   7.009  18.301  0.00  0.00    +0.000 A 
ENDROOT
BRANCH   1  13
ATOM      7  C   UNL     1       4.780   1.956  19.789  0.00  0.00    +0.000 C 
ATOM      8  C   UNL     1       3.778   2.919  19.161  0.00  0.00    +0.000 C 
ATOM      9  C   UNL     1       3.630   2.636  17.657  0.00  0.00    +0.000 C 
ATOM     10  O   UNL     1       2.478   2.671  19.741  0.00  0.00    +0.000 OA
ATOM     11  C   UNL     1       1.791   3.861  19.726  0.00  0.00    +0.000 C 
ATOM     12  O   UNL     1       0.601   3.935  19.991  0.00  0.00    +0.000 OA
ATOM     13  N   UNL     1       2.668   4.900  19.423  0.00  0.00    +0.000 N 
ATOM     14  C   UNL     1       4.016   4.397  19.535  0.00  0.00    +0.000 C 
BRANCH  14  15
ATOM     15  C   UNL     1       5.106   5.111  18.753  0.00  0.00    +0.000 A 
ATOM     16  C   UNL     1       6.352   5.350  19.364  0.00  0.00    +0.000 A 
ATOM     17  C   UNL     1       7.371   6.023  18.684  0.00  0.00    +0.000 A 
ATOM     18  C   UNL     1       7.168   6.463  17.380  0.00  0.00    +0.000 A 
ATOM     19  C   UNL     1       5.947   6.221  16.751  0.00  0.00    +0.000 A 
ATOM     20  C   UNL     1       4.930   5.545  17.430  0.00  0.00    +0.000 A 
ENDBRANCH  14  15
ENDBRANCH   1  13
BRANCH   4  21
ATOM     21  C   UNL     1       1.056  10.379  19.651  0.00  0.00    +0.000 C 
ATOM     22  O   UNL     1       0.920  11.020  18.612  0.00  0.00    +0.000 OA
ATOM     23  N   UNL     1       0.913  10.922  20.931  0.00  0.00    +0.000 N 
ATOM     24  H   UNL     1       1.285  10.430  21.736  0.00  0.00    +0.000 HD
BRANCH  23  25
ATOM     25  C   UNL     1       0.684  12.315  21.167  0.00  0.00    +0.000 A 
ATOM     26  C   UNL     1       1.600  13.291  20.752  0.00  0.00    +0.000 A 
ATOM     27  C   UNL     1       1.465  14.616  21.140  0.00  0.00    +0.000 A 
ATOM     28  C   UNL     1       0.412  14.980  21.965  0.00  0.00    +0.000 A 
ATOM     29  C   UNL     1      -0.536  14.022  22.359  0.00  0.00    +0.000 A 
ATOM     30  C   UNL     1      -1.559  14.377  23.243  0.00  0.00    +0.000 A 
ATOM     31  C   UNL     1      -2.505  13.433  23.614  0.00  0.00    +0.000 A 
ATOM     32  C   UNL     1      -2.407  12.169  23.066  0.00  0.00    +0.000 A 
ATOM     33  N   UNL     1      -1.403  11.769  22.247  0.00  0.00    +0.000 NA
ATOM     34  C   UNL     1      -0.453  12.682  21.912  0.00  0.00    +0.000 A 
ENDBRANCH  23  25
ENDBRANCH   4  21
TORSDOF 4
ENDMDL
MODEL 3
REMARK VINA RESULT:      -9.3      6.590     10.789
REMARK  Name = 
REMARK  6 active torsions:
REMARK  status: ('A' for Active; 'I' for Inactive)
REMARK    1  A    between atoms: C_1  and  C_2
REMARK    2  A    between atoms: C_2  and  C_3
REMARK    3  A    between atoms: N_7  and  C_8
REMARK    4  A    between atoms: C_11  and  C_12
REMARK    5  A    between atoms: N_14  and  C_15
REMARK    6  A    between atoms: C_27  and  C_28
REMARK                            x       y       z     vdW  Elec       q    Type
REMARK                         _______ _______ _______ _____ _____    ______ ____
ROOT
ATOM      1  C   UNL     1       9.464  11.913  18.557  0.00  0.00    +0.000 A 
ATOM      2  C   UNL     1       9.901  10.840  19.326  0.00  0.00    +0.000 A 
ATOM      3  C   UNL     1       9.357   9.573  19.109  0.00  0.00    +0.000 A 
ATOM      4  C   UNL     1       8.331   9.357  18.167  0.00  0.00    +0.000 A 
ATOM      5  C   UNL     1       7.861  10.443  17.429  0.00  0.00    +0.000 A 
ATOM      6  C   UNL     1       8.446  11.707  17.610  0.00  0.00    +0.000 A 
ENDROOT
BRANCH   1  13
ATOM      7  C   UNL     1      11.433  16.112  20.380  0.00  0.00    +0.000 C 
ATOM      8  C   UNL     1      10.551  15.307  19.432  0.00  0.00    +0.000 C 
ATOM      9  C   UNL     1       9.380  16.165  18.928  0.00  0.00    +0.000 C 
ATOM     10  O   UNL     1      11.327  14.967  18.262  0.00  0.00    +0.000 OA
ATOM     11  C   UNL     1      10.841  13.775  17.781  0.00  0.00    +0.000 C 
ATOM     12  O   UNL     1      11.178  13.315  16.701  0.00  0.00    +0.000 OA
ATOM     13  N   UNL     1       9.990  13.206  18.726  0.00  0.00    +0.000 N 
ATOM     14  C   UNL     1      10.165  13.914  19.972  0.00  0.00    +0.000 C 
BRANCH  14  15
ATOM     15  C   UNL     1       9.021  13.885  20.971  0.00  0.00    +0.000 A 
ATOM     16  C   UNL     1       9.241  13.364  22.260  0.00  0.00    +0.000 A 
ATOM     17  C   UNL     1       8.206  13.300  23.199  0.00  0.00    +0.000 A 
ATOM     18  C   UNL     1       6.936  13.762  22.869  0.00  0.00    +0.000 A 
ATOM     19  C   UNL     1       6.701  14.297  21.603  0.00  0.00    +0.000 A 
ATOM     20  C   UNL     1       7.737  14.363  20.667  0.00  0.00    +0.000 A 
ENDBRANCH  14  15
ENDBRANCH   1  13
BRANCH   4  21
ATOM     21  C   UNL     1       7.814   7.963  18.056  0.00  0.00    +0.000 C 
ATOM     22  O   UNL     1       8.332   7.125  18.788  0.00  0.00    +0.000 OA
ATOM     23  N   UNL     1       6.847   7.669  17.091  0.00  0.00    +0.000 N 
ATOM     24  H   UNL     1       6.647   8.335  16.351  0.00  0.00    +0.000 HD
BRANCH  23  25
ATOM     25  C   UNL     1       6.424   6.336  16.789  0.00  0.00    +0.000 A 
ATOM     26  C   UNL     1       7.169   5.503  15.942  0.00  0.00    +0.000 A 
ATOM     27  C   UNL     1       6.667   4.284  15.509  0.00  0.00    +0.000 A 
ATOM     28  C   UNL     1       5.401   3.887  15.911  0.00  0.00    +0.000 A 
ATOM     29  C   UNL     1       4.658   4.692  16.789  0.00  0.00    +0.000 A 
ATOM     30  C   UNL     1       3.357   4.321  17.141  0.00  0.00    +0.000 A 
ATOM     31  C   UNL     1       2.633   5.108  18.025  0.00  0.00    +0.000 A 
ATOM     32  C   UNL     1       3.249   6.228  18.546  0.00  0.00    +0.000 A 
ATOM     33  N   UNL     1       4.488   6.651  18.193  0.00  0.00    +0.000 NA
ATOM     34  C   UNL     1       5.185   5.903  17.298  0.00  0.00    +0.000 A 
ENDBRANCH  23  25
ENDBRANCH   4  21
TORSDOF 4
ENDMDL
MODEL 4
REMARK VINA RESULT:      -9.3      1.162      1.455
REMARK  Name = 
REMARK  6 active torsions:
REMARK  status: ('A' for Active; 'I' for Inactive)
REMARK    1  A    between atoms: C_1  and  C_2
REMARK    2  A    between atoms: C_2  and  C_3
REMARK    3  A    between atoms: N_7  and  C_8
REMARK    4  A    between atoms: C_11  and  C_12
REMARK    5  A    between atoms: N_14  and  C_15
REMARK    6  A    between atoms: C_27  and  C_28
REMARK                            x       y       z     vdW  Elec       q    Type
REMARK                         _______ _______ _______ _____ _____    ______ ____
ROOT
ATOM      1  C   UNL     1       2.275   6.426  19.409  0.00  0.00    +0.000 A 
ATOM      2  C   UNL     1       2.200   7.198  18.255  0.00  0.00    +0.000 A 
ATOM      3  C   UNL     1       1.793   8.530  18.345  0.00  0.00    +0.000 A 
ATOM      4  C   UNL     1       1.399   9.105  19.570  0.00  0.00    +0.000 A 
ATOM      5  C   UNL     1       1.432   8.316  20.719  0.00  0.00    +0.000 A 
ATOM      6  C   UNL     1       1.892   6.991  20.637  0.00  0.00    +0.000 A 
ENDROOT
BRANCH   1  13
ATOM      7  C   UNL     1       4.813   2.159  19.838  0.00  0.00    +0.000 C 
ATOM      8  C   UNL     1       3.828   3.110  19.166  0.00  0.00    +0.000 C 
ATOM      9  C   UNL     1       3.739   2.817  17.660  0.00  0.00    +0.000 C 
ATOM     10  O   UNL     1       2.509   2.856  19.699  0.00  0.00    +0.000 OA
ATOM     11  C   UNL     1       1.813   4.040  19.651  0.00  0.00    +0.000 C 
ATOM     12  O   UNL     1       0.615   4.107  19.871  0.00  0.00    +0.000 OA
ATOM     13  N   UNL     1       2.693   5.084  19.374  0.00  0.00    +0.000 N 
ATOM     14  C   UNL     1       4.040   4.592  19.540  0.00  0.00    +0.000 C 
BRANCH  14  15
ATOM     15  C   UNL     1       5.154   5.310  18.795  0.00  0.00    +0.000 A 
ATOM     16  C   UNL     1       6.431   5.398  19.380  0.00  0.00    +0.000 A 
ATOM     17  C   UNL     1       7.475   6.070  18.735  0.00  0.00    +0.000 A 
ATOM     18  C   UNL     1       7.263   6.658  17.492  0.00  0.00    +0.000 A 
ATOM     19  C   UNL     1       6.009   6.567  16.889  0.00  0.00    +0.000 A 
ATOM     20  C   UNL     1       4.968   5.892  17.532  0.00  0.00    +0.000 A 
ENDBRANCH  14  15
ENDBRANCH   1  13
BRANCH   4  21
ATOM     21  C   UNL     1       0.955  10.527  19.524  0.00  0.00    +0.000 C 
ATOM     22  O   UNL     1       0.219  10.842  18.593  0.00  0.00    +0.000 OA
ATOM     23  N   UNL     1       1.449  11.427  20.472  0.00  0.00    +0.000 N 
ATOM     24  H   UNL     1       2.243  11.172  21.050  0.00  0.00    +0.000 HD
BRANCH  23  25
ATOM     25  C   UNL     1       1.224  12.839  20.400  0.00  0.00    +0.000 A 
ATOM     26  C   UNL     1       1.891  13.643  19.466  0.00  0.00    +0.000 A 
ATOM     27  C   UNL     1       1.808  15.027  19.519  0.00  0.00    +0.000 A 
ATOM     28  C   UNL     1       1.062  15.626  20.522  0.00  0.00    +0.000 A 
ATOM     29  C   UNL     1       0.357  14.835  21.442  0.00  0.00    +0.000 A 
ATOM     30  C   UNL     1      -0.341  15.441  22.491  0.00  0.00    +0.000 A 
ATOM     31  C   UNL     1      -1.052  14.657  23.387  0.00  0.00    +0.000 A 
ATOM     32  C   UNL     1      -1.061  13.291  23.186  0.00  0.00    +0.000 A 
ATOM     33  N   UNL     1      -0.357  12.659  22.214  0.00  0.00    +0.000 NA
ATOM     34  C   UNL     1       0.372  13.423  21.358  0.00  0.00    +0.000 A 
ENDBRANCH  23  25
ENDBRANCH   4  21
TORSDOF 4
ENDMDL
MODEL 5
REMARK VINA RESULT:      -9.3      2.645      4.156
REMARK  Name = 
REMARK  6 active torsions:
REMARK  status: ('A' for Active; 'I' for Inactive)
REMARK    1  A    between atoms: C_1  and  C_2
REMARK    2  A    between atoms: C_2  and  C_3
REMARK    3  A    between atoms: N_7  and  C_8
REMARK    4  A    between atoms: C_11  and  C_12
REMARK    5  A    between atoms: N_14  and  C_15
REMARK    6  A    between atoms: C_27  and  C_28
REMARK                            x       y       z     vdW  Elec       q    Type
REMARK                         _______ _______ _______ _____ _____    ______ ____
ROOT
ATOM      1  C   UNL     1       2.556   7.468  18.605  0.00  0.00    +0.000 A 
ATOM      2  C   UNL     1       2.207   7.531  19.949  0.00  0.00    +0.000 A 
ATOM      3  C   UNL     1       1.277   8.481  20.373  0.00  0.00    +0.000 A 
ATOM      4  C   UNL     1       0.717   9.422  19.485  0.00  0.00    +0.000 A 
ATOM      5  C   UNL     1       1.103   9.387  18.145  0.00  0.00    +0.000 A 
ATOM      6  C   UNL     1       1.999   8.397  17.708  0.00  0.00    +0.000 A 
ENDROOT
BRANCH   1  13
ATOM      7  C   UNL     1       4.750   3.423  16.693  0.00  0.00    +0.000 C 
ATOM      8  C   UNL     1       4.673   4.643  17.605  0.00  0.00    +0.000 C 
ATOM      9  C   UNL     1       5.559   4.444  18.845  0.00  0.00    +0.000 C 
ATOM     10  O   UNL     1       5.224   5.777  16.900  0.00  0.00    +0.000 OA
ATOM     11  C   UNL     1       4.583   6.899  17.367  0.00  0.00    +0.000 C 
ATOM     12  O   UNL     1       4.951   8.030  17.088  0.00  0.00    +0.000 OA
ATOM     13  N   UNL     1       3.477   6.520  18.124  0.00  0.00    +0.000 N 
ATOM     14  C   UNL     1       3.233   5.117  17.891  0.00  0.00    +0.000 C 
BRANCH  14  15
ATOM     15  C   UNL     1       2.481   4.341  18.960  0.00  0.00    +0.000 A 
ATOM     16  C   UNL     1       1.379   3.547  18.590  0.00  0.00    +0.000 A 
ATOM     17  C   UNL     1       0.648   2.836  19.548  0.00  0.00    +0.000 A 
ATOM     18  C   UNL     1       1.010   2.902  20.890  0.00  0.00    +0.000 A 
ATOM     19  C   UNL     1       2.108   3.670  21.274  0.00  0.00    +0.000 A 
ATOM     20  C   UNL     1       2.840   4.376  20.316  0.00  0.00    +0.000 A 
ENDBRANCH  14  15
ENDBRANCH   1  13
BRANCH   4  21
ATOM     21  C   UNL     1      -0.239  10.403  20.071  0.00  0.00    +0.000 C 
ATOM     22  O   UNL     1      -0.541  10.239  21.250  0.00  0.00    +0.000 OA
ATOM     23  N   UNL     1      -0.794  11.389  19.250  0.00  0.00    +0.000 N 
ATOM     24  H   UNL     1      -0.709  11.318  18.242  0.00  0.00    +0.000 HD
BRANCH  23  25
ATOM     25  C   UNL     1      -1.850  12.257  19.676  0.00  0.00    +0.000 A 
ATOM     26  C   UNL     1      -1.630  13.277  20.612  0.00  0.00    +0.000 A 
ATOM     27  C   UNL     1      -2.686  13.994  21.155  0.00  0.00    +0.000 A 
ATOM     28  C   UNL     1      -3.983  13.688  20.775  0.00  0.00    +0.000 A 
ATOM     29  C   UNL     1      -4.218  12.695  19.811  0.00  0.00    +0.000 A 
ATOM     30  C   UNL     1      -5.530  12.343  19.478  0.00  0.00    +0.000 A 
ATOM     31  C   UNL     1      -5.758  11.377  18.511  0.00  0.00    +0.000 A 
ATOM     32  C   UNL     1      -4.661  10.811  17.890  0.00  0.00    +0.000 A 
ATOM     33  N   UNL     1      -3.374  11.085  18.219  0.00  0.00    +0.000 NA
ATOM     34  C   UNL     1      -3.148  12.005  19.193  0.00  0.00    +0.000 A 
ENDBRANCH  23  25
ENDBRANCH   4  21
TORSDOF 4
ENDMDL
MODEL 6
REMARK VINA RESULT:      -9.3      1.013      1.384
REMARK  Name = 
REMARK  6 active torsions:
REMARK  status: ('A' for Active; 'I' for Inactive)
REMARK    1  A    between atoms: C_1  and  C_2
REMARK    2  A    between atoms: C_2  and  C_3
REMARK    3  A    between atoms: N_7  and  C_8
REMARK    4  A    between atoms: C_11  and  C_12
REMARK    5  A    between atoms: N_14  and  C_15
REMARK    6  A    between atoms: C_27  and  C_28
REMARK                            x       y       z     vdW  Elec       q    Type
REMARK                         _______ _______ _______ _____ _____    ______ ____
ROOT
ATOM      1  C   UNL     1       2.490   5.913  19.246  0.00  0.00    +0.000 A 
ATOM      2  C   UNL     1       2.537   6.480  17.978  0.00  0.00    +0.000 A 
ATOM      3  C   UNL     1       2.239   7.834  17.820  0.00  0.00    +0.000 A 
ATOM      4  C   UNL     1       1.834   8.638  18.905  0.00  0.00    +0.000 A 
ATOM      5  C   UNL     1       1.743   8.056  20.169  0.00  0.00    +0.000 A 
ATOM      6  C   UNL     1       2.095   6.706  20.338  0.00  0.00    +0.000 A 
ENDROOT
BRANCH   1  13
ATOM      7  C   UNL     1       4.704   1.597  20.388  0.00  0.00    +0.000 C 
ATOM      8  C   UNL     1       3.750   2.484  19.595  0.00  0.00    +0.000 C 
ATOM      9  C   UNL     1       3.526   1.909  18.188  0.00  0.00    +0.000 C 
ATOM     10  O   UNL     1       2.460   2.465  20.244  0.00  0.00    +0.000 OA
ATOM     11  C   UNL     1       1.859   3.675  19.995  0.00  0.00    +0.000 C 
ATOM     12  O   UNL     1       0.689   3.896  20.266  0.00  0.00    +0.000 OA
ATOM     13  N   UNL     1       2.796   4.557  19.462  0.00  0.00    +0.000 N 
ATOM     14  C   UNL     1       4.108   3.984  19.647  0.00  0.00    +0.000 C 
BRANCH  14  15
ATOM     15  C   UNL     1       5.216   4.434  18.709  0.00  0.00    +0.000 A 
ATOM     16  C   UNL     1       6.294   5.181  19.220  0.00  0.00    +0.000 A 
ATOM     17  C   UNL     1       7.321   5.631  18.384  0.00  0.00    +0.000 A 
ATOM     18  C   UNL     1       7.293   5.336  17.025  0.00  0.00    +0.000 A 
ATOM     19  C   UNL     1       6.243   4.582  16.502  0.00  0.00    +0.000 A 
ATOM     20  C   UNL     1       5.219   4.130  17.339  0.00  0.00    +0.000 A 
ENDBRANCH  14  15
ENDBRANCH   1  13
BRANCH   4  21
ATOM     21  C   UNL     1       1.512  10.059  18.596  0.00  0.00    +0.000 C 
ATOM     22  O   UNL     1       1.846  10.469  17.488  0.00  0.00    +0.000 OA
ATOM     23  N   UNL     1       0.936  10.860  19.586  0.00  0.00    +0.000 N 
ATOM     24  H   UNL     1       0.922  10.544  20.550  0.00  0.00    +0.000 HD
BRANCH  23  25
ATOM     25  C   UNL     1       0.759  12.273  19.444  0.00  0.00    +0.000 A 
ATOM     26  C   UNL     1       1.803  13.105  19.019  0.00  0.00    +0.000 A 
ATOM     27  C   UNL     1       1.683  14.486  19.057  0.00  0.00    +0.000 A 
ATOM     28  C   UNL     1       0.513  15.055  19.535  0.00  0.00    +0.000 A 
ATOM     29  C   UNL     1      -0.557  14.236  19.928  0.00  0.00    +0.000 A 
ATOM     30  C   UNL     1      -1.711  14.810  20.471  0.00  0.00    +0.000 A 
ATOM     31  C   UNL     1      -2.774  13.999  20.840  0.00  0.00    +0.000 A 
ATOM     32  C   UNL     1      -2.654  12.639  20.629  0.00  0.00    +0.000 A 
ATOM     33  N   UNL     1      -1.535  12.037  20.154  0.00  0.00    +0.000 NA
ATOM     34  C   UNL     1      -0.478  12.827  19.827  0.00  0.00    +0.000 A 
ENDBRANCH  23  25
ENDBRANCH   4  21
TORSDOF 4
ENDMDL
MODEL 7
REMARK VINA RESULT:      -9.3      2.265      3.892
REMARK  Name = 
REMARK  6 active torsions:
REMARK  status: ('A' for Active; 'I' for Inactive)
REMARK    1  A    between atoms: C_1  and  C_2
REMARK    2  A    between atoms: C_2  and  C_3
REMARK    3  A    between atoms: N_7  and  C_8
REMARK    4  A    between atoms: C_11  and  C_12
REMARK    5  A    between atoms: N_14  and  C_15
REMARK    6  A    between atoms: C_27  and  C_28
REMARK                            x       y       z     vdW  Elec       q    Type
REMARK                         _______ _______ _______ _____ _____    ______ ____
ROOT
ATOM      1  C   UNL     1       2.504   7.483  18.697  0.00  0.00    +0.000 A 
ATOM      2  C   UNL     1       2.191   7.507  20.051  0.00  0.00    +0.000 A 
ATOM      3  C   UNL     1       1.285   8.455  20.529  0.00  0.00    +0.000 A 
ATOM      4  C   UNL     1       0.716   9.431  19.685  0.00  0.00    +0.000 A 
ATOM      5  C   UNL     1       1.067   9.433  18.335  0.00  0.00    +0.000 A 
ATOM      6  C   UNL     1       1.938   8.446  17.844  0.00  0.00    +0.000 A 
ENDROOT
BRANCH   1  13
ATOM      7  C   UNL     1       4.598   3.459  16.632  0.00  0.00    +0.000 C 
ATOM      8  C   UNL     1       4.565   4.666  17.564  0.00  0.00    +0.000 C 
ATOM      9  C   UNL     1       5.503   4.445  18.762  0.00  0.00    +0.000 C 
ATOM     10  O   UNL     1       5.090   5.809  16.853  0.00  0.00    +0.000 OA
ATOM     11  C   UNL     1       4.475   6.926  17.364  0.00  0.00    +0.000 C 
ATOM     12  O   UNL     1       4.835   8.059  17.087  0.00  0.00    +0.000 OA
ATOM     13  N   UNL     1       3.400   6.539  18.162  0.00  0.00    +0.000 N 
ATOM     14  C   UNL     1       3.141   5.140  17.919  0.00  0.00    +0.000 C 
BRANCH  14  15
ATOM     15  C   UNL     1       2.432   4.351  19.007  0.00  0.00    +0.000 A 
ATOM     16  C   UNL     1       1.337   3.534  18.667  0.00  0.00    +0.000 A 
ATOM     17  C   UNL     1       0.646   2.810  19.644  0.00  0.00    +0.000 A 
ATOM     18  C   UNL     1       1.040   2.885  20.977  0.00  0.00    +0.000 A 
ATOM     19  C   UNL     1       2.133   3.676  21.332  0.00  0.00    +0.000 A 
ATOM     20  C   UNL     1       2.825   4.395  20.354  0.00  0.00    +0.000 A 
ENDBRANCH  14  15
ENDBRANCH   1  13
BRANCH   4  21
ATOM     21  C   UNL     1      -0.211  10.405  20.327  0.00  0.00    +0.000 C 
ATOM     22  O   UNL     1      -1.085  10.885  19.610  0.00  0.00    +0.000 OA
ATOM     23  N   UNL     1       0.004  10.778  21.656  0.00  0.00    +0.000 N 
ATOM     24  H   UNL     1       0.881  10.551  22.112  0.00  0.00    +0.000 HD
BRANCH  23  25
ATOM     25  C   UNL     1      -0.718  11.834  22.298  0.00  0.00    +0.000 A 
ATOM     26  C   UNL     1      -1.926  11.596  22.969  0.00  0.00    +0.000 A 
ATOM     27  C   UNL     1      -2.710  12.643  23.430  0.00  0.00    +0.000 A 
ATOM     28  C   UNL     1      -2.299  13.949  23.213  0.00  0.00    +0.000 A 
ATOM     29  C   UNL     1      -1.074  14.204  22.578  0.00  0.00    +0.000 A 
ATOM     30  C   UNL     1      -0.692  15.521  22.302  0.00  0.00    +0.000 A 
ATOM     31  C   UNL     1       0.528  15.769  21.692  0.00  0.00    +0.000 A 
ATOM     32  C   UNL     1       1.338  14.689  21.401  0.00  0.00    +0.000 A 
ATOM     33  N   UNL     1       0.984  13.395  21.603  0.00  0.00    +0.000 NA
ATOM     34  C   UNL     1      -0.227  13.147  22.166  0.00  0.00    +0.000 A 
ENDBRANCH  23  25
ENDBRANCH   4  21
TORSDOF 4
ENDMDL
MODEL 8
REMARK VINA RESULT:      -9.2      1.036      1.247
REMARK  Name = 
REMARK  6 active torsions:
REMARK  status: ('A' for Active; 'I' for Inactive)
REMARK    1  A    between atoms: C_1  and  C_2
REMARK    2  A    between atoms: C_2  and  C_3
REMARK    3  A    between atoms: N_7  and  C_8
REMARK    4  A    between atoms: C_11  and  C_12
REMARK    5  A    between atoms: N_14  and  C_15
REMARK    6  A    between atoms: C_27  and  C_28
REMARK                            x       y       z     vdW  Elec       q    Type
REMARK                         _______ _______ _______ _____ _____    ______ ____
ROOT
ATOM      1  C   UNL     1       2.350   6.095  19.358  0.00  0.00    +0.000 A 
ATOM      2  C   UNL     1       2.001   6.820  20.493  0.00  0.00    +0.000 A 
ATOM      3  C   UNL     1       1.662   8.168  20.368  0.00  0.00    +0.000 A 
ATOM      4  C   UNL     1       1.716   8.836  19.128  0.00  0.00    +0.000 A 
ATOM      5  C   UNL     1       2.110   8.119  17.999  0.00  0.00    +0.000 A 
ATOM      6  C   UNL     1       2.401   6.749  18.115  0.00  0.00    +0.000 A 
ENDROOT
BRANCH   1  13
ATOM      7  C   UNL     1       4.661   1.731  20.030  0.00  0.00    +0.000 C 
ATOM      8  C   UNL     1       3.685   2.677  19.338  0.00  0.00    +0.000 C 
ATOM      9  C   UNL     1       3.467   2.249  17.878  0.00  0.00    +0.000 C 
ATOM     10  O   UNL     1       2.398   2.560  19.984  0.00  0.00    +0.000 OA
ATOM     11  C   UNL     1       1.771   3.777  19.867  0.00  0.00    +0.000 C 
ATOM     12  O   UNL     1       0.598   3.942  20.161  0.00  0.00    +0.000 OA
ATOM     13  N   UNL     1       2.686   4.731  19.428  0.00  0.00    +0.000 N 
ATOM     14  C   UNL     1       4.011   4.170  19.548  0.00  0.00    +0.000 C 
BRANCH  14  15
ATOM     15  C   UNL     1       5.105   4.741  18.661  0.00  0.00    +0.000 A 
ATOM     16  C   UNL     1       6.217   5.370  19.252  0.00  0.00    +0.000 A 
ATOM     17  C   UNL     1       7.232   5.927  18.468  0.00  0.00    +0.000 A 
ATOM     18  C   UNL     1       7.159   5.857  17.081  0.00  0.00    +0.000 A 
ATOM     19  C   UNL     1       6.074   5.223  16.476  0.00  0.00    +0.000 A 
ATOM     20  C   UNL     1       5.062   4.664  17.260  0.00  0.00    +0.000 A 
ENDBRANCH  14  15
ENDBRANCH   1  13
BRANCH   4  21
ATOM     21  C   UNL     1       1.361  10.283  19.137  0.00  0.00    +0.000 C 
ATOM     22  O   UNL     1       1.665  10.930  18.138  0.00  0.00    +0.000 OA
ATOM     23  N   UNL     1       0.788  10.838  20.285  0.00  0.00    +0.000 N 
ATOM     24  H   UNL     1       0.799  10.323  21.158  0.00  0.00    +0.000 HD
BRANCH  23  25
ATOM     25  C   UNL     1       0.581  12.245  20.453  0.00  0.00    +0.000 A 
ATOM     26  C   UNL     1       1.644  13.116  20.729  0.00  0.00    +0.000 A 
ATOM     27  C   UNL     1       1.417  14.441  21.070  0.00  0.00    +0.000 A 
ATOM     28  C   UNL     1       0.115  14.910  21.150  0.00  0.00    +0.000 A 
ATOM     29  C   UNL     1      -0.959  14.061  20.839  0.00  0.00    +0.000 A 
ATOM     30  C   UNL     1      -2.273  14.517  20.984  0.00  0.00    +0.000 A 
ATOM     31  C   UNL     1      -3.330  13.682  20.657  0.00  0.00    +0.000 A 
ATOM     32  C   UNL     1      -3.034  12.424  20.170  0.00  0.00    +0.000 A 
ATOM     33  N   UNL     1      -1.778  11.924  20.063  0.00  0.00    +0.000 NA
ATOM     34  C   UNL     1      -0.741  12.727  20.419  0.00  0.00    +0.000 A 
ENDBRANCH  23  25
ENDBRANCH   4  21
TORSDOF 4
ENDMDL
MODEL 9
REMARK VINA RESULT:      -9.2      1.647      2.695
REMARK  Name = 
REMARK  6 active torsions:
REMARK  status: ('A' for Active; 'I' for Inactive)
REMARK    1  A    between atoms: C_1  and  C_2
REMARK    2  A    between atoms: C_2  and  C_3
REMARK    3  A    between atoms: N_7  and  C_8
REMARK    4  A    between atoms: C_11  and  C_12
REMARK    5  A    between atoms: N_14  and  C_15
REMARK    6  A    between atoms: C_27  and  C_28
REMARK                            x       y       z     vdW  Elec       q    Type
REMARK                         _______ _______ _______ _____ _____    ______ ____
ROOT
ATOM      1  C   UNL     1       2.209   6.592  19.396  0.00  0.00    +0.000 A 
ATOM      2  C   UNL     1       2.081   7.306  18.210  0.00  0.00    +0.000 A 
ATOM      3  C   UNL     1       1.643   8.631  18.250  0.00  0.00    +0.000 A 
ATOM      4  C   UNL     1       1.272   9.254  19.459  0.00  0.00    +0.000 A 
ATOM      5  C   UNL     1       1.357   8.521  20.642  0.00  0.00    +0.000 A 
ATOM      6  C   UNL     1       1.848   7.205  20.608  0.00  0.00    +0.000 A 
ENDROOT
BRANCH   1  13
ATOM      7  C   UNL     1       4.856   2.408  19.966  0.00  0.00    +0.000 C 
ATOM      8  C   UNL     1       3.840   3.307  19.270  0.00  0.00    +0.000 C 
ATOM      9  C   UNL     1       3.741   2.950  17.778  0.00  0.00    +0.000 C 
ATOM     10  O   UNL     1       2.535   3.043  19.830  0.00  0.00    +0.000 OA
ATOM     11  C   UNL     1       1.810   4.207  19.742  0.00  0.00    +0.000 C 
ATOM     12  O   UNL     1       0.612   4.254  19.975  0.00  0.00    +0.000 OA
ATOM     13  N   UNL     1       2.660   5.259  19.411  0.00  0.00    +0.000 N 
ATOM     14  C   UNL     1       4.021   4.807  19.579  0.00  0.00    +0.000 C 
BRANCH  14  15
ATOM     15  C   UNL     1       5.107   5.520  18.791  0.00  0.00    +0.000 A 
ATOM     16  C   UNL     1       6.428   5.518  19.277  0.00  0.00    +0.000 A 
ATOM     17  C   UNL     1       7.450   6.182  18.591  0.00  0.00    +0.000 A 
ATOM     18  C   UNL     1       7.172   6.853  17.405  0.00  0.00    +0.000 A 
ATOM     19  C   UNL     1       5.873   6.853  16.898  0.00  0.00    +0.000 A 
ATOM     20  C   UNL     1       4.853   6.186  17.582  0.00  0.00    +0.000 A 
ENDBRANCH  14  15
ENDBRANCH   1  13
BRANCH   4  21
ATOM     21  C   UNL     1       0.790  10.661  19.361  0.00  0.00    +0.000 C 
ATOM     22  O   UNL     1       0.133  10.948  18.364  0.00  0.00    +0.000 OA
ATOM     23  N   UNL     1       1.169  11.582  20.341  0.00  0.00    +0.000 N 
ATOM     24  H   UNL     1       1.915  11.355  20.991  0.00  0.00    +0.000 HD
BRANCH  23  25
ATOM     25  C   UNL     1       0.909  12.986  20.237  0.00  0.00    +0.000 A 
ATOM     26  C   UNL     1      -0.255  13.558  20.770  0.00  0.00    +0.000 A 
ATOM     27  C   UNL     1      -0.590  14.879  20.511  0.00  0.00    +0.000 A 
ATOM     28  C   UNL     1       0.233  15.643  19.700  0.00  0.00    +0.000 A 
ATOM     29  C   UNL     1       1.421  15.097  19.189  0.00  0.00    +0.000 A 
ATOM     30  C   UNL     1       2.216  15.849  18.318  0.00  0.00    +0.000 A 
ATOM     31  C   UNL     1       3.399  15.313  17.831  0.00  0.00    +0.000 A 
ATOM     32  C   UNL     1       3.758  14.048  18.254  0.00  0.00    +0.000 A 
ATOM     33  N   UNL     1       2.993  13.266  19.055  0.00  0.00    +0.000 NA
ATOM     34  C   UNL     1       1.815  13.775  19.504  0.00  0.00    +0.000 A 
ENDBRANCH  23  25
ENDBRANCH   4  21
TORSDOF 4
ENDMDL
