MODEL 1
REMARK VINA RESULT:      -7.2      0.000      0.000
REMARK  Name = 
REMARK  8 active torsions:
REMARK  status: ('A' for Active; 'I' for Inactive)
REMARK    1  A    between atoms: C_1  and  S_2
REMARK    2  A    between atoms: S_2  and  N_5
REMARK    3  A    between atoms: N_5  and  C_6
REMARK    4  A    between atoms: C_11  and  C_12
REMARK    5  A    between atoms: C_12  and  O_14
REMARK    6  A    between atoms: O_14  and  C_15
REMARK    7  A    between atoms: C_15  and  C_16
REMARK    8  A    between atoms: N_18  and  C_19
REMARK                            x       y       z     vdW  Elec       q    Type
REMARK                         _______ _______ _______ _____ _____    ______ ____
ROOT
ATOM      1  C   UNL     1       3.094   5.636  18.843  0.00  0.00    +0.000 A 
ATOM      2  C   UNL     1       2.259   6.660  19.319  0.00  0.00    +0.000 A 
ATOM      3  C   UNL     1       2.288   7.933  18.745  0.00  0.00    +0.000 A 
ATOM      4  C   UNL     1       3.141   8.194  17.679  0.00  0.00    +0.000 A 
ATOM      5  C   UNL     1       3.968   7.181  17.188  0.00  0.00    +0.000 A 
ATOM      6  C   UNL     1       3.958   5.892  17.759  0.00  0.00    +0.000 A 
ENDROOT
BRANCH   1   7
ATOM      7  N   UNL     1       2.968   4.347  19.479  0.00  0.00    +0.000 N 
ATOM      8  H   UNL     1       3.782   3.751  19.304  0.00  0.00    +0.000 HD
BRANCH   7  10
ATOM      9  C   UNL     1       2.314   1.797  18.980  0.00  0.00    +0.000 C 
ATOM     10  S   UNL     1       1.601   3.424  19.026  0.00  0.00    +0.000 S 
ATOM     11  O   UNL     1       1.293   3.798  17.662  0.00  0.00    +0.000 OA
ATOM     12  O   UNL     1       0.616   3.439  20.084  0.00  0.00    +0.000 OA
ENDBRANCH   7  10
ENDBRANCH   1   7
BRANCH   6  13
ATOM     13  C   UNL     1       4.872   4.897  17.126  0.00  0.00    +0.000 C 
ATOM     14  O   UNL     1       4.601   3.712  16.997  0.00  0.00    +0.000 OA
BRANCH  13  15
ATOM     15  O   UNL     1       6.052   5.455  16.753  0.00  0.00    +0.000 OA
BRANCH  15  16
ATOM     16  C   UNL     1       6.979   4.515  16.187  0.00  0.00    +0.000 C 
BRANCH  16  17
ATOM     17  C   UNL     1       6.985   4.598  14.656  0.00  0.00    +0.000 C 
ATOM     18  O   UNL     1       7.654   5.425  14.042  0.00  0.00    +0.000 OA
ATOM     19  N   UNL     1       6.185   3.673  14.009  0.00  0.00    +0.000 N 
ATOM     20  H   UNL     1       5.613   3.031  14.541  0.00  0.00    +0.000 HD
BRANCH  19  21
ATOM     21  C   UNL     1       6.118   3.660  12.579  0.00  0.00    +0.000 C 
ATOM     22  C   UNL     1       5.945   2.346  11.865  0.00  0.00    +0.000 C 
ATOM     23  C   UNL     1       4.854   3.375  11.823  0.00  0.00    +0.000 C 
ENDBRANCH  19  21
ENDBRANCH  16  17
ENDBRANCH  15  16
ENDBRANCH  13  15
ENDBRANCH   6  13
TORSDOF 7
ENDMDL
MODEL 2
REMARK VINA RESULT:      -7.1      0.884      1.064
REMARK  Name = 
REMARK  8 active torsions:
REMARK  status: ('A' for Active; 'I' for Inactive)
REMARK    1  A    between atoms: C_1  and  S_2
REMARK    2  A    between atoms: S_2  and  N_5
REMARK    3  A    between atoms: N_5  and  C_6
REMARK    4  A    between atoms: C_11  and  C_12
REMARK    5  A    between atoms: C_12  and  O_14
REMARK    6  A    between atoms: O_14  and  C_15
REMARK    7  A    between atoms: C_15  and  C_16
REMARK    8  A    between atoms: N_18  and  C_19
REMARK                            x       y       z     vdW  Elec       q    Type
REMARK                         _______ _______ _______ _____ _____    ______ ____
ROOT
ATOM      1  C   UNL     1       3.267   5.442  18.909  0.00  0.00    +0.000 A 
ATOM      2  C   UNL     1       2.319   6.387  19.334  0.00  0.00    +0.000 A 
ATOM      3  C   UNL     1       2.286   7.669  18.780  0.00  0.00    +0.000 A 
ATOM      4  C   UNL     1       3.193   8.017  17.784  0.00  0.00    +0.000 A 
ATOM      5  C   UNL     1       4.132   7.082  17.344  0.00  0.00    +0.000 A 
ATOM      6  C   UNL     1       4.184   5.786  17.896  0.00  0.00    +0.000 A 
ENDROOT
BRANCH   1   7
ATOM      7  N   UNL     1       3.198   4.135  19.518  0.00  0.00    +0.000 N 
ATOM      8  H   UNL     1       4.118   3.686  19.568  0.00  0.00    +0.000 HD
BRANCH   7  10
ATOM      9  C   UNL     1       0.840   2.934  19.933  0.00  0.00    +0.000 C 
ATOM     10  S   UNL     1       2.164   3.010  18.751  0.00  0.00    +0.000 S 
ATOM     11  O   UNL     1       2.851   1.736  18.791  0.00  0.00    +0.000 OA
ATOM     12  O   UNL     1       1.629   3.573  17.532  0.00  0.00    +0.000 OA
ENDBRANCH   7  10
ENDBRANCH   1   7
BRANCH   6  13
ATOM     13  C   UNL     1       5.220   4.879  17.320  0.00  0.00    +0.000 C 
ATOM     14  O   UNL     1       5.462   3.762  17.755  0.00  0.00    +0.000 OA
BRANCH  13  15
ATOM     15  O   UNL     1       5.887   5.457  16.290  0.00  0.00    +0.000 OA
BRANCH  15  16
ATOM     16  C   UNL     1       6.956   4.650  15.772  0.00  0.00    +0.000 C 
BRANCH  16  17
ATOM     17  C   UNL     1       6.926   4.610  14.239  0.00  0.00    +0.000 C 
ATOM     18  O   UNL     1       7.578   5.385  13.545  0.00  0.00    +0.000 OA
ATOM     19  N   UNL     1       6.113   3.636  13.688  0.00  0.00    +0.000 N 
ATOM     20  H   UNL     1       5.555   3.039  14.283  0.00  0.00    +0.000 HD
BRANCH  19  21
ATOM     21  C   UNL     1       6.013   3.508  12.265  0.00  0.00    +0.000 C 
ATOM     22  C   UNL     1       5.863   2.138  11.661  0.00  0.00    +0.000 C 
ATOM     23  C   UNL     1       4.740   3.128  11.567  0.00  0.00    +0.000 C 
ENDBRANCH  19  21
ENDBRANCH  16  17
ENDBRANCH  15  16
ENDBRANCH  13  15
ENDBRANCH   6  13
TORSDOF 7
ENDMDL
MODEL 3
REMARK VINA RESULT:      -7.0      1.559      1.781
REMARK  Name = 
REMARK  8 active torsions:
REMARK  status: ('A' for Active; 'I' for Inactive)
REMARK    1  A    between atoms: C_1  and  S_2
REMARK    2  A    between atoms: S_2  and  N_5
REMARK    3  A    between atoms: N_5  and  C_6
REMARK    4  A    between atoms: C_11  and  C_12
REMARK    5  A    between atoms: C_12  and  O_14
REMARK    6  A    between atoms: O_14  and  C_15
REMARK    7  A    between atoms: C_15  and  C_16
REMARK    8  A    between atoms: N_18  and  C_19
REMARK                            x       y       z     vdW  Elec       q    Type
REMARK                         _______ _______ _______ _____ _____    ______ ____
ROOT
ATOM      1  C   UNL     1       3.375   4.508  17.713  0.00  0.00    +0.000 A 
ATOM      2  C   UNL     1       2.201   5.270  17.830  0.00  0.00    +0.000 A 
ATOM      3  C   UNL     1       2.258   6.660  17.951  0.00  0.00    +0.000 A 
ATOM      4  C   UNL     1       3.490   7.307  17.941  0.00  0.00    +0.000 A 
ATOM      5  C   UNL     1       4.664   6.562  17.812  0.00  0.00    +0.000 A 
ATOM      6  C   UNL     1       4.625   5.158  17.696  0.00  0.00    +0.000 A 
ENDROOT
BRANCH   1   7
ATOM      7  N   UNL     1       3.211   3.083  17.559  0.00  0.00    +0.000 N 
ATOM      8  H   UNL     1       2.327   2.845  17.099  0.00  0.00    +0.000 HD
BRANCH   7  10
ATOM      9  C   UNL     1       1.513   1.978  19.312  0.00  0.00    +0.000 C 
ATOM     10  S   UNL     1       3.252   2.168  19.003  0.00  0.00    +0.000 S 
ATOM     11  O   UNL     1       3.777   3.048  20.026  0.00  0.00    +0.000 OA
ATOM     12  O   UNL     1       3.796   0.853  18.746  0.00  0.00    +0.000 OA
ENDBRANCH   7  10
ENDBRANCH   1   7
BRANCH   6  13
ATOM     13  C   UNL     1       5.949   4.485  17.541  0.00  0.00    +0.000 C 
ATOM     14  O   UNL     1       6.771   4.388  18.441  0.00  0.00    +0.000 OA
BRANCH  13  15
ATOM     15  O   UNL     1       6.147   4.038  16.275  0.00  0.00    +0.000 OA
BRANCH  15  16
ATOM     16  C   UNL     1       7.238   4.684  15.601  0.00  0.00    +0.000 C 
BRANCH  16  17
ATOM     17  C   UNL     1       7.055   4.634  14.079  0.00  0.00    +0.000 C 
ATOM     18  O   UNL     1       7.515   5.492  13.330  0.00  0.00    +0.000 OA
ATOM     19  N   UNL     1       6.337   3.551  13.604  0.00  0.00    +0.000 N 
ATOM     20  H   UNL     1       5.935   2.882  14.247  0.00  0.00    +0.000 HD
BRANCH  19  21
ATOM     21  C   UNL     1       6.110   3.404  12.198  0.00  0.00    +0.000 C 
ATOM     22  C   UNL     1       5.633   2.079  11.667  0.00  0.00    +0.000 C 
ATOM     23  C   UNL     1       4.739   3.282  11.601  0.00  0.00    +0.000 C 
ENDBRANCH  19  21
ENDBRANCH  16  17
ENDBRANCH  15  16
ENDBRANCH  13  15
ENDBRANCH   6  13
TORSDOF 7
ENDMDL
MODEL 4
REMARK VINA RESULT:      -6.9      4.083      6.177
REMARK  Name = 
REMARK  8 active torsions:
REMARK  status: ('A' for Active; 'I' for Inactive)
REMARK    1  A    between atoms: C_1  and  S_2
REMARK    2  A    between atoms: S_2  and  N_5
REMARK    3  A    between atoms: N_5  and  C_6
REMARK    4  A    between atoms: C_11  and  C_12
REMARK    5  A    between atoms: C_12  and  O_14
REMARK    6  A    between atoms: O_14  and  C_15
REMARK    7  A    between atoms: C_15  and  C_16
REMARK    8  A    between atoms: N_18  and  C_19
REMARK                            x       y       z     vdW  Elec       q    Type
REMARK                         _______ _______ _______ _____ _____    ______ ____
ROOT
ATOM      1  C   UNL     1       4.948   4.271  17.384  0.00  0.00    +0.000 A 
ATOM      2  C   UNL     1       3.623   3.952  17.046  0.00  0.00    +0.000 A 
ATOM      3  C   UNL     1       2.560   4.356  17.857  0.00  0.00    +0.000 A 
ATOM      4  C   UNL     1       2.808   5.097  19.007  0.00  0.00    +0.000 A 
ATOM      5  C   UNL     1       4.120   5.431  19.348  0.00  0.00    +0.000 A 
ATOM      6  C   UNL     1       5.206   5.026  18.545  0.00  0.00    +0.000 A 
ENDROOT
BRANCH   1   7
ATOM      7  N   UNL     1       5.974   3.838  16.466  0.00  0.00    +0.000 N 
ATOM      8  H   UNL     1       6.865   3.663  16.940  0.00  0.00    +0.000 HD
BRANCH   7  10
ATOM      9  C   UNL     1       5.884   3.897  13.789  0.00  0.00    +0.000 C 
ATOM     10  S   UNL     1       6.325   4.909  15.181  0.00  0.00    +0.000 S 
ATOM     11  O   UNL     1       7.765   5.063  15.162  0.00  0.00    +0.000 OA
ATOM     12  O   UNL     1       5.418   6.035  15.207  0.00  0.00    +0.000 OA
ENDBRANCH   7  10
ENDBRANCH   1   7
BRANCH   6  13
ATOM     13  C   UNL     1       6.554   5.469  19.009  0.00  0.00    +0.000 C 
ATOM     14  O   UNL     1       7.038   5.157  20.087  0.00  0.00    +0.000 OA
BRANCH  13  15
ATOM     15  O   UNL     1       7.155   6.293  18.113  0.00  0.00    +0.000 OA
BRANCH  15  16
ATOM     16  C   UNL     1       8.177   7.121  18.689  0.00  0.00    +0.000 C 
BRANCH  16  17
ATOM     17  C   UNL     1       8.157   8.528  18.080  0.00  0.00    +0.000 C 
ATOM     18  O   UNL     1       7.442   8.825  17.126  0.00  0.00    +0.000 OA
ATOM     19  N   UNL     1       9.001   9.445  18.679  0.00  0.00    +0.000 N 
ATOM     20  H   UNL     1       9.609   9.163  19.436  0.00  0.00    +0.000 HD
BRANCH  19  21
ATOM     21  C   UNL     1       9.059  10.790  18.191  0.00  0.00    +0.000 C 
ATOM     22  C   UNL     1       9.355  11.907  19.155  0.00  0.00    +0.000 C 
ATOM     23  C   UNL     1      10.340  11.562  18.077  0.00  0.00    +0.000 C 
ENDBRANCH  19  21
ENDBRANCH  16  17
ENDBRANCH  15  16
ENDBRANCH  13  15
ENDBRANCH   6  13
TORSDOF 7
ENDMDL
MODEL 5
REMARK VINA RESULT:      -6.6      1.105      1.178
REMARK  Name = 
REMARK  8 active torsions:
REMARK  status: ('A' for Active; 'I' for Inactive)
REMARK    1  A    between atoms: C_1  and  S_2
REMARK    2  A    between atoms: S_2  and  N_5
REMARK    3  A    between atoms: N_5  and  C_6
REMARK    4  A    between atoms: C_11  and  C_12
REMARK    5  A    between atoms: C_12  and  O_14
REMARK    6  A    between atoms: O_14  and  C_15
REMARK    7  A    between atoms: C_15  and  C_16
REMARK    8  A    between atoms: N_18  and  C_19
REMARK                            x       y       z     vdW  Elec       q    Type
REMARK                         _______ _______ _______ _____ _____    ______ ____
ROOT
ATOM      1  C   UNL     1       3.237   5.547  19.266  0.00  0.00    +0.000 A 
ATOM      2  C   UNL     1       2.402   6.610  19.647  0.00  0.00    +0.000 A 
ATOM      3  C   UNL     1       2.305   7.762  18.864  0.00  0.00    +0.000 A 
ATOM      4  C   UNL     1       3.032   7.861  17.682  0.00  0.00    +0.000 A 
ATOM      5  C   UNL     1       3.856   6.806  17.285  0.00  0.00    +0.000 A 
ATOM      6  C   UNL     1       3.971   5.638  18.066  0.00  0.00    +0.000 A 
ENDROOT
BRANCH   1   7
ATOM      7  N   UNL     1       3.244   4.387  20.123  0.00  0.00    +0.000 N 
ATOM      8  H   UNL     1       4.169   3.949  20.170  0.00  0.00    +0.000 HD
BRANCH   7  10
ATOM      9  C   UNL     1       1.422   2.800  21.281  0.00  0.00    +0.000 C 
ATOM     10  S   UNL     1       2.153   3.141  19.698  0.00  0.00    +0.000 S 
ATOM     11  O   UNL     1       2.964   1.995  19.342  0.00  0.00    +0.000 OA
ATOM     12  O   UNL     1       1.111   3.659  18.840  0.00  0.00    +0.000 OA
ENDBRANCH   7  10
ENDBRANCH   1   7
BRANCH   6  13
ATOM     13  C   UNL     1       4.868   4.578  17.516  0.00  0.00    +0.000 C 
ATOM     14  O   UNL     1       4.463   3.541  17.012  0.00  0.00    +0.000 OA
BRANCH  13  15
ATOM     15  O   UNL     1       6.179   4.885  17.684  0.00  0.00    +0.000 OA
BRANCH  15  16
ATOM     16  C   UNL     1       7.037   4.299  16.693  0.00  0.00    +0.000 C 
BRANCH  16  17
ATOM     17  C   UNL     1       6.618   4.720  15.279  0.00  0.00    +0.000 C 
ATOM     18  O   UNL     1       6.492   5.896  14.950  0.00  0.00    +0.000 OA
ATOM     19  N   UNL     1       6.390   3.681  14.395  0.00  0.00    +0.000 N 
ATOM     20  H   UNL     1       6.460   2.721  14.704  0.00  0.00    +0.000 HD
BRANCH  19  21
ATOM     21  C   UNL     1       5.995   3.961  13.047  0.00  0.00    +0.000 C 
ATOM     22  C   UNL     1       6.968   3.699  11.929  0.00  0.00    +0.000 C 
ATOM     23  C   UNL     1       5.711   2.887  12.039  0.00  0.00    +0.000 C 
ENDBRANCH  19  21
ENDBRANCH  16  17
ENDBRANCH  15  16
ENDBRANCH  13  15
ENDBRANCH   6  13
TORSDOF 7
ENDMDL
MODEL 6
REMARK VINA RESULT:      -6.6      1.060      1.152
REMARK  Name = 
REMARK  8 active torsions:
REMARK  status: ('A' for Active; 'I' for Inactive)
REMARK    1  A    between atoms: C_1  and  S_2
REMARK    2  A    between atoms: S_2  and  N_5
REMARK    3  A    between atoms: N_5  and  C_6
REMARK    4  A    between atoms: C_11  and  C_12
REMARK    5  A    between atoms: C_12  and  O_14
REMARK    6  A    between atoms: O_14  and  C_15
REMARK    7  A    between atoms: C_15  and  C_16
REMARK    8  A    between atoms: N_18  and  C_19
REMARK                            x       y       z     vdW  Elec       q    Type
REMARK                         _______ _______ _______ _____ _____    ______ ____
ROOT
ATOM      1  C   UNL     1       3.519   5.161  18.680  0.00  0.00    +0.000 A 
ATOM      2  C   UNL     1       2.278   5.818  18.647  0.00  0.00    +0.000 A 
ATOM      3  C   UNL     1       2.162   7.104  18.116  0.00  0.00    +0.000 A 
ATOM      4  C   UNL     1       3.283   7.745  17.600  0.00  0.00    +0.000 A 
ATOM      5  C   UNL     1       4.521   7.099  17.616  0.00  0.00    +0.000 A 
ATOM      6  C   UNL     1       4.658   5.803  18.153  0.00  0.00    +0.000 A 
ENDROOT
BRANCH   1   7
ATOM      7  N   UNL     1       3.531   3.822  19.217  0.00  0.00    +0.000 N 
ATOM      8  H   UNL     1       4.470   3.413  19.209  0.00  0.00    +0.000 HD
BRANCH   7  10
ATOM      9  C   UNL     1       3.563   1.258  18.441  0.00  0.00    +0.000 C 
ATOM     10  S   UNL     1       2.518   2.694  18.427  0.00  0.00    +0.000 S 
ATOM     11  O   UNL     1       2.413   3.137  17.052  0.00  0.00    +0.000 OA
ATOM     12  O   UNL     1       1.362   2.401  19.245  0.00  0.00    +0.000 OA
ENDBRANCH   7  10
ENDBRANCH   1   7
BRANCH   6  13
ATOM     13  C   UNL     1       6.030   5.217  18.088  0.00  0.00    +0.000 C 
ATOM     14  O   UNL     1       6.578   4.665  19.030  0.00  0.00    +0.000 OA
BRANCH  13  15
ATOM     15  O   UNL     1       6.608   5.411  16.876  0.00  0.00    +0.000 OA
BRANCH  15  16
ATOM     16  C   UNL     1       6.813   4.198  16.136  0.00  0.00    +0.000 C 
BRANCH  16  17
ATOM     17  C   UNL     1       6.752   4.454  14.625  0.00  0.00    +0.000 C 
ATOM     18  O   UNL     1       7.126   5.508  14.118  0.00  0.00    +0.000 OA
ATOM     19  N   UNL     1       6.247   3.413  13.867  0.00  0.00    +0.000 N 
ATOM     20  H   UNL     1       5.908   2.572  14.315  0.00  0.00    +0.000 HD
BRANCH  19  21
ATOM     21  C   UNL     1       6.148   3.544  12.445  0.00  0.00    +0.000 C 
ATOM     22  C   UNL     1       7.005   2.673  11.567  0.00  0.00    +0.000 C 
ATOM     23  C   UNL     1       5.514   2.503  11.571  0.00  0.00    +0.000 C 
ENDBRANCH  19  21
ENDBRANCH  16  17
ENDBRANCH  15  16
ENDBRANCH  13  15
ENDBRANCH   6  13
TORSDOF 7
ENDMDL
MODEL 7
REMARK VINA RESULT:      -6.6      2.184      3.029
REMARK  Name = 
REMARK  8 active torsions:
REMARK  status: ('A' for Active; 'I' for Inactive)
REMARK    1  A    between atoms: C_1  and  S_2
REMARK    2  A    between atoms: S_2  and  N_5
REMARK    3  A    between atoms: N_5  and  C_6
REMARK    4  A    between atoms: C_11  and  C_12
REMARK    5  A    between atoms: C_12  and  O_14
REMARK    6  A    between atoms: O_14  and  C_15
REMARK    7  A    between atoms: C_15  and  C_16
REMARK    8  A    between atoms: N_18  and  C_19
REMARK                            x       y       z     vdW  Elec       q    Type
REMARK                         _______ _______ _______ _____ _____    ______ ____
ROOT
ATOM      1  C   UNL     1       5.347   4.973  17.966  0.00  0.00    +0.000 A 
ATOM      2  C   UNL     1       5.948   4.979  19.236  0.00  0.00    +0.000 A 
ATOM      3  C   UNL     1       7.142   5.668  19.460  0.00  0.00    +0.000 A 
ATOM      4  C   UNL     1       7.741   6.373  18.421  0.00  0.00    +0.000 A 
ATOM      5  C   UNL     1       7.147   6.385  17.157  0.00  0.00    +0.000 A 
ATOM      6  C   UNL     1       5.946   5.690  16.911  0.00  0.00    +0.000 A 
ENDROOT
BRANCH   1   7
ATOM      7  N   UNL     1       4.098   4.260  17.843  0.00  0.00    +0.000 N 
ATOM      8  H   UNL     1       3.947   3.911  16.892  0.00  0.00    +0.000 HD
BRANCH   7  10
ATOM      9  C   UNL     1       2.524   4.708  19.964  0.00  0.00    +0.000 C 
ATOM     10  S   UNL     1       2.692   5.144  18.250  0.00  0.00    +0.000 S 
ATOM     11  O   UNL     1       1.599   4.517  17.537  0.00  0.00    +0.000 OA
ATOM     12  O   UNL     1       2.958   6.563  18.185  0.00  0.00    +0.000 OA
ENDBRANCH   7  10
ENDBRANCH   1   7
BRANCH   6  13
ATOM     13  C   UNL     1       5.405   5.804  15.524  0.00  0.00    +0.000 C 
ATOM     14  O   UNL     1       5.169   6.869  14.973  0.00  0.00    +0.000 OA
BRANCH  13  15
ATOM     15  O   UNL     1       5.166   4.588  14.970  0.00  0.00    +0.000 OA
BRANCH  15  16
ATOM     16  C   UNL     1       6.327   3.991  14.373  0.00  0.00    +0.000 C 
BRANCH  16  17
ATOM     17  C   UNL     1       6.089   3.679  12.890  0.00  0.00    +0.000 C 
ATOM     18  O   UNL     1       7.009   3.546  12.088  0.00  0.00    +0.000 OA
ATOM     19  N   UNL     1       4.763   3.556  12.516  0.00  0.00    +0.000 N 
ATOM     20  H   UNL     1       4.025   3.712  13.190  0.00  0.00    +0.000 HD
BRANCH  19  21
ATOM     21  C   UNL     1       4.427   3.263  11.156  0.00  0.00    +0.000 C 
ATOM     22  C   UNL     1       3.079   2.671  10.845  0.00  0.00    +0.000 C 
ATOM     23  C   UNL     1       3.420   4.055  10.375  0.00  0.00    +0.000 C 
ENDBRANCH  19  21
ENDBRANCH  16  17
ENDBRANCH  15  16
ENDBRANCH  13  15
ENDBRANCH   6  13
TORSDOF 7
ENDMDL
MODEL 8
REMARK VINA RESULT:      -6.5      3.430      6.595
REMARK  Name = 
REMARK  8 active torsions:
REMARK  status: ('A' for Active; 'I' for Inactive)
REMARK    1  A    between atoms: C_1  and  S_2
REMARK    2  A    between atoms: S_2  and  N_5
REMARK    3  A    between atoms: N_5  and  C_6
REMARK    4  A    between atoms: C_11  and  C_12
REMARK    5  A    between atoms: C_12  and  O_14
REMARK    6  A    between atoms: O_14  and  C_15
REMARK    7  A    between atoms: C_15  and  C_16
REMARK    8  A    between atoms: N_18  and  C_19
REMARK                            x       y       z     vdW  Elec       q    Type
REMARK                         _______ _______ _______ _____ _____    ______ ____
ROOT
ATOM      1  C   UNL     1       3.883   4.997  18.143  0.00  0.00    +0.000 A 
ATOM      2  C   UNL     1       4.845   4.273  17.420  0.00  0.00    +0.000 A 
ATOM      3  C   UNL     1       5.527   4.858  16.351  0.00  0.00    +0.000 A 
ATOM      4  C   UNL     1       5.267   6.178  16.001  0.00  0.00    +0.000 A 
ATOM      5  C   UNL     1       4.322   6.913  16.719  0.00  0.00    +0.000 A 
ATOM      6  C   UNL     1       3.619   6.338  17.797  0.00  0.00    +0.000 A 
ENDROOT
BRANCH   1   7
ATOM      7  N   UNL     1       3.257   4.318  19.251  0.00  0.00    +0.000 N 
ATOM      8  H   UNL     1       3.907   3.689  19.734  0.00  0.00    +0.000 HD
BRANCH   7  10
ATOM      9  C   UNL     1       0.813   3.799  20.218  0.00  0.00    +0.000 C 
ATOM     10  S   UNL     1       1.885   3.373  18.867  0.00  0.00    +0.000 S 
ATOM     11  O   UNL     1       2.280   1.992  19.049  0.00  0.00    +0.000 OA
ATOM     12  O   UNL     1       1.269   3.857  17.652  0.00  0.00    +0.000 OA
ENDBRANCH   7  10
ENDBRANCH   1   7
BRANCH   6  13
ATOM     13  C   UNL     1       2.654   7.238  18.495  0.00  0.00    +0.000 C 
ATOM     14  O   UNL     1       2.420   7.185  19.694  0.00  0.00    +0.000 OA
BRANCH  13  15
ATOM     15  O   UNL     1       2.039   8.089  17.635  0.00  0.00    +0.000 OA
BRANCH  15  16
ATOM     16  C   UNL     1       2.074   9.460  18.059  0.00  0.00    +0.000 C 
BRANCH  16  17
ATOM     17  C   UNL     1       0.702   9.915  18.574  0.00  0.00    +0.000 C 
ATOM     18  O   UNL     1       0.502  10.208  19.750  0.00  0.00    +0.000 OA
ATOM     19  N   UNL     1      -0.298   9.976  17.621  0.00  0.00    +0.000 N 
ATOM     20  H   UNL     1      -0.115   9.689  16.669  0.00  0.00    +0.000 HD
BRANCH  19  21
ATOM     21  C   UNL     1      -1.617  10.390  17.992  0.00  0.00    +0.000 C 
ATOM     22  C   UNL     1      -2.455  11.147  16.997  0.00  0.00    +0.000 C 
ATOM     23  C   UNL     1      -2.859   9.767  17.427  0.00  0.00    +0.000 C 
ENDBRANCH  19  21
ENDBRANCH  16  17
ENDBRANCH  15  16
ENDBRANCH  13  15
ENDBRANCH   6  13
TORSDOF 7
ENDMDL
MODEL 9
REMARK VINA RESULT:      -6.5      2.137      2.950
REMARK  Name = 
REMARK  8 active torsions:
REMARK  status: ('A' for Active; 'I' for Inactive)
REMARK    1  A    between atoms: C_1  and  S_2
REMARK    2  A    between atoms: S_2  and  N_5
REMARK    3  A    between atoms: N_5  and  C_6
REMARK    4  A    between atoms: C_11  and  C_12
REMARK    5  A    between atoms: C_12  and  O_14
REMARK    6  A    between atoms: O_14  and  C_15
REMARK    7  A    between atoms: C_15  and  C_16
REMARK    8  A    between atoms: N_18  and  C_19
REMARK                            x       y       z     vdW  Elec       q    Type
REMARK                         _______ _______ _______ _____ _____    ______ ____
ROOT
ATOM      1  C   UNL     1       4.976   5.344  18.001  0.00  0.00    +0.000 A 
ATOM      2  C   UNL     1       5.514   5.287  19.297  0.00  0.00    +0.000 A 
ATOM      3  C   UNL     1       6.874   5.514  19.518  0.00  0.00    +0.000 A 
ATOM      4  C   UNL     1       7.710   5.813  18.448  0.00  0.00    +0.000 A 
ATOM      5  C   UNL     1       7.186   5.885  17.156  0.00  0.00    +0.000 A 
ATOM      6  C   UNL     1       5.817   5.653  16.913  0.00  0.00    +0.000 A 
ENDROOT
BRANCH   1   7
ATOM      7  N   UNL     1       3.554   5.129  17.878  0.00  0.00    +0.000 N 
ATOM      8  H   UNL     1       3.034   5.548  18.655  0.00  0.00    +0.000 HD
BRANCH   7  10
ATOM      9  C   UNL     1       2.631   3.207  19.501  0.00  0.00    +0.000 C 
ATOM     10  S   UNL     1       3.051   3.496  17.799  0.00  0.00    +0.000 S 
ATOM     11  O   UNL     1       4.239   2.720  17.511  0.00  0.00    +0.000 OA
ATOM     12  O   UNL     1       1.836   3.385  17.025  0.00  0.00    +0.000 OA
ENDBRANCH   7  10
ENDBRANCH   1   7
BRANCH   6  13
ATOM     13  C   UNL     1       5.382   5.782  15.491  0.00  0.00    +0.000 C 
ATOM     14  O   UNL     1       5.245   6.853  14.917  0.00  0.00    +0.000 OA
BRANCH  13  15
ATOM     15  O   UNL     1       5.114   4.577  14.929  0.00  0.00    +0.000 OA
BRANCH  15  16
ATOM     16  C   UNL     1       6.260   3.957  14.325  0.00  0.00    +0.000 C 
BRANCH  16  17
ATOM     17  C   UNL     1       6.027   3.701  12.830  0.00  0.00    +0.000 C 
ATOM     18  O   UNL     1       6.937   3.729  12.006  0.00  0.00    +0.000 OA
ATOM     19  N   UNL     1       4.718   3.432  12.472  0.00  0.00    +0.000 N 
ATOM     20  H   UNL     1       3.983   3.457  13.166  0.00  0.00    +0.000 HD
BRANCH  19  21
ATOM     21  C   UNL     1       4.389   3.176  11.103  0.00  0.00    +0.000 C 
ATOM     22  C   UNL     1       2.997   2.719  10.757  0.00  0.00    +0.000 C 
ATOM     23  C   UNL     1       3.484   4.063  10.301  0.00  0.00    +0.000 C 
ENDBRANCH  19  21
ENDBRANCH  16  17
ENDBRANCH  15  16
ENDBRANCH  13  15
ENDBRANCH   6  13
TORSDOF 7
ENDMDL
