MODEL 1
REMARK VINA RESULT:      -8.0      0.000      0.000
REMARK  Name = 
REMARK  5 active torsions:
REMARK  status: ('A' for Active; 'I' for Inactive)
REMARK    1  A    between atoms: C_1  and  C_2
REMARK    2  A    between atoms: C_5  and  C_6
REMARK    3  A    between atoms: C_9  and  N_10
REMARK    4  A    between atoms: C_14  and  C_16
REMARK    5  A    between atoms: C_22  and  C_23
REMARK                            x       y       z     vdW  Elec       q    Type
REMARK                         _______ _______ _______ _____ _____    ______ ____
ROOT
ATOM      1  C   UNL     1      -1.434  12.227  22.114  0.00  0.00    +0.000 A 
ATOM      2  N   UNL     1      -0.422  11.651  22.806  0.00  0.00    +0.000 NA
ATOM      3  N   UNL     1       0.389  10.696  22.213  0.00  0.00    +0.000 NA
ATOM      4  C   UNL     1       0.209  10.327  20.927  0.00  0.00    +0.000 A 
ATOM      5  C   UNL     1      -0.855  10.893  20.182  0.00  0.00    +0.000 A 
ATOM      6  C   UNL     1      -1.160  10.475  18.867  0.00  0.00    +0.000 A 
ATOM      7  C   UNL     1      -2.178  11.015  18.095  0.00  0.00    +0.000 A 
ATOM      8  C   UNL     1      -2.998  11.960  18.659  0.00  0.00    +0.000 A 
ATOM      9  C   UNL     1      -2.789  12.337  19.985  0.00  0.00    +0.000 A 
ATOM     10  C   UNL     1      -1.700  11.854  20.772  0.00  0.00    +0.000 A 
ENDROOT
BRANCH   4  11
ATOM     11  N   UNL     1       0.974   9.297  20.376  0.00  0.00    +0.000 N 
ATOM     12  C   UNL     1       1.330   8.180  21.249  0.00  0.00    +0.000 C 
ATOM     13  C   UNL     1       1.461   6.947  20.342  0.00  0.00    +0.000 C 
ATOM     14  N   UNL     1       2.384   7.121  19.193  0.00  0.00    +0.000 N 
ATOM     15  C   UNL     1       2.978   6.051  18.506  0.00  0.00    +0.000 C 
ATOM     16  O   UNL     1       3.783   6.215  17.588  0.00  0.00    +0.000 OA
ATOM     17  C   UNL     1       2.312   8.417  18.476  0.00  0.00    +0.000 C 
ATOM     18  C   UNL     1       1.259   8.313  17.359  0.00  0.00    +0.000 C 
ATOM     19  C   UNL     1       2.061   9.626  19.435  0.00  0.00    +0.000 C 
BRANCH  15  20
ATOM     20  C   UNL     1       2.619   4.669  18.887  0.00  0.00    +0.000 A 
ATOM     21  C   UNL     1       1.524   4.032  18.289  0.00  0.00    +0.000 A 
ATOM     22  C   UNL     1       1.096   2.795  18.756  0.00  0.00    +0.000 A 
ATOM     23  C   UNL     1       1.827   2.144  19.748  0.00  0.00    +0.000 A 
ATOM     24  C   UNL     1       2.990   2.724  20.259  0.00  0.00    +0.000 A 
ATOM     25  C   UNL     1       3.388   3.992  19.833  0.00  0.00    +0.000 A 
ENDBRANCH  15  20
ENDBRANCH   4  11
BRANCH   1  30
ATOM     26  C   UNL     1      -5.031  16.124  24.476  0.00  0.00    +0.000 C 
ATOM     27  C   UNL     1      -4.041  15.112  23.987  0.00  0.00    +0.000 A 
ATOM     28  C   UNL     1      -2.838  15.515  23.412  0.00  0.00    +0.000 A 
ATOM     29  C   UNL     1      -1.943  14.567  22.913  0.00  0.00    +0.000 A 
ATOM     30  C   UNL     1      -2.258  13.195  22.880  0.00  0.00    +0.000 A 
ATOM     31  C   UNL     1      -3.432  12.797  23.541  0.00  0.00    +0.000 A 
ATOM     32  C   UNL     1      -4.311  13.743  24.093  0.00  0.00    +0.000 A 
ENDBRANCH   1  30
TORSDOF 3
ENDMDL
MODEL 2
REMARK VINA RESULT:      -7.9      0.604      1.012
REMARK  Name = 
REMARK  5 active torsions:
REMARK  status: ('A' for Active; 'I' for Inactive)
REMARK    1  A    between atoms: C_1  and  C_2
REMARK    2  A    between atoms: C_5  and  C_6
REMARK    3  A    between atoms: C_9  and  N_10
REMARK    4  A    between atoms: C_14  and  C_16
REMARK    5  A    between atoms: C_22  and  C_23
REMARK                            x       y       z     vdW  Elec       q    Type
REMARK                         _______ _______ _______ _____ _____    ______ ____
ROOT
ATOM      1  C   UNL     1      -1.588  12.728  21.869  0.00  0.00    +0.000 A 
ATOM      2  N   UNL     1      -0.494  12.304  22.546  0.00  0.00    +0.000 NA
ATOM      3  N   UNL     1       0.312  11.299  22.035  0.00  0.00    +0.000 NA
ATOM      4  C   UNL     1       0.044  10.728  20.842  0.00  0.00    +0.000 A 
ATOM      5  C   UNL     1      -1.105  11.132  20.118  0.00  0.00    +0.000 A 
ATOM      6  C   UNL     1      -1.496  10.503  18.914  0.00  0.00    +0.000 A 
ATOM      7  C   UNL     1      -2.600  10.879  18.162  0.00  0.00    +0.000 A 
ATOM      8  C   UNL     1      -3.417  11.869  18.649  0.00  0.00    +0.000 A 
ATOM      9  C   UNL     1      -3.119  12.455  19.878  0.00  0.00    +0.000 A 
ATOM     10  C   UNL     1      -1.944  12.141  20.628  0.00  0.00    +0.000 A 
ENDROOT
BRANCH   4  11
ATOM     11  N   UNL     1       0.812   9.654  20.387  0.00  0.00    +0.000 N 
ATOM     12  C   UNL     1       1.130   8.598  21.346  0.00  0.00    +0.000 C 
ATOM     13  C   UNL     1       1.271   7.302  20.533  0.00  0.00    +0.000 C 
ATOM     14  N   UNL     1       2.228   7.385  19.402  0.00  0.00    +0.000 N 
ATOM     15  C   UNL     1       2.828   6.263  18.809  0.00  0.00    +0.000 C 
ATOM     16  O   UNL     1       3.661   6.353  17.906  0.00  0.00    +0.000 OA
ATOM     17  C   UNL     1       2.193   8.628  18.593  0.00  0.00    +0.000 C 
ATOM     18  C   UNL     1       1.171   8.455  17.456  0.00  0.00    +0.000 C 
ATOM     19  C   UNL     1       1.930   9.904  19.457  0.00  0.00    +0.000 C 
BRANCH  15  20
ATOM     20  C   UNL     1       2.441   4.915  19.276  0.00  0.00    +0.000 A 
ATOM     21  C   UNL     1       1.554   4.134  18.525  0.00  0.00    +0.000 A 
ATOM     22  C   UNL     1       1.074   2.935  19.039  0.00  0.00    +0.000 A 
ATOM     23  C   UNL     1       1.561   2.463  20.255  0.00  0.00    +0.000 A 
ATOM     24  C   UNL     1       2.539   3.183  20.946  0.00  0.00    +0.000 A 
ATOM     25  C   UNL     1       2.979   4.415  20.461  0.00  0.00    +0.000 A 
ENDBRANCH  15  20
ENDBRANCH   4  11
BRANCH   1  30
ATOM     26  C   UNL     1      -4.170  16.879  25.000  0.00  0.00    +0.000 C 
ATOM     27  C   UNL     1      -3.617  15.803  24.117  0.00  0.00    +0.000 A 
ATOM     28  C   UNL     1      -3.796  14.459  24.436  0.00  0.00    +0.000 A 
ATOM     29  C   UNL     1      -3.234  13.463  23.635  0.00  0.00    +0.000 A 
ATOM     30  C   UNL     1      -2.394  13.772  22.549  0.00  0.00    +0.000 A 
ATOM     31  C   UNL     1      -2.294  15.126  22.188  0.00  0.00    +0.000 A 
ATOM     32  C   UNL     1      -2.902  16.130  22.959  0.00  0.00    +0.000 A 
ENDBRANCH   1  30
TORSDOF 3
ENDMDL
MODEL 3
REMARK VINA RESULT:      -7.5      3.727      9.806
REMARK  Name = 
REMARK  5 active torsions:
REMARK  status: ('A' for Active; 'I' for Inactive)
REMARK    1  A    between atoms: C_1  and  C_2
REMARK    2  A    between atoms: C_5  and  C_6
REMARK    3  A    between atoms: C_9  and  N_10
REMARK    4  A    between atoms: C_14  and  C_16
REMARK    5  A    between atoms: C_22  and  C_23
REMARK                            x       y       z     vdW  Elec       q    Type
REMARK                         _______ _______ _______ _____ _____    ______ ____
ROOT
ATOM      1  C   UNL     1       1.781   8.147  19.284  0.00  0.00    +0.000 A 
ATOM      2  N   UNL     1       2.273   8.785  18.196  0.00  0.00    +0.000 NA
ATOM      3  N   UNL     1       2.173  10.162  18.075  0.00  0.00    +0.000 NA
ATOM      4  C   UNL     1       1.603  10.909  19.044  0.00  0.00    +0.000 A 
ATOM      5  C   UNL     1       1.058  10.271  20.185  0.00  0.00    +0.000 A 
ATOM      6  C   UNL     1       0.358  10.984  21.185  0.00  0.00    +0.000 A 
ATOM      7  C   UNL     1      -0.174  10.404  22.328  0.00  0.00    +0.000 A 
ATOM      8  C   UNL     1      -0.092   9.042  22.469  0.00  0.00    +0.000 A 
ATOM      9  C   UNL     1       0.511   8.288  21.464  0.00  0.00    +0.000 A 
ATOM     10  C   UNL     1       1.136   8.871  20.319  0.00  0.00    +0.000 A 
ENDROOT
BRANCH   4  11
ATOM     11  N   UNL     1       1.426  12.282  18.863  0.00  0.00    +0.000 N 
ATOM     12  C   UNL     1       0.107  12.742  18.432  0.00  0.00    +0.000 C 
ATOM     13  C   UNL     1      -0.067  14.157  19.005  0.00  0.00    +0.000 C 
ATOM     14  N   UNL     1       1.029  15.098  18.667  0.00  0.00    +0.000 N 
ATOM     15  C   UNL     1       0.893  16.494  18.703  0.00  0.00    +0.000 C 
ATOM     16  O   UNL     1       1.797  17.260  18.370  0.00  0.00    +0.000 OA
ATOM     17  C   UNL     1       2.411  14.561  18.741  0.00  0.00    +0.000 C 
ATOM     18  C   UNL     1       2.948  14.759  20.169  0.00  0.00    +0.000 C 
ATOM     19  C   UNL     1       2.510  13.078  18.255  0.00  0.00    +0.000 C 
BRANCH  15  20
ATOM     20  C   UNL     1      -0.383  17.075  19.171  0.00  0.00    +0.000 A 
ATOM     21  C   UNL     1      -1.274  17.654  18.259  0.00  0.00    +0.000 A 
ATOM     22  C   UNL     1      -2.397  18.334  18.716  0.00  0.00    +0.000 A 
ATOM     23  C   UNL     1      -2.688  18.344  20.077  0.00  0.00    +0.000 A 
ATOM     24  C   UNL     1      -1.866  17.662  20.977  0.00  0.00    +0.000 A 
ATOM     25  C   UNL     1      -0.706  17.029  20.527  0.00  0.00    +0.000 A 
ENDBRANCH  15  20
ENDBRANCH   4  11
BRANCH   1  30
ATOM     26  C   UNL     1       1.536   2.349  19.113  0.00  0.00    +0.000 C 
ATOM     27  C   UNL     1       1.732   3.833  19.181  0.00  0.00    +0.000 A 
ATOM     28  C   UNL     1       1.606   4.512  20.390  0.00  0.00    +0.000 A 
ATOM     29  C   UNL     1       1.741   5.901  20.435  0.00  0.00    +0.000 A 
ATOM     30  C   UNL     1       1.906   6.668  19.267  0.00  0.00    +0.000 A 
ATOM     31  C   UNL     1       2.120   5.964  18.070  0.00  0.00    +0.000 A 
ATOM     32  C   UNL     1       2.039   4.563  18.027  0.00  0.00    +0.000 A 
ENDBRANCH   1  30
TORSDOF 3
ENDMDL
MODEL 4
REMARK VINA RESULT:      -7.5      1.604      2.089
REMARK  Name = 
REMARK  5 active torsions:
REMARK  status: ('A' for Active; 'I' for Inactive)
REMARK    1  A    between atoms: C_1  and  C_2
REMARK    2  A    between atoms: C_5  and  C_6
REMARK    3  A    between atoms: C_9  and  N_10
REMARK    4  A    between atoms: C_14  and  C_16
REMARK    5  A    between atoms: C_22  and  C_23
REMARK                            x       y       z     vdW  Elec       q    Type
REMARK                         _______ _______ _______ _____ _____    ______ ____
ROOT
ATOM      1  C   UNL     1      -2.634  12.852  20.557  0.00  0.00    +0.000 A 
ATOM      2  N   UNL     1      -1.666  12.657  21.484  0.00  0.00    +0.000 NA
ATOM      3  N   UNL     1      -0.726  11.651  21.328  0.00  0.00    +0.000 NA
ATOM      4  C   UNL     1      -0.734  10.850  20.242  0.00  0.00    +0.000 A 
ATOM      5  C   UNL     1      -1.746  11.012  19.264  0.00  0.00    +0.000 A 
ATOM      6  C   UNL     1      -1.870  10.141  18.157  0.00  0.00    +0.000 A 
ATOM      7  C   UNL     1      -2.832  10.275  17.166  0.00  0.00    +0.000 A 
ATOM      8  C   UNL     1      -3.777  11.261  17.299  0.00  0.00    +0.000 A 
ATOM      9  C   UNL     1      -3.747  12.086  18.422  0.00  0.00    +0.000 A 
ATOM     10  C   UNL     1      -2.719  12.019  19.412  0.00  0.00    +0.000 A 
ENDROOT
BRANCH   4  11
ATOM     11  N   UNL     1       0.161   9.782  20.148  0.00  0.00    +0.000 N 
ATOM     12  C   UNL     1       0.190   8.826  21.253  0.00  0.00    +0.000 C 
ATOM     13  C   UNL     1       0.606   7.477  20.647  0.00  0.00    +0.000 C 
ATOM     14  N   UNL     1       1.865   7.516  19.862  0.00  0.00    +0.000 N 
ATOM     15  C   UNL     1       2.646   6.382  19.590  0.00  0.00    +0.000 C 
ATOM     16  O   UNL     1       3.715   6.440  18.982  0.00  0.00    +0.000 OA
ATOM     17  C   UNL     1       2.054   8.685  18.969  0.00  0.00    +0.000 C 
ATOM     18  C   UNL     1       1.441   8.369  17.594  0.00  0.00    +0.000 C 
ATOM     19  C   UNL     1       1.507  10.013  19.587  0.00  0.00    +0.000 C 
BRANCH  15  20
ATOM     20  C   UNL     1       2.164   5.058  20.039  0.00  0.00    +0.000 A 
ATOM     21  C   UNL     1       2.443   4.606  21.334  0.00  0.00    +0.000 A 
ATOM     22  C   UNL     1       2.123   3.304  21.703  0.00  0.00    +0.000 A 
ATOM     23  C   UNL     1       1.429   2.488  20.813  0.00  0.00    +0.000 A 
ATOM     24  C   UNL     1       1.042   2.980  19.564  0.00  0.00    +0.000 A 
ATOM     25  C   UNL     1       1.413   4.266  19.170  0.00  0.00    +0.000 A 
ENDBRANCH  15  20
ENDBRANCH   4  11
BRANCH   1  30
ATOM     26  C   UNL     1      -6.267  16.949  22.486  0.00  0.00    +0.000 C 
ATOM     27  C   UNL     1      -5.375  15.919  21.863  0.00  0.00    +0.000 A 
ATOM     28  C   UNL     1      -5.807  14.605  21.707  0.00  0.00    +0.000 A 
ATOM     29  C   UNL     1      -4.952  13.640  21.172  0.00  0.00    +0.000 A 
ATOM     30  C   UNL     1      -3.608  13.928  20.868  0.00  0.00    +0.000 A 
ATOM     31  C   UNL     1      -3.213  15.274  20.948  0.00  0.00    +0.000 A 
ATOM     32  C   UNL     1      -4.086  16.259  21.434  0.00  0.00    +0.000 A 
ENDBRANCH   1  30
TORSDOF 3
ENDMDL
MODEL 5
REMARK VINA RESULT:      -7.4      2.986      9.871
REMARK  Name = 
REMARK  5 active torsions:
REMARK  status: ('A' for Active; 'I' for Inactive)
REMARK    1  A    between atoms: C_1  and  C_2
REMARK    2  A    between atoms: C_5  and  C_6
REMARK    3  A    between atoms: C_9  and  N_10
REMARK    4  A    between atoms: C_14  and  C_16
REMARK    5  A    between atoms: C_22  and  C_23
REMARK                            x       y       z     vdW  Elec       q    Type
REMARK                         _______ _______ _______ _____ _____    ______ ____
ROOT
ATOM      1  C   UNL     1       2.982   7.753  17.916  0.00  0.00    +0.000 A 
ATOM      2  N   UNL     1       2.847   8.856  17.142  0.00  0.00    +0.000 NA
ATOM      3  N   UNL     1       2.029   9.903  17.535  0.00  0.00    +0.000 NA
ATOM      4  C   UNL     1       1.361   9.866  18.707  0.00  0.00    +0.000 A 
ATOM      5  C   UNL     1       1.462   8.717  19.531  0.00  0.00    +0.000 A 
ATOM      6  C   UNL     1       0.708   8.573  20.718  0.00  0.00    +0.000 A 
ATOM      7  C   UNL     1       0.791   7.476  21.564  0.00  0.00    +0.000 A 
ATOM      8  C   UNL     1       1.591   6.424  21.196  0.00  0.00    +0.000 A 
ATOM      9  C   UNL     1       2.283   6.485  19.987  0.00  0.00    +0.000 A 
ATOM     10  C   UNL     1       2.276   7.636  19.141  0.00  0.00    +0.000 A 
ENDROOT
BRANCH   4  11
ATOM     11  N   UNL     1       0.469  10.887  19.043  0.00  0.00    +0.000 N 
ATOM     12  C   UNL     1      -0.947  10.669  18.751  0.00  0.00    +0.000 C 
ATOM     13  C   UNL     1      -1.733  11.469  19.801  0.00  0.00    +0.000 C 
ATOM     14  N   UNL     1      -1.359  12.902  19.891  0.00  0.00    +0.000 N 
ATOM     15  C   UNL     1      -2.193  13.890  20.438  0.00  0.00    +0.000 C 
ATOM     16  O   UNL     1      -1.888  15.083  20.457  0.00  0.00    +0.000 OA
ATOM     17  C   UNL     1       0.090  13.215  19.825  0.00  0.00    +0.000 C 
ATOM     18  C   UNL     1       0.675  13.178  21.248  0.00  0.00    +0.000 C 
ATOM     19  C   UNL     1       0.863  12.292  18.827  0.00  0.00    +0.000 C 
BRANCH  15  20
ATOM     20  C   UNL     1      -3.487  13.486  21.028  0.00  0.00    +0.000 A 
ATOM     21  C   UNL     1      -4.625  13.363  20.221  0.00  0.00    +0.000 A 
ATOM     22  C   UNL     1      -5.868  13.134  20.798  0.00  0.00    +0.000 A 
ATOM     23  C   UNL     1      -5.960  12.920  22.171  0.00  0.00    +0.000 A 
ATOM     24  C   UNL     1      -4.808  12.921  22.961  0.00  0.00    +0.000 A 
ATOM     25  C   UNL     1      -3.566  13.209  22.392  0.00  0.00    +0.000 A 
ENDBRANCH  15  20
ENDBRANCH   4  11
BRANCH   1  30
ATOM     26  C   UNL     1       5.924   3.595  15.131  0.00  0.00    +0.000 C 
ATOM     27  C   UNL     1       5.249   4.649  15.954  0.00  0.00    +0.000 A 
ATOM     28  C   UNL     1       4.180   4.325  16.786  0.00  0.00    +0.000 A 
ATOM     29  C   UNL     1       3.525   5.321  17.512  0.00  0.00    +0.000 A 
ATOM     30  C   UNL     1       3.846   6.683  17.357  0.00  0.00    +0.000 A 
ATOM     31  C   UNL     1       4.980   6.985  16.585  0.00  0.00    +0.000 A 
ATOM     32  C   UNL     1       5.677   5.980  15.895  0.00  0.00    +0.000 A 
ENDBRANCH   1  30
TORSDOF 3
ENDMDL
MODEL 6
REMARK VINA RESULT:      -7.3      3.069      9.862
REMARK  Name = 
REMARK  5 active torsions:
REMARK  status: ('A' for Active; 'I' for Inactive)
REMARK    1  A    between atoms: C_1  and  C_2
REMARK    2  A    between atoms: C_5  and  C_6
REMARK    3  A    between atoms: C_9  and  N_10
REMARK    4  A    between atoms: C_14  and  C_16
REMARK    5  A    between atoms: C_22  and  C_23
REMARK                            x       y       z     vdW  Elec       q    Type
REMARK                         _______ _______ _______ _____ _____    ______ ____
ROOT
ATOM      1  C   UNL     1       2.964   7.731  17.905  0.00  0.00    +0.000 A 
ATOM      2  N   UNL     1       2.785   8.827  17.130  0.00  0.00    +0.000 NA
ATOM      3  N   UNL     1       1.930   9.843  17.524  0.00  0.00    +0.000 NA
ATOM      4  C   UNL     1       1.266   9.782  18.698  0.00  0.00    +0.000 A 
ATOM      5  C   UNL     1       1.413   8.639  19.523  0.00  0.00    +0.000 A 
ATOM      6  C   UNL     1       0.670   8.468  20.712  0.00  0.00    +0.000 A 
ATOM      7  C   UNL     1       0.796   7.376  21.560  0.00  0.00    +0.000 A 
ATOM      8  C   UNL     1       1.634   6.354  21.190  0.00  0.00    +0.000 A 
ATOM      9  C   UNL     1       2.320   6.440  19.979  0.00  0.00    +0.000 A 
ATOM     10  C   UNL     1       2.267   7.589  19.132  0.00  0.00    +0.000 A 
ENDROOT
BRANCH   4  11
ATOM     11  N   UNL     1       0.338  10.769  19.035  0.00  0.00    +0.000 N 
ATOM     12  C   UNL     1      -0.963  10.728  18.368  0.00  0.00    +0.000 C 
ATOM     13  C   UNL     1      -1.973  11.335  19.353  0.00  0.00    +0.000 C 
ATOM     14  N   UNL     1      -1.608  12.681  19.860  0.00  0.00    +0.000 N 
ATOM     15  C   UNL     1      -2.535  13.584  20.402  0.00  0.00    +0.000 C 
ATOM     16  O   UNL     1      -2.224  14.718  20.770  0.00  0.00    +0.000 OA
ATOM     17  C   UNL     1      -0.184  12.890  20.220  0.00  0.00    +0.000 C 
ATOM     18  C   UNL     1       0.021  12.498  21.694  0.00  0.00    +0.000 C 
ATOM     19  C   UNL     1       0.799  12.153  19.253  0.00  0.00    +0.000 C 
BRANCH  15  20
ATOM     20  C   UNL     1      -3.943  13.160  20.552  0.00  0.00    +0.000 A 
ATOM     21  C   UNL     1      -4.542  13.126  21.818  0.00  0.00    +0.000 A 
ATOM     22  C   UNL     1      -5.812  12.583  21.975  0.00  0.00    +0.000 A 
ATOM     23  C   UNL     1      -6.527  12.172  20.853  0.00  0.00    +0.000 A 
ATOM     24  C   UNL     1      -5.979  12.319  19.577  0.00  0.00    +0.000 A 
ATOM     25  C   UNL     1      -4.682  12.809  19.422  0.00  0.00    +0.000 A 
ENDBRANCH  15  20
ENDBRANCH   4  11
BRANCH   1  30
ATOM     26  C   UNL     1       6.041   3.668  15.125  0.00  0.00    +0.000 C 
ATOM     27  C   UNL     1       5.335   4.704  15.945  0.00  0.00    +0.000 A 
ATOM     28  C   UNL     1       4.304   4.344  16.810  0.00  0.00    +0.000 A 
ATOM     29  C   UNL     1       3.618   5.322  17.533  0.00  0.00    +0.000 A 
ATOM     30  C   UNL     1       3.867   6.694  17.344  0.00  0.00    +0.000 A 
ATOM     31  C   UNL     1       4.965   7.036  16.538  0.00  0.00    +0.000 A 
ATOM     32  C   UNL     1       5.694   6.053  15.850  0.00  0.00    +0.000 A 
ENDBRANCH   1  30
TORSDOF 3
ENDMDL
MODEL 7
REMARK VINA RESULT:      -7.3      3.033      9.924
REMARK  Name = 
REMARK  5 active torsions:
REMARK  status: ('A' for Active; 'I' for Inactive)
REMARK    1  A    between atoms: C_1  and  C_2
REMARK    2  A    between atoms: C_5  and  C_6
REMARK    3  A    between atoms: C_9  and  N_10
REMARK    4  A    between atoms: C_14  and  C_16
REMARK    5  A    between atoms: C_22  and  C_23
REMARK                            x       y       z     vdW  Elec       q    Type
REMARK                         _______ _______ _______ _____ _____    ______ ____
ROOT
ATOM      1  C   UNL     1       3.206   7.404  17.754  0.00  0.00    +0.000 A 
ATOM      2  N   UNL     1       2.991   8.559  17.080  0.00  0.00    +0.000 NA
ATOM      3  N   UNL     1       2.132   9.523  17.581  0.00  0.00    +0.000 NA
ATOM      4  C   UNL     1       1.500   9.350  18.762  0.00  0.00    +0.000 A 
ATOM      5  C   UNL     1       1.685   8.144  19.481  0.00  0.00    +0.000 A 
ATOM      6  C   UNL     1       0.975   7.859  20.670  0.00  0.00    +0.000 A 
ATOM      7  C   UNL     1       1.140   6.701  21.417  0.00  0.00    +0.000 A 
ATOM      8  C   UNL     1       1.983   5.729  20.940  0.00  0.00    +0.000 A 
ATOM      9  C   UNL     1       2.636   5.930  19.725  0.00  0.00    +0.000 A 
ATOM     10  C   UNL     1       2.544   7.146  18.980  0.00  0.00    +0.000 A 
ENDROOT
BRANCH   4  11
ATOM     11  N   UNL     1       0.566  10.289  19.205  0.00  0.00    +0.000 N 
ATOM     12  C   UNL     1      -0.533  10.626  18.302  0.00  0.00    +0.000 C 
ATOM     13  C   UNL     1      -1.722  11.014  19.193  0.00  0.00    +0.000 C 
ATOM     14  N   UNL     1      -1.427  12.072  20.190  0.00  0.00    +0.000 N 
ATOM     15  C   UNL     1      -2.413  12.867  20.794  0.00  0.00    +0.000 C 
ATOM     16  O   UNL     1      -2.146  13.777  21.580  0.00  0.00    +0.000 OA
ATOM     17  C   UNL     1      -0.125  11.974  20.896  0.00  0.00    +0.000 C 
ATOM     18  C   UNL     1      -0.305  11.113  22.158  0.00  0.00    +0.000 C 
ATOM     19  C   UNL     1       1.027  11.464  19.970  0.00  0.00    +0.000 C 
BRANCH  15  20
ATOM     20  C   UNL     1      -3.834  12.599  20.487  0.00  0.00    +0.000 A 
ATOM     21  C   UNL     1      -4.227  12.274  19.183  0.00  0.00    +0.000 A 
ATOM     22  C   UNL     1      -5.577  12.173  18.865  0.00  0.00    +0.000 A 
ATOM     23  C   UNL     1      -6.531  12.291  19.873  0.00  0.00    +0.000 A 
ATOM     24  C   UNL     1      -6.134  12.494  21.197  0.00  0.00    +0.000 A 
ATOM     25  C   UNL     1      -4.783  12.654  21.508  0.00  0.00    +0.000 A 
ENDBRANCH  15  20
ENDBRANCH   4  11
BRANCH   1  30
ATOM     26  C   UNL     1       6.254   3.624  14.570  0.00  0.00    +0.000 C 
ATOM     27  C   UNL     1       5.561   4.583  15.489  0.00  0.00    +0.000 A 
ATOM     28  C   UNL     1       4.587   4.137  16.379  0.00  0.00    +0.000 A 
ATOM     29  C   UNL     1       3.910   5.045  17.196  0.00  0.00    +0.000 A 
ATOM     30  C   UNL     1       4.109   6.434  17.084  0.00  0.00    +0.000 A 
ATOM     31  C   UNL     1       5.153   6.861  16.248  0.00  0.00    +0.000 A 
ATOM     32  C   UNL     1       5.875   5.947  15.463  0.00  0.00    +0.000 A 
ENDBRANCH   1  30
TORSDOF 3
ENDMDL
MODEL 8
REMARK VINA RESULT:      -7.3      2.080      3.001
REMARK  Name = 
REMARK  5 active torsions:
REMARK  status: ('A' for Active; 'I' for Inactive)
REMARK    1  A    between atoms: C_1  and  C_2
REMARK    2  A    between atoms: C_5  and  C_6
REMARK    3  A    between atoms: C_9  and  N_10
REMARK    4  A    between atoms: C_14  and  C_16
REMARK    5  A    between atoms: C_22  and  C_23
REMARK                            x       y       z     vdW  Elec       q    Type
REMARK                         _______ _______ _______ _____ _____    ______ ____
ROOT
ATOM      1  C   UNL     1      -0.286  10.944  21.771  0.00  0.00    +0.000 A 
ATOM      2  N   UNL     1       0.533  10.119  22.465  0.00  0.00    +0.000 NA
ATOM      3  N   UNL     1       1.172   9.061  21.838  0.00  0.00    +0.000 NA
ATOM      4  C   UNL     1       1.015   8.834  20.516  0.00  0.00    +0.000 A 
ATOM      5  C   UNL     1       0.147   9.665  19.765  0.00  0.00    +0.000 A 
ATOM      6  C   UNL     1      -0.140   9.419  18.403  0.00  0.00    +0.000 A 
ATOM      7  C   UNL     1      -0.966  10.217  17.625  0.00  0.00    +0.000 A 
ATOM      8  C   UNL     1      -1.614  11.268  18.223  0.00  0.00    +0.000 A 
ATOM      9  C   UNL     1      -1.430  11.494  19.587  0.00  0.00    +0.000 A 
ATOM     10  C   UNL     1      -0.523  10.736  20.388  0.00  0.00    +0.000 A 
ENDROOT
BRANCH   4  11
ATOM     11  N   UNL     1       1.590   7.710  19.921  0.00  0.00    +0.000 N 
ATOM     12  C   UNL     1       2.263   7.896  18.636  0.00  0.00    +0.000 C 
ATOM     13  C   UNL     1       3.372   6.836  18.571  0.00  0.00    +0.000 C 
ATOM     14  N   UNL     1       2.911   5.445  18.803  0.00  0.00    +0.000 N 
ATOM     15  C   UNL     1       3.622   4.311  18.383  0.00  0.00    +0.000 C 
ATOM     16  O   UNL     1       3.199   3.165  18.537  0.00  0.00    +0.000 OA
ATOM     17  C   UNL     1       1.924   5.247  19.893  0.00  0.00    +0.000 C 
ATOM     18  C   UNL     1       2.677   5.007  21.212  0.00  0.00    +0.000 C 
ATOM     19  C   UNL     1       0.888   6.414  19.989  0.00  0.00    +0.000 C 
BRANCH  15  20
ATOM     20  C   UNL     1       4.940   4.492  17.738  0.00  0.00    +0.000 A 
ATOM     21  C   UNL     1       5.052   4.478  16.342  0.00  0.00    +0.000 A 
ATOM     22  C   UNL     1       6.306   4.495  15.742  0.00  0.00    +0.000 A 
ATOM     23  C   UNL     1       7.444   4.633  16.533  0.00  0.00    +0.000 A 
ATOM     24  C   UNL     1       7.326   4.770  17.918  0.00  0.00    +0.000 A 
ATOM     25  C   UNL     1       6.072   4.695  18.526  0.00  0.00    +0.000 A 
ENDBRANCH  15  20
ENDBRANCH   4  11
BRANCH   1  30
ATOM     26  C   UNL     1      -3.235  15.273  24.275  0.00  0.00    +0.000 C 
ATOM     27  C   UNL     1      -2.412  14.138  23.748  0.00  0.00    +0.000 A 
ATOM     28  C   UNL     1      -1.170  14.371  23.163  0.00  0.00    +0.000 A 
ATOM     29  C   UNL     1      -0.432  13.313  22.629  0.00  0.00    +0.000 A 
ATOM     30  C   UNL     1      -0.948  12.005  22.571  0.00  0.00    +0.000 A 
ATOM     31  C   UNL     1      -2.159  11.769  23.241  0.00  0.00    +0.000 A 
ATOM     32  C   UNL     1      -2.881  12.821  23.827  0.00  0.00    +0.000 A 
ENDBRANCH   1  30
TORSDOF 3
ENDMDL
MODEL 9
REMARK VINA RESULT:      -7.2      3.590      9.952
REMARK  Name = 
REMARK  5 active torsions:
REMARK  status: ('A' for Active; 'I' for Inactive)
REMARK    1  A    between atoms: C_1  and  C_2
REMARK    2  A    between atoms: C_5  and  C_6
REMARK    3  A    between atoms: C_9  and  N_10
REMARK    4  A    between atoms: C_14  and  C_16
REMARK    5  A    between atoms: C_22  and  C_23
REMARK                            x       y       z     vdW  Elec       q    Type
REMARK                         _______ _______ _______ _____ _____    ______ ____
ROOT
ATOM      1  C   UNL     1       2.114   7.969  18.865  0.00  0.00    +0.000 A 
ATOM      2  N   UNL     1       2.504   8.694  17.790  0.00  0.00    +0.000 NA
ATOM      3  N   UNL     1       2.302  10.064  17.747  0.00  0.00    +0.000 NA
ATOM      4  C   UNL     1       1.731  10.719  18.780  0.00  0.00    +0.000 A 
ATOM      5  C   UNL     1       1.290   9.988  19.911  0.00  0.00    +0.000 A 
ATOM      6  C   UNL     1       0.594  10.598  20.979  0.00  0.00    +0.000 A 
ATOM      7  C   UNL     1       0.164   9.925  22.114  0.00  0.00    +0.000 A 
ATOM      8  C   UNL     1       0.348   8.567  22.179  0.00  0.00    +0.000 A 
ATOM      9  C   UNL     1       0.950   7.910  21.107  0.00  0.00    +0.000 A 
ATOM     10  C   UNL     1       1.473   8.592  19.967  0.00  0.00    +0.000 A 
ENDROOT
BRANCH   4  11
ATOM     11  N   UNL     1       1.449  12.084  18.681  0.00  0.00    +0.000 N 
ATOM     12  C   UNL     1       0.116  12.466  18.220  0.00  0.00    +0.000 C 
ATOM     13  C   UNL     1      -0.197  13.820  18.875  0.00  0.00    +0.000 C 
ATOM     14  N   UNL     1       0.831  14.866  18.651  0.00  0.00    +0.000 N 
ATOM     15  C   UNL     1       0.579  16.241  18.771  0.00  0.00    +0.000 C 
ATOM     16  O   UNL     1       1.431  17.097  18.530  0.00  0.00    +0.000 OA
ATOM     17  C   UNL     1       2.248  14.436  18.754  0.00  0.00    +0.000 C 
ATOM     18  C   UNL     1       2.708  14.577  20.215  0.00  0.00    +0.000 C 
ATOM     19  C   UNL     1       2.488  13.003  18.177  0.00  0.00    +0.000 C 
BRANCH  15  20
ATOM     20  C   UNL     1      -0.758  16.686  19.216  0.00  0.00    +0.000 A 
ATOM     21  C   UNL     1      -1.481  17.619  18.462  0.00  0.00    +0.000 A 
ATOM     22  C   UNL     1      -2.666  18.150  18.958  0.00  0.00    +0.000 A 
ATOM     23  C   UNL     1      -3.185  17.670  20.158  0.00  0.00    +0.000 A 
ATOM     24  C   UNL     1      -2.528  16.650  20.850  0.00  0.00    +0.000 A 
ATOM     25  C   UNL     1      -1.308  16.158  20.384  0.00  0.00    +0.000 A 
ENDBRANCH  15  20
ENDBRANCH   4  11
BRANCH   1  30
ATOM     26  C   UNL     1       3.415   2.399  17.871  0.00  0.00    +0.000 C 
ATOM     27  C   UNL     1       3.003   3.794  18.231  0.00  0.00    +0.000 A 
ATOM     28  C   UNL     1       1.870   4.370  17.661  0.00  0.00    +0.000 A 
ATOM     29  C   UNL     1       1.521   5.687  17.964  0.00  0.00    +0.000 A 
ATOM     30  C   UNL     1       2.341   6.506  18.763  0.00  0.00    +0.000 A 
ATOM     31  C   UNL     1       3.429   5.887  19.400  0.00  0.00    +0.000 A 
ATOM     32  C   UNL     1       3.754   4.546  19.142  0.00  0.00    +0.000 A 
ENDBRANCH   1  30
TORSDOF 3
ENDMDL
