MODEL 1
REMARK VINA RESULT:      -7.7      0.000      0.000
REMARK  Name = 
REMARK  14 active torsions:
REMARK  status: ('A' for Active; 'I' for Inactive)
REMARK    1  A    between atoms: C_1  and  C_2
REMARK    2  A    between atoms: C_2  and  O_3
REMARK    3  A    between atoms: O_3  and  C_4
REMARK    4  A    between atoms: N_9  and  C_10
REMARK    5  A    between atoms: C_11  and  N_12
REMARK    6  A    between atoms: N_12  and  C_13
REMARK    7  A    between atoms: C_13  and  C_14
REMARK    8  A    between atoms: C_14  and  C_15
REMARK    9  A    between atoms: C_18  and  O_19
REMARK   10  A    between atoms: O_19  and  C_20
REMARK   11  A    between atoms: C_20  and  C_21
REMARK   12  A    between atoms: C_22  and  O_23
REMARK   13  A    between atoms: O_23  and  C_24
REMARK   14  A    between atoms: C_24  and  C_25
REMARK                            x       y       z     vdW  Elec       q    Type
REMARK                         _______ _______ _______ _____ _____    ______ ____
ROOT
ATOM      1  C   UNL     1       3.703   3.820  19.478  0.00  0.00    +0.000 C 
ATOM      2  C   UNL     1       2.613   4.074  20.272  0.00  0.00    +0.000 C 
ATOM      3  C   UNL     1       2.971   2.984  21.216  0.00  0.00    +0.000 C 
ATOM      4  O   UNL     1       2.540   2.451  22.209  0.00  0.00    +0.000 OA
ATOM      5  C   UNL     1       4.096   2.649  20.309  0.00  0.00    +0.000 C 
ATOM      6  O   UNL     1       4.946   1.797  20.331  0.00  0.00    +0.000 OA
ENDROOT
BRANCH   1  12
ATOM      7  C   UNL     1       6.691   4.809  15.050  0.00  0.00    +0.000 C 
ATOM      8  O   UNL     1       7.735   5.445  15.118  0.00  0.00    +0.000 OA
ATOM      9  N   UNL     1       6.040   4.286  16.143  0.00  0.00    +0.000 N 
ATOM     10  C   UNL     1       6.544   4.559  17.487  0.00  0.00    +0.000 C 
ATOM     11  C   UNL     1       5.445   5.161  18.389  0.00  0.00    +0.000 C 
ATOM     12  N   UNL     1       4.245   4.299  18.368  0.00  0.00    +0.000 N 
ATOM     13  C   UNL     1       3.720   4.022  17.016  0.00  0.00    +0.000 C 
ATOM     14  C   UNL     1       4.816   3.480  16.083  0.00  0.00    +0.000 C 
BRANCH   7  15
ATOM     15  O   UNL     1       5.987   4.634  13.900  0.00  0.00    +0.000 OA
BRANCH  15  17
ATOM     16  C   UNL     1       5.494   3.190  12.067  0.00  0.00    +0.000 C 
ATOM     17  C   UNL     1       6.596   3.744  12.954  0.00  0.00    +0.000 C 
ENDBRANCH  15  17
ENDBRANCH   7  15
ENDBRANCH   1  12
BRANCH   2  18
ATOM     18  N   UNL     1       1.554   4.863  20.290  0.00  0.00    +0.000 N 
ATOM     19  H   UNL     1       0.615   4.475  20.394  0.00  0.00    +0.000 HD
BRANCH  18  20
ATOM     20  C   UNL     1       1.653   6.277  20.673  0.00  0.00    +0.000 C 
BRANCH  20  21
ATOM     21  C   UNL     1       2.377   7.060  19.562  0.00  0.00    +0.000 C 
BRANCH  21  22
ATOM     22  C   UNL     1       1.808   8.428  19.286  0.00  0.00    +0.000 A 
ATOM     23  C   UNL     1       2.232   9.211  18.215  0.00  0.00    +0.000 A 
ATOM     24  C   UNL     1       1.685  10.486  18.027  0.00  0.00    +0.000 A 
ATOM     25  C   UNL     1       0.704  11.000  18.893  0.00  0.00    +0.000 A 
ATOM     26  C   UNL     1       0.283  10.216  19.983  0.00  0.00    +0.000 A 
ATOM     27  C   UNL     1       0.846   8.945  20.160  0.00  0.00    +0.000 A 
BRANCH  25  28
ATOM     28  O   UNL     1       0.278  12.259  18.534  0.00  0.00    +0.000 OA
BRANCH  28  29
ATOM     29  C   UNL     1       1.256  13.293  18.439  0.00  0.00    +0.000 C 
ATOM     30  C   UNL     1       0.823  14.494  19.260  0.00  0.00    +0.000 C 
ENDBRANCH  28  29
ENDBRANCH  25  28
BRANCH  26  31
ATOM     31  O   UNL     1      -0.662  10.723  20.831  0.00  0.00    +0.000 OA
BRANCH  31  32
ATOM     32  C   UNL     1      -0.304  11.129  22.148  0.00  0.00    +0.000 C 
ATOM     33  C   UNL     1      -0.614  10.028  23.145  0.00  0.00    +0.000 C 
ENDBRANCH  31  32
ENDBRANCH  26  31
ENDBRANCH  21  22
ENDBRANCH  20  21
ENDBRANCH  18  20
ENDBRANCH   2  18
TORSDOF 11
ENDMDL
MODEL 2
REMARK VINA RESULT:      -7.5      1.110      1.251
REMARK  Name = 
REMARK  14 active torsions:
REMARK  status: ('A' for Active; 'I' for Inactive)
REMARK    1  A    between atoms: C_1  and  C_2
REMARK    2  A    between atoms: C_2  and  O_3
REMARK    3  A    between atoms: O_3  and  C_4
REMARK    4  A    between atoms: N_9  and  C_10
REMARK    5  A    between atoms: C_11  and  N_12
REMARK    6  A    between atoms: N_12  and  C_13
REMARK    7  A    between atoms: C_13  and  C_14
REMARK    8  A    between atoms: C_14  and  C_15
REMARK    9  A    between atoms: C_18  and  O_19
REMARK   10  A    between atoms: O_19  and  C_20
REMARK   11  A    between atoms: C_20  and  C_21
REMARK   12  A    between atoms: C_22  and  O_23
REMARK   13  A    between atoms: O_23  and  C_24
REMARK   14  A    between atoms: C_24  and  C_25
REMARK                            x       y       z     vdW  Elec       q    Type
REMARK                         _______ _______ _______ _____ _____    ______ ____
ROOT
ATOM      1  C   UNL     1       3.227   4.140  19.785  0.00  0.00    +0.000 C 
ATOM      2  C   UNL     1       2.363   4.566  20.762  0.00  0.00    +0.000 C 
ATOM      3  C   UNL     1       2.286   3.212  21.368  0.00  0.00    +0.000 C 
ATOM      4  O   UNL     1       1.714   2.637  22.263  0.00  0.00    +0.000 OA
ATOM      5  C   UNL     1       3.144   2.731  20.259  0.00  0.00    +0.000 C 
ATOM      6  O   UNL     1       3.578   1.647  19.962  0.00  0.00    +0.000 OA
ENDROOT
BRANCH   1  12
ATOM      7  C   UNL     1       6.648   5.294  15.726  0.00  0.00    +0.000 C 
ATOM      8  O   UNL     1       7.665   5.949  15.919  0.00  0.00    +0.000 OA
ATOM      9  N   UNL     1       5.896   4.732  16.731  0.00  0.00    +0.000 N 
ATOM     10  C   UNL     1       6.247   4.983  18.127  0.00  0.00    +0.000 C 
ATOM     11  C   UNL     1       5.045   5.541  18.919  0.00  0.00    +0.000 C 
ATOM     12  N   UNL     1       3.874   4.656  18.750  0.00  0.00    +0.000 N 
ATOM     13  C   UNL     1       3.503   4.400  17.343  0.00  0.00    +0.000 C 
ATOM     14  C   UNL     1       4.704   3.903  16.523  0.00  0.00    +0.000 C 
BRANCH   7  15
ATOM     15  O   UNL     1       6.076   5.132  14.503  0.00  0.00    +0.000 OA
BRANCH  15  17
ATOM     16  C   UNL     1       5.890   3.553  12.725  0.00  0.00    +0.000 C 
ATOM     17  C   UNL     1       6.854   4.365  13.574  0.00  0.00    +0.000 C 
ENDBRANCH  15  17
ENDBRANCH   7  15
ENDBRANCH   1  12
BRANCH   2  18
ATOM     18  N   UNL     1       1.714   5.662  21.112  0.00  0.00    +0.000 N 
ATOM     19  H   UNL     1       1.357   5.778  22.062  0.00  0.00    +0.000 HD
BRANCH  18  20
ATOM     20  C   UNL     1       1.901   6.930  20.393  0.00  0.00    +0.000 C 
BRANCH  20  21
ATOM     21  C   UNL     1       1.330   8.085  21.237  0.00  0.00    +0.000 C 
BRANCH  21  22
ATOM     22  C   UNL     1       0.771   9.230  20.433  0.00  0.00    +0.000 A 
ATOM     23  C   UNL     1       1.213   9.526  19.146  0.00  0.00    +0.000 A 
ATOM     24  C   UNL     1       0.675  10.620  18.459  0.00  0.00    +0.000 A 
ATOM     25  C   UNL     1      -0.316  11.434  19.035  0.00  0.00    +0.000 A 
ATOM     26  C   UNL     1      -0.757  11.146  20.341  0.00  0.00    +0.000 A 
ATOM     27  C   UNL     1      -0.202  10.050  21.015  0.00  0.00    +0.000 A 
BRANCH  25  28
ATOM     28  O   UNL     1      -0.732  12.447  18.200  0.00  0.00    +0.000 OA
BRANCH  28  29
ATOM     29  C   UNL     1      -0.408  13.787  18.564  0.00  0.00    +0.000 C 
ATOM     30  C   UNL     1       1.098  13.951  18.653  0.00  0.00    +0.000 C 
ENDBRANCH  28  29
ENDBRANCH  25  28
BRANCH  26  31
ATOM     31  O   UNL     1      -1.713  11.946  20.903  0.00  0.00    +0.000 OA
BRANCH  31  32
ATOM     32  C   UNL     1      -1.496  12.535  22.182  0.00  0.00    +0.000 C 
ATOM     33  C   UNL     1      -2.535  12.046  23.174  0.00  0.00    +0.000 C 
ENDBRANCH  31  32
ENDBRANCH  26  31
ENDBRANCH  21  22
ENDBRANCH  20  21
ENDBRANCH  18  20
ENDBRANCH   2  18
TORSDOF 11
ENDMDL
MODEL 3
REMARK VINA RESULT:      -7.4      4.773      7.523
REMARK  Name = 
REMARK  14 active torsions:
REMARK  status: ('A' for Active; 'I' for Inactive)
REMARK    1  A    between atoms: C_1  and  C_2
REMARK    2  A    between atoms: C_2  and  O_3
REMARK    3  A    between atoms: O_3  and  C_4
REMARK    4  A    between atoms: N_9  and  C_10
REMARK    5  A    between atoms: C_11  and  N_12
REMARK    6  A    between atoms: N_12  and  C_13
REMARK    7  A    between atoms: C_13  and  C_14
REMARK    8  A    between atoms: C_14  and  C_15
REMARK    9  A    between atoms: C_18  and  O_19
REMARK   10  A    between atoms: O_19  and  C_20
REMARK   11  A    between atoms: C_20  and  C_21
REMARK   12  A    between atoms: C_22  and  O_23
REMARK   13  A    between atoms: O_23  and  C_24
REMARK   14  A    between atoms: C_24  and  C_25
REMARK                            x       y       z     vdW  Elec       q    Type
REMARK                         _______ _______ _______ _____ _____    ______ ____
ROOT
ATOM      1  C   UNL     1       5.766   4.991  16.843  0.00  0.00    +0.000 C 
ATOM      2  C   UNL     1       7.042   5.480  16.722  0.00  0.00    +0.000 C 
ATOM      3  C   UNL     1       7.027   5.321  15.245  0.00  0.00    +0.000 C 
ATOM      4  O   UNL     1       7.762   5.466  14.298  0.00  0.00    +0.000 OA
ATOM      5  C   UNL     1       5.685   4.706  15.384  0.00  0.00    +0.000 C 
ATOM      6  O   UNL     1       4.909   4.236  14.593  0.00  0.00    +0.000 OA
ENDROOT
BRANCH   1  12
ATOM      7  C   UNL     1       1.381   4.559  20.021  0.00  0.00    +0.000 C 
ATOM      8  O   UNL     1       1.042   5.472  20.764  0.00  0.00    +0.000 OA
ATOM      9  N   UNL     1       2.293   4.699  19.001  0.00  0.00    +0.000 N 
ATOM     10  C   UNL     1       2.988   5.971  18.817  0.00  0.00    +0.000 C 
ATOM     11  C   UNL     1       4.519   5.780  18.802  0.00  0.00    +0.000 C 
ATOM     12  N   UNL     1       4.891   4.752  17.809  0.00  0.00    +0.000 N 
ATOM     13  C   UNL     1       4.202   3.458  17.987  0.00  0.00    +0.000 C 
ATOM     14  C   UNL     1       2.678   3.634  18.068  0.00  0.00    +0.000 C 
BRANCH   7  15
ATOM     15  O   UNL     1       0.980   3.270  20.179  0.00  0.00    +0.000 OA
BRANCH  15  17
ATOM     16  C   UNL     1       2.678   2.404  21.613  0.00  0.00    +0.000 C 
ATOM     17  C   UNL     1       1.199   2.730  21.490  0.00  0.00    +0.000 C 
ENDBRANCH  15  17
ENDBRANCH   7  15
ENDBRANCH   1  12
BRANCH   2  18
ATOM     18  N   UNL     1       8.032   5.888  17.495  0.00  0.00    +0.000 N 
ATOM     19  H   UNL     1       9.002   5.668  17.264  0.00  0.00    +0.000 HD
BRANCH  18  20
ATOM     20  C   UNL     1       7.887   7.050  18.383  0.00  0.00    +0.000 C 
BRANCH  20  21
ATOM     21  C   UNL     1       7.785   8.332  17.536  0.00  0.00    +0.000 C 
BRANCH  21  22
ATOM     22  C   UNL     1       8.418   9.548  18.162  0.00  0.00    +0.000 A 
ATOM     23  C   UNL     1       9.132   9.488  19.356  0.00  0.00    +0.000 A 
ATOM     24  C   UNL     1       9.673  10.657  19.903  0.00  0.00    +0.000 A 
ATOM     25  C   UNL     1       9.522  11.903  19.270  0.00  0.00    +0.000 A 
ATOM     26  C   UNL     1       8.791  11.970  18.069  0.00  0.00    +0.000 A 
ATOM     27  C   UNL     1       8.251  10.790  17.540  0.00  0.00    +0.000 A 
BRANCH  25  28
ATOM     28  O   UNL     1      10.139  12.929  19.950  0.00  0.00    +0.000 OA
BRANCH  28  29
ATOM     29  C   UNL     1       9.838  13.088  21.335  0.00  0.00    +0.000 C 
ATOM     30  C   UNL     1       8.693  14.070  21.507  0.00  0.00    +0.000 C 
ENDBRANCH  28  29
ENDBRANCH  25  28
BRANCH  26  31
ATOM     31  O   UNL     1       8.636  13.185  17.461  0.00  0.00    +0.000 OA
BRANCH  31  32
ATOM     32  C   UNL     1       7.529  14.018  17.791  0.00  0.00    +0.000 C 
ATOM     33  C   UNL     1       7.976  15.463  17.925  0.00  0.00    +0.000 C 
ENDBRANCH  31  32
ENDBRANCH  26  31
ENDBRANCH  21  22
ENDBRANCH  20  21
ENDBRANCH  18  20
ENDBRANCH   2  18
TORSDOF 11
ENDMDL
MODEL 4
REMARK VINA RESULT:      -7.3      1.450      2.720
REMARK  Name = 
REMARK  14 active torsions:
REMARK  status: ('A' for Active; 'I' for Inactive)
REMARK    1  A    between atoms: C_1  and  C_2
REMARK    2  A    between atoms: C_2  and  O_3
REMARK    3  A    between atoms: O_3  and  C_4
REMARK    4  A    between atoms: N_9  and  C_10
REMARK    5  A    between atoms: C_11  and  N_12
REMARK    6  A    between atoms: N_12  and  C_13
REMARK    7  A    between atoms: C_13  and  C_14
REMARK    8  A    between atoms: C_14  and  C_15
REMARK    9  A    between atoms: C_18  and  O_19
REMARK   10  A    between atoms: O_19  and  C_20
REMARK   11  A    between atoms: C_20  and  C_21
REMARK   12  A    between atoms: C_22  and  O_23
REMARK   13  A    between atoms: O_23  and  C_24
REMARK   14  A    between atoms: C_24  and  C_25
REMARK                            x       y       z     vdW  Elec       q    Type
REMARK                         _______ _______ _______ _____ _____    ______ ____
ROOT
ATOM      1  C   UNL     1       3.070   4.180  19.670  0.00  0.00    +0.000 C 
ATOM      2  C   UNL     1       2.403   4.588  20.798  0.00  0.00    +0.000 C 
ATOM      3  C   UNL     1       2.004   3.198  21.137  0.00  0.00    +0.000 C 
ATOM      4  O   UNL     1       1.350   2.606  21.961  0.00  0.00    +0.000 OA
ATOM      5  C   UNL     1       2.643   2.768  19.871  0.00  0.00    +0.000 C 
ATOM      6  O   UNL     1       2.758   1.700  19.327  0.00  0.00    +0.000 OA
ENDROOT
BRANCH   1  12
ATOM      7  C   UNL     1       6.703   5.450  15.835  0.00  0.00    +0.000 C 
ATOM      8  O   UNL     1       7.716   6.084  16.105  0.00  0.00    +0.000 OA
ATOM      9  N   UNL     1       5.895   4.858  16.779  0.00  0.00    +0.000 N 
ATOM     10  C   UNL     1       6.178   5.049  18.199  0.00  0.00    +0.000 C 
ATOM     11  C   UNL     1       4.944   5.590  18.952  0.00  0.00    +0.000 C 
ATOM     12  N   UNL     1       3.774   4.728  18.690  0.00  0.00    +0.000 N 
ATOM     13  C   UNL     1       3.471   4.533  17.258  0.00  0.00    +0.000 C 
ATOM     14  C   UNL     1       4.706   4.054  16.479  0.00  0.00    +0.000 C 
BRANCH   7  15
ATOM     15  O   UNL     1       6.190   5.344  14.581  0.00  0.00    +0.000 OA
BRANCH  15  17
ATOM     16  C   UNL     1       6.128   3.607  12.947  0.00  0.00    +0.000 C 
ATOM     17  C   UNL     1       7.013   4.618  13.657  0.00  0.00    +0.000 C 
ENDBRANCH  15  17
ENDBRANCH   7  15
ENDBRANCH   1  12
BRANCH   2  18
ATOM     18  N   UNL     1       2.087   5.710  21.419  0.00  0.00    +0.000 N 
ATOM     19  H   UNL     1       2.405   5.887  22.374  0.00  0.00    +0.000 HD
BRANCH  18  20
ATOM     20  C   UNL     1       1.742   6.930  20.677  0.00  0.00    +0.000 C 
BRANCH  20  21
ATOM     21  C   UNL     1       0.308   7.361  21.038  0.00  0.00    +0.000 C 
BRANCH  21  22
ATOM     22  C   UNL     1       0.171   8.808  21.436  0.00  0.00    +0.000 A 
ATOM     23  C   UNL     1      -0.568   9.211  22.546  0.00  0.00    +0.000 A 
ATOM     24  C   UNL     1      -0.681  10.573  22.849  0.00  0.00    +0.000 A 
ATOM     25  C   UNL     1      -0.058  11.555  22.060  0.00  0.00    +0.000 A 
ATOM     26  C   UNL     1       0.678  11.153  20.931  0.00  0.00    +0.000 A 
ATOM     27  C   UNL     1       0.777   9.786  20.639  0.00  0.00    +0.000 A 
BRANCH  25  28
ATOM     28  O   UNL     1      -0.271  12.834  22.528  0.00  0.00    +0.000 OA
BRANCH  28  29
ATOM     29  C   UNL     1      -1.500  13.103  23.199  0.00  0.00    +0.000 C 
ATOM     30  C   UNL     1      -2.173  14.316  22.583  0.00  0.00    +0.000 C 
ENDBRANCH  28  29
ENDBRANCH  25  28
BRANCH  26  31
ATOM     31  O   UNL     1       1.274  12.112  20.158  0.00  0.00    +0.000 OA
BRANCH  31  32
ATOM     32  C   UNL     1       1.217  12.028  18.738  0.00  0.00    +0.000 C 
ATOM     33  C   UNL     1       2.520  12.509  18.126  0.00  0.00    +0.000 C 
ENDBRANCH  31  32
ENDBRANCH  26  31
ENDBRANCH  21  22
ENDBRANCH  20  21
ENDBRANCH  18  20
ENDBRANCH   2  18
TORSDOF 11
ENDMDL
MODEL 5
REMARK VINA RESULT:      -7.3      1.500      1.858
REMARK  Name = 
REMARK  14 active torsions:
REMARK  status: ('A' for Active; 'I' for Inactive)
REMARK    1  A    between atoms: C_1  and  C_2
REMARK    2  A    between atoms: C_2  and  O_3
REMARK    3  A    between atoms: O_3  and  C_4
REMARK    4  A    between atoms: N_9  and  C_10
REMARK    5  A    between atoms: C_11  and  N_12
REMARK    6  A    between atoms: N_12  and  C_13
REMARK    7  A    between atoms: C_13  and  C_14
REMARK    8  A    between atoms: C_14  and  C_15
REMARK    9  A    between atoms: C_18  and  O_19
REMARK   10  A    between atoms: O_19  and  C_20
REMARK   11  A    between atoms: C_20  and  C_21
REMARK   12  A    between atoms: C_22  and  O_23
REMARK   13  A    between atoms: O_23  and  C_24
REMARK   14  A    between atoms: C_24  and  C_25
REMARK                            x       y       z     vdW  Elec       q    Type
REMARK                         _______ _______ _______ _____ _____    ______ ____
ROOT
ATOM      1  C   UNL     1       3.239   4.166  19.654  0.00  0.00    +0.000 C 
ATOM      2  C   UNL     1       2.548   4.663  20.730  0.00  0.00    +0.000 C 
ATOM      3  C   UNL     1       2.274   3.303  21.259  0.00  0.00    +0.000 C 
ATOM      4  O   UNL     1       1.679   2.773  22.167  0.00  0.00    +0.000 OA
ATOM      5  C   UNL     1       2.938   2.762  20.049  0.00  0.00    +0.000 C 
ATOM      6  O   UNL     1       3.141   1.645  19.650  0.00  0.00    +0.000 OA
ENDROOT
BRANCH   1  12
ATOM      7  C   UNL     1       6.641   5.125  15.528  0.00  0.00    +0.000 C 
ATOM      8  O   UNL     1       7.669   5.771  15.690  0.00  0.00    +0.000 OA
ATOM      9  N   UNL     1       5.890   4.610  16.559  0.00  0.00    +0.000 N 
ATOM     10  C   UNL     1       6.256   4.904  17.943  0.00  0.00    +0.000 C 
ATOM     11  C   UNL     1       5.069   5.508  18.724  0.00  0.00    +0.000 C 
ATOM     12  N   UNL     1       3.884   4.635  18.596  0.00  0.00    +0.000 N 
ATOM     13  C   UNL     1       3.497   4.336  17.202  0.00  0.00    +0.000 C 
ATOM     14  C   UNL     1       4.684   3.792  16.390  0.00  0.00    +0.000 C 
BRANCH   7  15
ATOM     15  O   UNL     1       6.056   4.928  14.317  0.00  0.00    +0.000 OA
BRANCH  15  17
ATOM     16  C   UNL     1       5.843   3.398  12.501  0.00  0.00    +0.000 C 
ATOM     17  C   UNL     1       6.821   4.129  13.405  0.00  0.00    +0.000 C 
ENDBRANCH  15  17
ENDBRANCH   7  15
ENDBRANCH   1  12
BRANCH   2  18
ATOM     18  N   UNL     1       2.140   5.828  21.202  0.00  0.00    +0.000 N 
ATOM     19  H   UNL     1       2.258   6.062  22.189  0.00  0.00    +0.000 HD
BRANCH  18  20
ATOM     20  C   UNL     1       1.989   7.002  20.332  0.00  0.00    +0.000 C 
BRANCH  20  21
ATOM     21  C   UNL     1       1.484   8.195  21.164  0.00  0.00    +0.000 C 
BRANCH  21  22
ATOM     22  C   UNL     1       0.696   9.215  20.383  0.00  0.00    +0.000 A 
ATOM     23  C   UNL     1       0.821   9.358  19.003  0.00  0.00    +0.000 A 
ATOM     24  C   UNL     1       0.082  10.343  18.336  0.00  0.00    +0.000 A 
ATOM     25  C   UNL     1      -0.797  11.195  19.027  0.00  0.00    +0.000 A 
ATOM     26  C   UNL     1      -0.916  11.061  20.423  0.00  0.00    +0.000 A 
ATOM     27  C   UNL     1      -0.165  10.074  21.074  0.00  0.00    +0.000 A 
BRANCH  25  28
ATOM     28  O   UNL     1      -1.445  12.083  18.198  0.00  0.00    +0.000 OA
BRANCH  28  29
ATOM     29  C   UNL     1      -2.330  11.553  17.213  0.00  0.00    +0.000 C 
ATOM     30  C   UNL     1      -3.489  10.841  17.886  0.00  0.00    +0.000 C 
ENDBRANCH  28  29
ENDBRANCH  25  28
BRANCH  26  31
ATOM     31  O   UNL     1      -1.764  11.899  21.093  0.00  0.00    +0.000 OA
BRANCH  31  32
ATOM     32  C   UNL     1      -1.318  13.183  21.518  0.00  0.00    +0.000 C 
ATOM     33  C   UNL     1       0.195  13.207  21.636  0.00  0.00    +0.000 C 
ENDBRANCH  31  32
ENDBRANCH  26  31
ENDBRANCH  21  22
ENDBRANCH  20  21
ENDBRANCH  18  20
ENDBRANCH   2  18
TORSDOF 11
ENDMDL
MODEL 6
REMARK VINA RESULT:      -7.2      1.329      2.643
REMARK  Name = 
REMARK  14 active torsions:
REMARK  status: ('A' for Active; 'I' for Inactive)
REMARK    1  A    between atoms: C_1  and  C_2
REMARK    2  A    between atoms: C_2  and  O_3
REMARK    3  A    between atoms: O_3  and  C_4
REMARK    4  A    between atoms: N_9  and  C_10
REMARK    5  A    between atoms: C_11  and  N_12
REMARK    6  A    between atoms: N_12  and  C_13
REMARK    7  A    between atoms: C_13  and  C_14
REMARK    8  A    between atoms: C_14  and  C_15
REMARK    9  A    between atoms: C_18  and  O_19
REMARK   10  A    between atoms: O_19  and  C_20
REMARK   11  A    between atoms: C_20  and  C_21
REMARK   12  A    between atoms: C_22  and  O_23
REMARK   13  A    between atoms: O_23  and  C_24
REMARK   14  A    between atoms: C_24  and  C_25
REMARK                            x       y       z     vdW  Elec       q    Type
REMARK                         _______ _______ _______ _____ _____    ______ ____
ROOT
ATOM      1  C   UNL     1       3.281   4.181  19.789  0.00  0.00    +0.000 C 
ATOM      2  C   UNL     1       2.555   4.670  20.846  0.00  0.00    +0.000 C 
ATOM      3  C   UNL     1       2.331   3.310  21.399  0.00  0.00    +0.000 C 
ATOM      4  O   UNL     1       1.747   2.774  22.311  0.00  0.00    +0.000 OA
ATOM      5  C   UNL     1       3.034   2.774  20.209  0.00  0.00    +0.000 C 
ATOM      6  O   UNL     1       3.290   1.658  19.837  0.00  0.00    +0.000 OA
ENDROOT
BRANCH   1  12
ATOM      7  C   UNL     1       6.587   5.096  15.576  0.00  0.00    +0.000 C 
ATOM      8  O   UNL     1       7.669   5.649  15.727  0.00  0.00    +0.000 OA
ATOM      9  N   UNL     1       5.836   4.585  16.610  0.00  0.00    +0.000 N 
ATOM     10  C   UNL     1       6.279   4.773  17.990  0.00  0.00    +0.000 C 
ATOM     11  C   UNL     1       5.177   5.424  18.852  0.00  0.00    +0.000 C 
ATOM     12  N   UNL     1       3.920   4.656  18.730  0.00  0.00    +0.000 N 
ATOM     13  C   UNL     1       3.457   4.465  17.341  0.00  0.00    +0.000 C 
ATOM     14  C   UNL     1       4.563   3.876  16.451  0.00  0.00    +0.000 C 
BRANCH   7  15
ATOM     15  O   UNL     1       5.940   5.014  14.383  0.00  0.00    +0.000 OA
BRANCH  15  17
ATOM     16  C   UNL     1       7.024   4.381  12.355  0.00  0.00    +0.000 C 
ATOM     17  C   UNL     1       6.294   3.874  13.587  0.00  0.00    +0.000 C 
ENDBRANCH  15  17
ENDBRANCH   7  15
ENDBRANCH   1  12
BRANCH   2  18
ATOM     18  N   UNL     1       2.092   5.825  21.289  0.00  0.00    +0.000 N 
ATOM     19  H   UNL     1       2.597   6.351  22.004  0.00  0.00    +0.000 HD
BRANCH  18  20
ATOM     20  C   UNL     1       1.183   6.650  20.483  0.00  0.00    +0.000 C 
BRANCH  20  21
ATOM     21  C   UNL     1       1.771   8.065  20.333  0.00  0.00    +0.000 C 
BRANCH  21  22
ATOM     22  C   UNL     1       1.026   9.137  21.086  0.00  0.00    +0.000 A 
ATOM     23  C   UNL     1       0.516   8.934  22.366  0.00  0.00    +0.000 A 
ATOM     24  C   UNL     1      -0.192   9.959  23.004  0.00  0.00    +0.000 A 
ATOM     25  C   UNL     1      -0.399  11.204  22.386  0.00  0.00    +0.000 A 
ATOM     26  C   UNL     1       0.104  11.409  21.087  0.00  0.00    +0.000 A 
ATOM     27  C   UNL     1       0.805  10.369  20.462  0.00  0.00    +0.000 A 
BRANCH  25  28
ATOM     28  O   UNL     1      -1.100  12.087  23.177  0.00  0.00    +0.000 OA
BRANCH  28  29
ATOM     29  C   UNL     1      -2.504  11.881  23.323  0.00  0.00    +0.000 C 
ATOM     30  C   UNL     1      -3.244  12.501  22.151  0.00  0.00    +0.000 C 
ENDBRANCH  28  29
ENDBRANCH  25  28
BRANCH  26  31
ATOM     31  O   UNL     1      -0.108  12.617  20.483  0.00  0.00    +0.000 OA
BRANCH  31  32
ATOM     32  C   UNL     1       0.993  13.396  20.026  0.00  0.00    +0.000 C 
ATOM     33  C   UNL     1       1.657  14.109  21.190  0.00  0.00    +0.000 C 
ENDBRANCH  31  32
ENDBRANCH  26  31
ENDBRANCH  21  22
ENDBRANCH  20  21
ENDBRANCH  18  20
ENDBRANCH   2  18
TORSDOF 11
ENDMDL
MODEL 7
REMARK VINA RESULT:      -7.2      2.727      9.535
REMARK  Name = 
REMARK  14 active torsions:
REMARK  status: ('A' for Active; 'I' for Inactive)
REMARK    1  A    between atoms: C_1  and  C_2
REMARK    2  A    between atoms: C_2  and  O_3
REMARK    3  A    between atoms: O_3  and  C_4
REMARK    4  A    between atoms: N_9  and  C_10
REMARK    5  A    between atoms: C_11  and  N_12
REMARK    6  A    between atoms: N_12  and  C_13
REMARK    7  A    between atoms: C_13  and  C_14
REMARK    8  A    between atoms: C_14  and  C_15
REMARK    9  A    between atoms: C_18  and  O_19
REMARK   10  A    between atoms: O_19  and  C_20
REMARK   11  A    between atoms: C_20  and  C_21
REMARK   12  A    between atoms: C_22  and  O_23
REMARK   13  A    between atoms: O_23  and  C_24
REMARK   14  A    between atoms: C_24  and  C_25
REMARK                            x       y       z     vdW  Elec       q    Type
REMARK                         _______ _______ _______ _____ _____    ______ ____
ROOT
ATOM      1  C   UNL     1       1.317   8.773  19.563  0.00  0.00    +0.000 C 
ATOM      2  C   UNL     1       2.065   7.646  19.798  0.00  0.00    +0.000 C 
ATOM      3  C   UNL     1       2.778   7.777  18.502  0.00  0.00    +0.000 C 
ATOM      4  O   UNL     1       3.601   7.187  17.843  0.00  0.00    +0.000 OA
ATOM      5  C   UNL     1       1.906   8.938  18.206  0.00  0.00    +0.000 C 
ATOM      6  O   UNL     1       1.807   9.674  17.258  0.00  0.00    +0.000 OA
ENDROOT
BRANCH   1  12
ATOM      7  C   UNL     1      -1.745  12.601  21.906  0.00  0.00    +0.000 C 
ATOM      8  O   UNL     1      -1.598  12.898  23.085  0.00  0.00    +0.000 OA
ATOM      9  N   UNL     1      -0.838  11.860  21.183  0.00  0.00    +0.000 N 
ATOM     10  C   UNL     1       0.337  11.302  21.848  0.00  0.00    +0.000 C 
ATOM     11  C   UNL     1       0.442   9.778  21.622  0.00  0.00    +0.000 C 
ATOM     12  N   UNL     1       0.377   9.476  20.178  0.00  0.00    +0.000 N 
ATOM     13  C   UNL     1      -0.810  10.028  19.494  0.00  0.00    +0.000 C 
ATOM     14  C   UNL     1      -0.967  11.534  19.759  0.00  0.00    +0.000 C 
BRANCH   7  15
ATOM     15  O   UNL     1      -2.870  12.872  21.194  0.00  0.00    +0.000 OA
BRANCH  15  17
ATOM     16  C   UNL     1      -4.745  14.134  21.956  0.00  0.00    +0.000 C 
ATOM     17  C   UNL     1      -4.092  12.763  21.938  0.00  0.00    +0.000 C 
ENDBRANCH  15  17
ENDBRANCH   7  15
ENDBRANCH   1  12
BRANCH   2  18
ATOM     18  N   UNL     1       2.173   6.692  20.705  0.00  0.00    +0.000 N 
ATOM     19  H   UNL     1       2.483   6.906  21.655  0.00  0.00    +0.000 HD
BRANCH  18  20
ATOM     20  C   UNL     1       1.410   5.441  20.601  0.00  0.00    +0.000 C 
BRANCH  20  21
ATOM     21  C   UNL     1       2.383   4.247  20.598  0.00  0.00    +0.000 C 
BRANCH  21  22
ATOM     22  C   UNL     1       3.185   4.096  19.331  0.00  0.00    +0.000 A 
ATOM     23  C   UNL     1       2.600   3.763  18.112  0.00  0.00    +0.000 A 
ATOM     24  C   UNL     1       3.401   3.610  16.974  0.00  0.00    +0.000 A 
ATOM     25  C   UNL     1       4.793   3.793  17.026  0.00  0.00    +0.000 A 
ATOM     26  C   UNL     1       5.390   4.117  18.259  0.00  0.00    +0.000 A 
ATOM     27  C   UNL     1       4.573   4.261  19.389  0.00  0.00    +0.000 A 
BRANCH  25  28
ATOM     28  O   UNL     1       5.405   3.617  15.804  0.00  0.00    +0.000 OA
BRANCH  28  29
ATOM     29  C   UNL     1       5.527   4.752  14.950  0.00  0.00    +0.000 C 
ATOM     30  C   UNL     1       6.944   4.847  14.414  0.00  0.00    +0.000 C 
ENDBRANCH  28  29
ENDBRANCH  25  28
BRANCH  26  31
ATOM     31  O   UNL     1       6.746   4.284  18.310  0.00  0.00    +0.000 OA
BRANCH  31  32
ATOM     32  C   UNL     1       7.323   5.564  18.072  0.00  0.00    +0.000 C 
ATOM     33  C   UNL     1       8.053   6.054  19.310  0.00  0.00    +0.000 C 
ENDBRANCH  31  32
ENDBRANCH  26  31
ENDBRANCH  21  22
ENDBRANCH  20  21
ENDBRANCH  18  20
ENDBRANCH   2  18
TORSDOF 11
ENDMDL
MODEL 8
REMARK VINA RESULT:      -7.2      2.369      3.184
REMARK  Name = 
REMARK  14 active torsions:
REMARK  status: ('A' for Active; 'I' for Inactive)
REMARK    1  A    between atoms: C_1  and  C_2
REMARK    2  A    between atoms: C_2  and  O_3
REMARK    3  A    between atoms: O_3  and  C_4
REMARK    4  A    between atoms: N_9  and  C_10
REMARK    5  A    between atoms: C_11  and  N_12
REMARK    6  A    between atoms: N_12  and  C_13
REMARK    7  A    between atoms: C_13  and  C_14
REMARK    8  A    between atoms: C_14  and  C_15
REMARK    9  A    between atoms: C_18  and  O_19
REMARK   10  A    between atoms: O_19  and  C_20
REMARK   11  A    between atoms: C_20  and  C_21
REMARK   12  A    between atoms: C_22  and  O_23
REMARK   13  A    between atoms: O_23  and  C_24
REMARK   14  A    between atoms: C_24  and  C_25
REMARK                            x       y       z     vdW  Elec       q    Type
REMARK                         _______ _______ _______ _____ _____    ______ ____
ROOT
ATOM      1  C   UNL     1       3.555   5.184  18.644  0.00  0.00    +0.000 C 
ATOM      2  C   UNL     1       2.875   6.105  19.400  0.00  0.00    +0.000 C 
ATOM      3  C   UNL     1       2.635   5.124  20.489  0.00  0.00    +0.000 C 
ATOM      4  O   UNL     1       2.067   5.053  21.552  0.00  0.00    +0.000 OA
ATOM      5  C   UNL     1       3.287   4.104  19.633  0.00  0.00    +0.000 C 
ATOM      6  O   UNL     1       3.503   2.928  19.773  0.00  0.00    +0.000 OA
ENDROOT
BRANCH   1  12
ATOM      7  C   UNL     1       7.073   4.669  14.536  0.00  0.00    +0.000 C 
ATOM      8  O   UNL     1       7.795   5.599  14.198  0.00  0.00    +0.000 OA
ATOM      9  N   UNL     1       6.375   4.632  15.721  0.00  0.00    +0.000 N 
ATOM     10  C   UNL     1       6.401   5.787  16.615  0.00  0.00    +0.000 C 
ATOM     11  C   UNL     1       4.974   6.265  16.960  0.00  0.00    +0.000 C 
ATOM     12  N   UNL     1       4.173   5.134  17.473  0.00  0.00    +0.000 N 
ATOM     13  C   UNL     1       4.132   3.962  16.575  0.00  0.00    +0.000 C 
ATOM     14  C   UNL     1       5.543   3.510  16.169  0.00  0.00    +0.000 C 
BRANCH   7  15
ATOM     15  O   UNL     1       6.784   3.609  13.735  0.00  0.00    +0.000 OA
BRANCH  15  17
ATOM     16  C   UNL     1       5.260   3.309  11.925  0.00  0.00    +0.000 C 
ATOM     17  C   UNL     1       6.574   3.939  12.355  0.00  0.00    +0.000 C 
ENDBRANCH  15  17
ENDBRANCH   7  15
ENDBRANCH   1  12
BRANCH   2  18
ATOM     18  N   UNL     1       2.455   7.354  19.310  0.00  0.00    +0.000 N 
ATOM     19  H   UNL     1       2.771   8.061  19.976  0.00  0.00    +0.000 HD
BRANCH  18  20
ATOM     20  C   UNL     1       1.970   7.915  18.042  0.00  0.00    +0.000 C 
BRANCH  20  21
ATOM     21  C   UNL     1       2.011   9.453  18.112  0.00  0.00    +0.000 C 
BRANCH  21  22
ATOM     22  C   UNL     1       0.682  10.101  18.403  0.00  0.00    +0.000 A 
ATOM     23  C   UNL     1       0.489  10.958  19.483  0.00  0.00    +0.000 A 
ATOM     24  C   UNL     1      -0.777  11.509  19.717  0.00  0.00    +0.000 A 
ATOM     25  C   UNL     1      -1.868  11.225  18.879  0.00  0.00    +0.000 A 
ATOM     26  C   UNL     1      -1.680  10.349  17.793  0.00  0.00    +0.000 A 
ATOM     27  C   UNL     1      -0.408   9.803  17.578  0.00  0.00    +0.000 A 
BRANCH  25  28
ATOM     28  O   UNL     1      -3.022  11.873  19.261  0.00  0.00    +0.000 OA
BRANCH  28  29
ATOM     29  C   UNL     1      -2.932  12.833  20.311  0.00  0.00    +0.000 C 
ATOM     30  C   UNL     1      -4.179  12.777  21.174  0.00  0.00    +0.000 C 
ENDBRANCH  28  29
ENDBRANCH  25  28
BRANCH  26  31
ATOM     31  O   UNL     1      -2.747  10.065  16.986  0.00  0.00    +0.000 OA
BRANCH  31  32
ATOM     32  C   UNL     1      -2.609  10.114  15.569  0.00  0.00    +0.000 C 
ATOM     33  C   UNL     1      -3.965  10.284  14.910  0.00  0.00    +0.000 C 
ENDBRANCH  31  32
ENDBRANCH  26  31
ENDBRANCH  21  22
ENDBRANCH  20  21
ENDBRANCH  18  20
ENDBRANCH   2  18
TORSDOF 11
ENDMDL
MODEL 9
REMARK VINA RESULT:      -7.1      1.517      2.182
REMARK  Name = 
REMARK  14 active torsions:
REMARK  status: ('A' for Active; 'I' for Inactive)
REMARK    1  A    between atoms: C_1  and  C_2
REMARK    2  A    between atoms: C_2  and  O_3
REMARK    3  A    between atoms: O_3  and  C_4
REMARK    4  A    between atoms: N_9  and  C_10
REMARK    5  A    between atoms: C_11  and  N_12
REMARK    6  A    between atoms: N_12  and  C_13
REMARK    7  A    between atoms: C_13  and  C_14
REMARK    8  A    between atoms: C_14  and  C_15
REMARK    9  A    between atoms: C_18  and  O_19
REMARK   10  A    between atoms: O_19  and  C_20
REMARK   11  A    between atoms: C_20  and  C_21
REMARK   12  A    between atoms: C_22  and  O_23
REMARK   13  A    between atoms: O_23  and  C_24
REMARK   14  A    between atoms: C_24  and  C_25
REMARK                            x       y       z     vdW  Elec       q    Type
REMARK                         _______ _______ _______ _____ _____    ______ ____
ROOT
ATOM      1  C   UNL     1       2.912   4.318  19.683  0.00  0.00    +0.000 C 
ATOM      2  C   UNL     1       2.275   4.813  20.792  0.00  0.00    +0.000 C 
ATOM      3  C   UNL     1       1.860   3.457  21.234  0.00  0.00    +0.000 C 
ATOM      4  O   UNL     1       1.213   2.934  22.109  0.00  0.00    +0.000 OA
ATOM      5  C   UNL     1       2.467   2.930  19.988  0.00  0.00    +0.000 C 
ATOM      6  O   UNL     1       2.554   1.826  19.517  0.00  0.00    +0.000 OA
ENDROOT
BRANCH   1  12
ATOM      7  C   UNL     1       6.520   5.297  15.741  0.00  0.00    +0.000 C 
ATOM      8  O   UNL     1       7.518   5.978  15.948  0.00  0.00    +0.000 OA
ATOM      9  N   UNL     1       5.725   4.780  16.738  0.00  0.00    +0.000 N 
ATOM     10  C   UNL     1       6.001   5.114  18.133  0.00  0.00    +0.000 C 
ATOM     11  C   UNL     1       4.754   5.696  18.831  0.00  0.00    +0.000 C 
ATOM     12  N   UNL     1       3.604   4.785  18.654  0.00  0.00    +0.000 N 
ATOM     13  C   UNL     1       3.308   4.446  17.247  0.00  0.00    +0.000 C 
ATOM     14  C   UNL     1       4.556   3.923  16.517  0.00  0.00    +0.000 C 
BRANCH   7  15
ATOM     15  O   UNL     1       6.013   5.059  14.503  0.00  0.00    +0.000 OA
BRANCH  15  17
ATOM     16  C   UNL     1       5.814   3.597  12.628  0.00  0.00    +0.000 C 
ATOM     17  C   UNL     1       6.732   4.080  13.739  0.00  0.00    +0.000 C 
ENDBRANCH  15  17
ENDBRANCH   7  15
ENDBRANCH   1  12
BRANCH   2  18
ATOM     18  N   UNL     1       1.989   5.981  21.341  0.00  0.00    +0.000 N 
ATOM     19  H   UNL     1       2.347   6.225  22.265  0.00  0.00    +0.000 HD
BRANCH  18  20
ATOM     20  C   UNL     1       1.619   7.145  20.525  0.00  0.00    +0.000 C 
BRANCH  20  21
ATOM     21  C   UNL     1       0.660   8.046  21.324  0.00  0.00    +0.000 C 
BRANCH  21  22
ATOM     22  C   UNL     1       0.499   9.438  20.768  0.00  0.00    +0.000 A 
ATOM     23  C   UNL     1       1.000  10.564  21.416  0.00  0.00    +0.000 A 
ATOM     24  C   UNL     1       0.795  11.834  20.864  0.00  0.00    +0.000 A 
ATOM     25  C   UNL     1       0.096  12.005  19.657  0.00  0.00    +0.000 A 
ATOM     26  C   UNL     1      -0.424  10.871  19.005  0.00  0.00    +0.000 A 
ATOM     27  C   UNL     1      -0.213   9.608  19.576  0.00  0.00    +0.000 A 
BRANCH  25  28
ATOM     28  O   UNL     1       0.013  13.324  19.267  0.00  0.00    +0.000 OA
BRANCH  28  29
ATOM     29  C   UNL     1       1.120  13.882  18.563  0.00  0.00    +0.000 C 
ATOM     30  C   UNL     1       1.352  15.313  19.013  0.00  0.00    +0.000 C 
ENDBRANCH  28  29
ENDBRANCH  25  28
BRANCH  26  31
ATOM     31  O   UNL     1      -1.113  11.041  17.837  0.00  0.00    +0.000 OA
BRANCH  31  32
ATOM     32  C   UNL     1      -1.933   9.995  17.327  0.00  0.00    +0.000 C 
ATOM     33  C   UNL     1      -3.328  10.513  17.027  0.00  0.00    +0.000 C 
ENDBRANCH  31  32
ENDBRANCH  26  31
ENDBRANCH  21  22
ENDBRANCH  20  21
ENDBRANCH  18  20
ENDBRANCH   2  18
TORSDOF 11
ENDMDL
