MODEL 1
REMARK VINA RESULT:      -8.5      0.000      0.000
REMARK  Name = 
REMARK  6 active torsions:
REMARK  status: ('A' for Active; 'I' for Inactive)
REMARK    1  A    between atoms: C_1  and  C_2
REMARK    2  A    between atoms: C_2  and  C_3
REMARK    3  A    between atoms: C_8  and  C_10
REMARK    4  A    between atoms: C_13  and  N_14
REMARK    5  A    between atoms: N_14  and  C_15
REMARK    6  A    between atoms: C_18  and  C_19
REMARK                            x       y       z     vdW  Elec       q    Type
REMARK                         _______ _______ _______ _____ _____    ______ ____
ROOT
ATOM      1  C   UNL     1       2.659   7.399  18.891  0.00  0.00    +0.000 A 
ATOM      2  C   UNL     1       2.728   8.173  17.749  0.00  0.00    +0.000 A 
ATOM      3  N   UNL     1       1.995   9.288  17.535  0.00  0.00    +0.000 NA
ATOM      4  C   UNL     1       1.201   9.729  18.533  0.00  0.00    +0.000 A 
ATOM      5  C   UNL     1       1.191   9.087  19.782  0.00  0.00    +0.000 A 
ATOM      6 CL   UNL     1       0.248   9.686  21.100  0.00  0.00    +0.000 Cl
ATOM      7  C   UNL     1       1.924   7.912  19.959  0.00  0.00    +0.000 A 
ENDROOT
BRANCH   1  13
ATOM      8  C   UNL     1       2.517   2.865  19.095  0.00  0.00    +0.000 C 
ATOM      9  C   UNL     1       1.262   2.828  19.995  0.00  0.00    +0.000 C 
ATOM     10  C   UNL     1       0.723   4.226  20.322  0.00  0.00    +0.000 C 
ATOM     11  C   UNL     1       1.835   5.151  20.830  0.00  0.00    +0.000 C 
ATOM     12  N   UNL     1       2.977   5.127  19.911  0.00  0.00    +0.000 N 
ATOM     13  C   UNL     1       3.410   6.141  19.048  0.00  0.00    +0.000 C 
ATOM     14  O   UNL     1       4.425   6.029  18.358  0.00  0.00    +0.000 OA
ATOM     15  C   UNL     1       3.560   3.796  19.748  0.00  0.00    +0.000 C 
BRANCH   8  17
ATOM     16  C   UNL     1       3.445   3.273  16.720  0.00  0.00    +0.000 C 
ATOM     17  C   UNL     1       2.244   3.333  17.647  0.00  0.00    +0.000 C 
ENDBRANCH   8  17
ENDBRANCH   1  13
BRANCH   4  18
ATOM     18  N   UNL     1       0.311  10.776  18.257  0.00  0.00    +0.000 N 
ATOM     19  H   UNL     1       0.761  11.633  17.965  0.00  0.00    +0.000 HD
BRANCH  18  20
ATOM     20  C   UNL     1      -1.091  10.744  18.207  0.00  0.00    +0.000 A 
ATOM     21  C   UNL     1      -1.739   9.839  17.367  0.00  0.00    +0.000 A 
ATOM     22  C   UNL     1      -3.125   9.896  17.201  0.00  0.00    +0.000 A 
ATOM     23  C   UNL     1      -3.848  10.870  17.880  0.00  0.00    +0.000 A 
ATOM     24  C   UNL     1      -5.314  11.064  17.639  0.00  0.00    +0.000 C 
ATOM     25  N   UNL     1      -3.266  11.724  18.748  0.00  0.00    +0.000 NA
ATOM     26  C   UNL     1      -1.918  11.637  18.891  0.00  0.00    +0.000 A 
ENDBRANCH  18  20
ENDBRANCH   4  18
TORSDOF 4
ENDMDL
MODEL 2
REMARK VINA RESULT:      -8.3      0.811      1.207
REMARK  Name = 
REMARK  6 active torsions:
REMARK  status: ('A' for Active; 'I' for Inactive)
REMARK    1  A    between atoms: C_1  and  C_2
REMARK    2  A    between atoms: C_2  and  C_3
REMARK    3  A    between atoms: C_8  and  C_10
REMARK    4  A    between atoms: C_13  and  N_14
REMARK    5  A    between atoms: N_14  and  C_15
REMARK    6  A    between atoms: C_18  and  C_19
REMARK                            x       y       z     vdW  Elec       q    Type
REMARK                         _______ _______ _______ _____ _____    ______ ____
ROOT
ATOM      1  C   UNL     1       2.780   7.214  19.021  0.00  0.00    +0.000 A 
ATOM      2  C   UNL     1       2.906   7.916  17.838  0.00  0.00    +0.000 A 
ATOM      3  N   UNL     1       2.188   9.016  17.521  0.00  0.00    +0.000 NA
ATOM      4  C   UNL     1       1.347   9.516  18.451  0.00  0.00    +0.000 A 
ATOM      5  C   UNL     1       1.275   8.953  19.735  0.00  0.00    +0.000 A 
ATOM      6 CL   UNL     1       0.271   9.630  20.966  0.00  0.00    +0.000 Cl
ATOM      7  C   UNL     1       1.995   7.790  20.019  0.00  0.00    +0.000 A 
ENDROOT
BRANCH   1  13
ATOM      8  C   UNL     1       3.647   2.938  17.762  0.00  0.00    +0.000 C 
ATOM      9  C   UNL     1       2.168   2.603  17.462  0.00  0.00    +0.000 C 
ATOM     10  C   UNL     1       1.230   3.792  17.697  0.00  0.00    +0.000 C 
ATOM     11  C   UNL     1       1.464   4.428  19.072  0.00  0.00    +0.000 C 
ATOM     12  N   UNL     1       2.888   4.718  19.263  0.00  0.00    +0.000 N 
ATOM     13  C   UNL     1       3.519   5.967  19.290  0.00  0.00    +0.000 C 
ATOM     14  O   UNL     1       4.724   6.093  19.517  0.00  0.00    +0.000 OA
ATOM     15  C   UNL     1       3.735   3.527  19.185  0.00  0.00    +0.000 C 
BRANCH   8  17
ATOM     16  C   UNL     1       5.790   4.098  16.908  0.00  0.00    +0.000 C 
ATOM     17  C   UNL     1       4.289   3.921  16.756  0.00  0.00    +0.000 C 
ENDBRANCH   8  17
ENDBRANCH   1  13
BRANCH   4  18
ATOM     18  N   UNL     1       0.474  10.545  18.068  0.00  0.00    +0.000 N 
ATOM     19  H   UNL     1       0.934  11.335  17.636  0.00  0.00    +0.000 HD
BRANCH  18  20
ATOM     20  C   UNL     1      -0.928  10.555  18.087  0.00  0.00    +0.000 A 
ATOM     21  C   UNL     1      -1.644   9.687  17.263  0.00  0.00    +0.000 A 
ATOM     22  C   UNL     1      -3.035   9.789  17.167  0.00  0.00    +0.000 A 
ATOM     23  C   UNL     1      -3.693  10.769  17.899  0.00  0.00    +0.000 A 
ATOM     24  C   UNL     1      -5.162  11.011  17.734  0.00  0.00    +0.000 C 
ATOM     25  N   UNL     1      -3.043  11.588  18.753  0.00  0.00    +0.000 NA
ATOM     26  C   UNL     1      -1.693  11.458  18.827  0.00  0.00    +0.000 A 
ENDBRANCH  18  20
ENDBRANCH   4  18
TORSDOF 4
ENDMDL
MODEL 3
REMARK VINA RESULT:      -7.8      1.974      2.829
REMARK  Name = 
REMARK  6 active torsions:
REMARK  status: ('A' for Active; 'I' for Inactive)
REMARK    1  A    between atoms: C_1  and  C_2
REMARK    2  A    between atoms: C_2  and  C_3
REMARK    3  A    between atoms: C_8  and  C_10
REMARK    4  A    between atoms: C_13  and  N_14
REMARK    5  A    between atoms: N_14  and  C_15
REMARK    6  A    between atoms: C_18  and  C_19
REMARK                            x       y       z     vdW  Elec       q    Type
REMARK                         _______ _______ _______ _____ _____    ______ ____
ROOT
ATOM      1  C   UNL     1       2.528   6.872  19.615  0.00  0.00    +0.000 A 
ATOM      2  C   UNL     1       2.475   7.658  18.480  0.00  0.00    +0.000 A 
ATOM      3  N   UNL     1       1.705   8.761  18.349  0.00  0.00    +0.000 NA
ATOM      4  C   UNL     1       0.999   9.176  19.421  0.00  0.00    +0.000 A 
ATOM      5  C   UNL     1       1.118   8.523  20.659  0.00  0.00    +0.000 A 
ATOM      6 CL   UNL     1       0.292   9.090  22.065  0.00  0.00    +0.000 Cl
ATOM      7  C   UNL     1       1.886   7.360  20.753  0.00  0.00    +0.000 A 
ENDROOT
BRANCH   1  13
ATOM      8  C   UNL     1       2.822   2.473  18.528  0.00  0.00    +0.000 C 
ATOM      9  C   UNL     1       1.347   2.169  18.872  0.00  0.00    +0.000 C 
ATOM     10  C   UNL     1       0.579   3.409  19.346  0.00  0.00    +0.000 C 
ATOM     11  C   UNL     1       1.342   4.153  20.448  0.00  0.00    +0.000 C 
ATOM     12  N   UNL     1       2.724   4.404  20.030  0.00  0.00    +0.000 N 
ATOM     13  C   UNL     1       3.313   5.627  19.686  0.00  0.00    +0.000 C 
ATOM     14  O   UNL     1       4.508   5.727  19.403  0.00  0.00    +0.000 OA
ATOM     15  C   UNL     1       3.470   3.181  19.736  0.00  0.00    +0.000 C 
BRANCH   8  17
ATOM     16  C   UNL     1       4.455   3.544  16.838  0.00  0.00    +0.000 C 
ATOM     17  C   UNL     1       3.011   3.340  17.261  0.00  0.00    +0.000 C 
ENDBRANCH   8  17
ENDBRANCH   1  13
BRANCH   4  18
ATOM     18  N   UNL     1       0.068  10.209  19.242  0.00  0.00    +0.000 N 
ATOM     19  H   UNL     1      -0.891   9.893  19.187  0.00  0.00    +0.000 HD
BRANCH  18  20
ATOM     20  C   UNL     1       0.283  11.595  19.263  0.00  0.00    +0.000 A 
ATOM     21  C   UNL     1      -0.585  12.447  18.581  0.00  0.00    +0.000 A 
ATOM     22  C   UNL     1      -0.298  13.811  18.474  0.00  0.00    +0.000 A 
ATOM     23  C   UNL     1       0.865  14.305  19.053  0.00  0.00    +0.000 A 
ATOM     24  C   UNL     1       1.289  15.728  18.857  0.00  0.00    +0.000 C 
ATOM     25  N   UNL     1       1.698  13.524  19.772  0.00  0.00    +0.000 NA
ATOM     26  C   UNL     1       1.387  12.205  19.862  0.00  0.00    +0.000 A 
ENDBRANCH  18  20
ENDBRANCH   4  18
TORSDOF 4
ENDMDL
MODEL 4
REMARK VINA RESULT:      -7.8      2.105      3.137
REMARK  Name = 
REMARK  6 active torsions:
REMARK  status: ('A' for Active; 'I' for Inactive)
REMARK    1  A    between atoms: C_1  and  C_2
REMARK    2  A    between atoms: C_2  and  C_3
REMARK    3  A    between atoms: C_8  and  C_10
REMARK    4  A    between atoms: C_13  and  N_14
REMARK    5  A    between atoms: N_14  and  C_15
REMARK    6  A    between atoms: C_18  and  C_19
REMARK                            x       y       z     vdW  Elec       q    Type
REMARK                         _______ _______ _______ _____ _____    ______ ____
ROOT
ATOM      1  C   UNL     1       2.694   6.979  18.410  0.00  0.00    +0.000 A 
ATOM      2  C   UNL     1       2.674   8.006  17.486  0.00  0.00    +0.000 A 
ATOM      3  N   UNL     1       2.032   9.181  17.662  0.00  0.00    +0.000 NA
ATOM      4  C   UNL     1       1.436   9.409  18.852  0.00  0.00    +0.000 A 
ATOM      5  C   UNL     1       1.543   8.481  19.900  0.00  0.00    +0.000 A 
ATOM      6 CL   UNL     1       0.864   8.791  21.457  0.00  0.00    +0.000 Cl
ATOM      7  C   UNL     1       2.174   7.256  19.674  0.00  0.00    +0.000 A 
ENDROOT
BRANCH   1  13
ATOM      8  C   UNL     1       6.552   4.682  17.733  0.00  0.00    +0.000 C 
ATOM      9  C   UNL     1       7.165   5.755  16.805  0.00  0.00    +0.000 C 
ATOM     10  C   UNL     1       6.249   6.969  16.613  0.00  0.00    +0.000 C 
ATOM     11  C   UNL     1       4.827   6.543  16.230  0.00  0.00    +0.000 C 
ATOM     12  N   UNL     1       4.327   5.533  17.168  0.00  0.00    +0.000 N 
ATOM     13  C   UNL     1       3.332   5.678  18.142  0.00  0.00    +0.000 C 
ATOM     14  O   UNL     1       2.952   4.737  18.840  0.00  0.00    +0.000 OA
ATOM     15  C   UNL     1       5.148   4.323  17.205  0.00  0.00    +0.000 C 
BRANCH   8  17
ATOM     16  C   UNL     1       7.722   5.707  19.794  0.00  0.00    +0.000 C 
ATOM     17  C   UNL     1       6.451   5.111  19.215  0.00  0.00    +0.000 C 
ENDBRANCH   8  17
ENDBRANCH   1  13
BRANCH   4  18
ATOM     18  N   UNL     1       0.623  10.545  18.978  0.00  0.00    +0.000 N 
ATOM     19  H   UNL     1       1.125  11.383  19.239  0.00  0.00    +0.000 HD
BRANCH  18  20
ATOM     20  C   UNL     1      -0.737  10.686  18.666  0.00  0.00    +0.000 A 
ATOM     21  C   UNL     1      -1.298   9.938  17.632  0.00  0.00    +0.000 A 
ATOM     22  C   UNL     1      -2.611  10.176  17.218  0.00  0.00    +0.000 A 
ATOM     23  C   UNL     1      -3.349  11.172  17.849  0.00  0.00    +0.000 A 
ATOM     24  C   UNL     1      -4.710  11.560  17.361  0.00  0.00    +0.000 C 
ATOM     25  N   UNL     1      -2.862  11.875  18.893  0.00  0.00    +0.000 NA
ATOM     26  C   UNL     1      -1.585  11.614  19.273  0.00  0.00    +0.000 A 
ENDBRANCH  18  20
ENDBRANCH   4  18
TORSDOF 4
ENDMDL
MODEL 5
REMARK VINA RESULT:      -7.7      1.174      1.441
REMARK  Name = 
REMARK  6 active torsions:
REMARK  status: ('A' for Active; 'I' for Inactive)
REMARK    1  A    between atoms: C_1  and  C_2
REMARK    2  A    between atoms: C_2  and  C_3
REMARK    3  A    between atoms: C_8  and  C_10
REMARK    4  A    between atoms: C_13  and  N_14
REMARK    5  A    between atoms: N_14  and  C_15
REMARK    6  A    between atoms: C_18  and  C_19
REMARK                            x       y       z     vdW  Elec       q    Type
REMARK                         _______ _______ _______ _____ _____    ______ ____
ROOT
ATOM      1  C   UNL     1       2.480   6.915  19.784  0.00  0.00    +0.000 A 
ATOM      2  C   UNL     1       2.467   7.812  18.733  0.00  0.00    +0.000 A 
ATOM      3  N   UNL     1       1.726   8.941  18.701  0.00  0.00    +0.000 NA
ATOM      4  C   UNL     1       1.011   9.265  19.798  0.00  0.00    +0.000 A 
ATOM      5  C   UNL     1       1.092   8.487  20.965  0.00  0.00    +0.000 A 
ATOM      6 CL   UNL     1       0.253   8.931  22.409  0.00  0.00    +0.000 Cl
ATOM      7  C   UNL     1       1.829   7.302  20.954  0.00  0.00    +0.000 A 
ENDROOT
BRANCH   1  13
ATOM      8  C   UNL     1       2.589   2.575  18.452  0.00  0.00    +0.000 C 
ATOM      9  C   UNL     1       1.129   2.288  18.870  0.00  0.00    +0.000 C 
ATOM     10  C   UNL     1       0.425   3.518  19.454  0.00  0.00    +0.000 C 
ATOM     11  C   UNL     1       1.273   4.184  20.545  0.00  0.00    +0.000 C 
ATOM     12  N   UNL     1       2.634   4.424  20.056  0.00  0.00    +0.000 N 
ATOM     13  C   UNL     1       3.234   5.649  19.741  0.00  0.00    +0.000 C 
ATOM     14  O   UNL     1       4.412   5.735  19.391  0.00  0.00    +0.000 OA
ATOM     15  C   UNL     1       3.327   3.200  19.654  0.00  0.00    +0.000 C 
BRANCH   8  17
ATOM     16  C   UNL     1       4.150   3.732  16.751  0.00  0.00    +0.000 C 
ATOM     17  C   UNL     1       2.725   3.503  17.223  0.00  0.00    +0.000 C 
ENDBRANCH   8  17
ENDBRANCH   1  13
BRANCH   4  18
ATOM     18  N   UNL     1       0.108  10.334  19.709  0.00  0.00    +0.000 N 
ATOM     19  H   UNL     1       0.277  11.072  20.378  0.00  0.00    +0.000 HD
BRANCH  18  20
ATOM     20  C   UNL     1      -0.887  10.561  18.746  0.00  0.00    +0.000 A 
ATOM     21  C   UNL     1      -1.867  11.528  18.969  0.00  0.00    +0.000 A 
ATOM     22  C   UNL     1      -2.943  11.661  18.088  0.00  0.00    +0.000 A 
ATOM     23  C   UNL     1      -3.026  10.813  16.989  0.00  0.00    +0.000 A 
ATOM     24  C   UNL     1      -4.221  10.821  16.087  0.00  0.00    +0.000 C 
ATOM     25  N   UNL     1      -2.067   9.907  16.706  0.00  0.00    +0.000 NA
ATOM     26  C   UNL     1      -1.032   9.808  17.580  0.00  0.00    +0.000 A 
ENDBRANCH  18  20
ENDBRANCH   4  18
TORSDOF 4
ENDMDL
MODEL 6
REMARK VINA RESULT:      -7.7      1.983      2.857
REMARK  Name = 
REMARK  6 active torsions:
REMARK  status: ('A' for Active; 'I' for Inactive)
REMARK    1  A    between atoms: C_1  and  C_2
REMARK    2  A    between atoms: C_2  and  C_3
REMARK    3  A    between atoms: C_8  and  C_10
REMARK    4  A    between atoms: C_13  and  N_14
REMARK    5  A    between atoms: N_14  and  C_15
REMARK    6  A    between atoms: C_18  and  C_19
REMARK                            x       y       z     vdW  Elec       q    Type
REMARK                         _______ _______ _______ _____ _____    ______ ____
ROOT
ATOM      1  C   UNL     1       2.964   6.992  18.988  0.00  0.00    +0.000 A 
ATOM      2  C   UNL     1       3.053   7.764  17.846  0.00  0.00    +0.000 A 
ATOM      3  N   UNL     1       2.276   8.839  17.587  0.00  0.00    +0.000 NA
ATOM      4  C   UNL     1       1.408   9.241  18.540  0.00  0.00    +0.000 A 
ATOM      5  C   UNL     1       1.366   8.605  19.791  0.00  0.00    +0.000 A 
ATOM      6 CL   UNL     1       0.326   9.158  21.054  0.00  0.00    +0.000 Cl
ATOM      7  C   UNL     1       2.148   7.469  20.013  0.00  0.00    +0.000 A 
ENDROOT
BRANCH   1  13
ATOM      8  C   UNL     1       3.779   2.699  17.753  0.00  0.00    +0.000 C 
ATOM      9  C   UNL     1       2.284   2.316  17.668  0.00  0.00    +0.000 C 
ATOM     10  C   UNL     1       1.351   3.488  17.994  0.00  0.00    +0.000 C 
ATOM     11  C   UNL     1       1.751   4.177  19.304  0.00  0.00    +0.000 C 
ATOM     12  N   UNL     1       3.179   4.509  19.289  0.00  0.00    +0.000 N 
ATOM     13  C   UNL     1       3.770   5.774  19.191  0.00  0.00    +0.000 C 
ATOM     14  O   UNL     1       4.989   5.938  19.247  0.00  0.00    +0.000 OA
ATOM     15  C   UNL     1       4.042   3.339  19.132  0.00  0.00    +0.000 C 
BRANCH   8  17
ATOM     16  C   UNL     1       5.753   3.857  16.558  0.00  0.00    +0.000 C 
ATOM     17  C   UNL     1       4.249   3.663  16.640  0.00  0.00    +0.000 C 
ENDBRANCH   8  17
ENDBRANCH   1  13
BRANCH   4  18
ATOM     18  N   UNL     1       0.481  10.240  18.211  0.00  0.00    +0.000 N 
ATOM     19  H   UNL     1      -0.342   9.897  17.734  0.00  0.00    +0.000 HD
BRANCH  18  20
ATOM     20  C   UNL     1       0.491  11.596  18.570  0.00  0.00    +0.000 A 
ATOM     21  C   UNL     1      -0.708  12.262  18.818  0.00  0.00    +0.000 A 
ATOM     22  C   UNL     1      -0.720  13.643  19.033  0.00  0.00    +0.000 A 
ATOM     23  C   UNL     1       0.480  14.344  18.991  0.00  0.00    +0.000 A 
ATOM     24  C   UNL     1       0.513  15.838  19.082  0.00  0.00    +0.000 C 
ATOM     25  N   UNL     1       1.667  13.727  18.814  0.00  0.00    +0.000 NA
ATOM     26  C   UNL     1       1.643  12.384  18.615  0.00  0.00    +0.000 A 
ENDBRANCH  18  20
ENDBRANCH   4  18
TORSDOF 4
ENDMDL
MODEL 7
REMARK VINA RESULT:      -7.6      5.212      7.489
REMARK  Name = 
REMARK  6 active torsions:
REMARK  status: ('A' for Active; 'I' for Inactive)
REMARK    1  A    between atoms: C_1  and  C_2
REMARK    2  A    between atoms: C_2  and  C_3
REMARK    3  A    between atoms: C_8  and  C_10
REMARK    4  A    between atoms: C_13  and  N_14
REMARK    5  A    between atoms: N_14  and  C_15
REMARK    6  A    between atoms: C_18  and  C_19
REMARK                            x       y       z     vdW  Elec       q    Type
REMARK                         _______ _______ _______ _____ _____    ______ ____
ROOT
ATOM      1  C   UNL     1       4.285   6.107  17.761  0.00  0.00    +0.000 A 
ATOM      2  C   UNL     1       4.732   6.911  16.730  0.00  0.00    +0.000 A 
ATOM      3  N   UNL     1       5.975   7.432  16.651  0.00  0.00    +0.000 NA
ATOM      4  C   UNL     1       6.874   7.083  17.596  0.00  0.00    +0.000 A 
ATOM      5  C   UNL     1       6.545   6.148  18.591  0.00  0.00    +0.000 A 
ATOM      6 CL   UNL     1       7.705   5.621  19.757  0.00  0.00    +0.000 Cl
ATOM      7  C   UNL     1       5.239   5.660  18.674  0.00  0.00    +0.000 A 
ENDROOT
BRANCH   1  13
ATOM      8  C   UNL     1       1.419   2.963  19.349  0.00  0.00    +0.000 C 
ATOM      9  C   UNL     1       2.344   1.775  19.001  0.00  0.00    +0.000 C 
ATOM     10  C   UNL     1       3.668   2.219  18.367  0.00  0.00    +0.000 C 
ATOM     11  C   UNL     1       3.436   3.197  17.209  0.00  0.00    +0.000 C 
ATOM     12  N   UNL     1       2.557   4.290  17.635  0.00  0.00    +0.000 N 
ATOM     13  C   UNL     1       2.893   5.631  17.854  0.00  0.00    +0.000 C 
ATOM     14  O   UNL     1       2.053   6.480  18.157  0.00  0.00    +0.000 OA
ATOM     15  C   UNL     1       1.244   3.832  18.087  0.00  0.00    +0.000 C 
BRANCH   8  17
ATOM     16  C   UNL     1       2.239   3.087  21.795  0.00  0.00    +0.000 C 
ATOM     17  C   UNL     1       1.930   3.842  20.514  0.00  0.00    +0.000 C 
ENDBRANCH   8  17
ENDBRANCH   1  13
BRANCH   4  18
ATOM     18  N   UNL     1       8.104   7.754  17.620  0.00  0.00    +0.000 N 
ATOM     19  H   UNL     1       8.837   7.289  17.102  0.00  0.00    +0.000 HD
BRANCH  18  20
ATOM     20  C   UNL     1       8.400   9.021  18.145  0.00  0.00    +0.000 A 
ATOM     21  C   UNL     1       8.139  10.167  17.394  0.00  0.00    +0.000 A 
ATOM     22  C   UNL     1       8.563  11.420  17.845  0.00  0.00    +0.000 A 
ATOM     23  C   UNL     1       9.251  11.508  19.050  0.00  0.00    +0.000 A 
ATOM     24  C   UNL     1       9.843  12.802  19.516  0.00  0.00    +0.000 C 
ATOM     25  N   UNL     1       9.469  10.431  19.834  0.00  0.00    +0.000 NA
ATOM     26  C   UNL     1       9.039   9.230  19.369  0.00  0.00    +0.000 A 
ENDBRANCH  18  20
ENDBRANCH   4  18
TORSDOF 4
ENDMDL
MODEL 8
REMARK VINA RESULT:      -7.6      2.419      3.024
REMARK  Name = 
REMARK  6 active torsions:
REMARK  status: ('A' for Active; 'I' for Inactive)
REMARK    1  A    between atoms: C_1  and  C_2
REMARK    2  A    between atoms: C_2  and  C_3
REMARK    3  A    between atoms: C_8  and  C_10
REMARK    4  A    between atoms: C_13  and  N_14
REMARK    5  A    between atoms: N_14  and  C_15
REMARK    6  A    between atoms: C_18  and  C_19
REMARK                            x       y       z     vdW  Elec       q    Type
REMARK                         _______ _______ _______ _____ _____    ______ ____
ROOT
ATOM      1  C   UNL     1       2.501   6.666  19.921  0.00  0.00    +0.000 A 
ATOM      2  C   UNL     1       1.727   7.049  21.000  0.00  0.00    +0.000 A 
ATOM      3  N   UNL     1       1.108   8.244  21.111  0.00  0.00    +0.000 NA
ATOM      4  C   UNL     1       1.177   9.096  20.067  0.00  0.00    +0.000 A 
ATOM      5  C   UNL     1       1.813   8.721  18.872  0.00  0.00    +0.000 A 
ATOM      6 CL   UNL     1       1.837   9.762  17.494  0.00  0.00    +0.000 Cl
ATOM      7  C   UNL     1       2.482   7.498  18.802  0.00  0.00    +0.000 A 
ENDROOT
BRANCH   1  13
ATOM      8  C   UNL     1       2.626   2.383  18.416  0.00  0.00    +0.000 C 
ATOM      9  C   UNL     1       1.134   2.111  18.714  0.00  0.00    +0.000 C 
ATOM     10  C   UNL     1       0.413   3.331  19.298  0.00  0.00    +0.000 C 
ATOM     11  C   UNL     1       1.190   3.933  20.475  0.00  0.00    +0.000 C 
ATOM     12  N   UNL     1       2.588   4.163  20.097  0.00  0.00    +0.000 N 
ATOM     13  C   UNL     1       3.232   5.387  19.879  0.00  0.00    +0.000 C 
ATOM     14  O   UNL     1       4.434   5.462  19.619  0.00  0.00    +0.000 OA
ATOM     15  C   UNL     1       3.285   2.943  19.693  0.00  0.00    +0.000 C 
BRANCH   8  17
ATOM     16  C   UNL     1       4.325   3.541  16.854  0.00  0.00    +0.000 C 
ATOM     17  C   UNL     1       2.868   3.359  17.241  0.00  0.00    +0.000 C 
ENDBRANCH   8  17
ENDBRANCH   1  13
BRANCH   4  18
ATOM     18  N   UNL     1       0.690  10.399  20.243  0.00  0.00    +0.000 N 
ATOM     19  H   UNL     1       1.086  11.077  19.605  0.00  0.00    +0.000 HD
BRANCH  18  20
ATOM     20  C   UNL     1      -0.347  10.841  21.078  0.00  0.00    +0.000 A 
ATOM     21  C   UNL     1      -1.335  11.688  20.577  0.00  0.00    +0.000 A 
ATOM     22  C   UNL     1      -2.286  12.249  21.434  0.00  0.00    +0.000 A 
ATOM     23  C   UNL     1      -2.232  11.954  22.791  0.00  0.00    +0.000 A 
ATOM     24  C   UNL     1      -3.140  12.629  23.772  0.00  0.00    +0.000 C 
ATOM     25  N   UNL     1      -1.329  11.092  23.304  0.00  0.00    +0.000 NA
ATOM     26  C   UNL     1      -0.423  10.560  22.444  0.00  0.00    +0.000 A 
ENDBRANCH  18  20
ENDBRANCH   4  18
TORSDOF 4
ENDMDL
MODEL 9
REMARK VINA RESULT:      -7.6      1.601      2.179
REMARK  Name = 
REMARK  6 active torsions:
REMARK  status: ('A' for Active; 'I' for Inactive)
REMARK    1  A    between atoms: C_1  and  C_2
REMARK    2  A    between atoms: C_2  and  C_3
REMARK    3  A    between atoms: C_8  and  C_10
REMARK    4  A    between atoms: C_13  and  N_14
REMARK    5  A    between atoms: N_14  and  C_15
REMARK    6  A    between atoms: C_18  and  C_19
REMARK                            x       y       z     vdW  Elec       q    Type
REMARK                         _______ _______ _______ _____ _____    ______ ____
ROOT
ATOM      1  C   UNL     1       2.727   6.582  19.757  0.00  0.00    +0.000 A 
ATOM      2  C   UNL     1       1.794   6.773  20.759  0.00  0.00    +0.000 A 
ATOM      3  N   UNL     1       1.025   7.876  20.886  0.00  0.00    +0.000 NA
ATOM      4  C   UNL     1       1.107   8.824  19.930  0.00  0.00    +0.000 A 
ATOM      5  C   UNL     1       1.917   8.636  18.797  0.00  0.00    +0.000 A 
ATOM      6 CL   UNL     1       1.970   9.797  17.520  0.00  0.00    +0.000 Cl
ATOM      7  C   UNL     1       2.735   7.508  18.715  0.00  0.00    +0.000 A 
ENDROOT
BRANCH   1  13
ATOM      8  C   UNL     1       3.679   2.605  17.783  0.00  0.00    +0.000 C 
ATOM      9  C   UNL     1       2.205   2.144  17.733  0.00  0.00    +0.000 C 
ATOM     10  C   UNL     1       1.236   3.186  18.305  0.00  0.00    +0.000 C 
ATOM     11  C   UNL     1       1.695   3.680  19.682  0.00  0.00    +0.000 C 
ATOM     12  N   UNL     1       3.097   4.103  19.631  0.00  0.00    +0.000 N 
ATOM     13  C   UNL     1       3.610   5.403  19.706  0.00  0.00    +0.000 C 
ATOM     14  O   UNL     1       4.820   5.635  19.709  0.00  0.00    +0.000 OA
ATOM     15  C   UNL     1       4.008   3.031  19.229  0.00  0.00    +0.000 C 
BRANCH   8  17
ATOM     16  C   UNL     1       5.493   3.948  16.529  0.00  0.00    +0.000 C 
ATOM     17  C   UNL     1       4.013   3.764  16.816  0.00  0.00    +0.000 C 
ENDBRANCH   8  17
ENDBRANCH   1  13
BRANCH   4  18
ATOM     18  N   UNL     1       0.447  10.042  20.146  0.00  0.00    +0.000 N 
ATOM     19  H   UNL     1       0.931  10.666  20.777  0.00  0.00    +0.000 HD
BRANCH  18  20
ATOM     20  C   UNL     1      -0.700  10.541  19.510  0.00  0.00    +0.000 A 
ATOM     21  C   UNL     1      -1.299  11.713  19.970  0.00  0.00    +0.000 A 
ATOM     22  C   UNL     1      -2.520  12.139  19.440  0.00  0.00    +0.000 A 
ATOM     23  C   UNL     1      -3.130  11.376  18.451  0.00  0.00    +0.000 A 
ATOM     24  C   UNL     1      -4.498  11.711  17.941  0.00  0.00    +0.000 C 
ATOM     25  N   UNL     1      -2.553  10.270  17.937  0.00  0.00    +0.000 NA
ATOM     26  C   UNL     1      -1.364   9.888  18.471  0.00  0.00    +0.000 A 
ENDBRANCH  18  20
ENDBRANCH   4  18
TORSDOF 4
ENDMDL
