MODEL 1
REMARK VINA RESULT:      -8.6      0.000      0.000
REMARK  Name = 
REMARK  3 active torsions:
REMARK  status: ('A' for Active; 'I' for Inactive)
REMARK    1  A    between atoms: N_19  and  C_20
REMARK    2  A    between atoms: C_20  and  C_21
REMARK    3  A    between atoms: C_21  and  N_22
REMARK                            x       y       z     vdW  Elec       q    Type
REMARK                         _______ _______ _______ _____ _____    ______ ____
ROOT
ATOM      1  O   UNL     1       4.348   2.474  17.487  0.00  0.00    +0.000 OA
ATOM      2  C   UNL     1       4.026   3.601  17.860  0.00  0.00    +0.000 C 
ATOM      3  C   UNL     1       3.231   3.739  19.094  0.00  0.00    +0.000 A 
ATOM      4  C   UNL     1       3.017   2.597  19.886  0.00  0.00    +0.000 A 
ATOM      5  C   UNL     1       2.267   2.687  21.050  0.00  0.00    +0.000 A 
ATOM      6  C   UNL     1       1.722   3.913  21.414  0.00  0.00    +0.000 A 
ATOM      7  C   UNL     1       1.927   5.058  20.626  0.00  0.00    +0.000 A 
ATOM      8  C   UNL     1       1.355   6.273  21.009  0.00  0.00    +0.000 A 
ATOM      9  C   UNL     1       1.524   7.432  20.247  0.00  0.00    +0.000 A 
ATOM     10  C   UNL     1       0.911   8.618  20.695  0.00  0.00    +0.000 A 
ATOM     11  C   UNL     1       1.040   9.809  19.986  0.00  0.00    +0.000 A 
ATOM     12  C   UNL     1       1.787   9.821  18.823  0.00  0.00    +0.000 A 
ATOM     13  C   UNL     1       2.401   8.649  18.371  0.00  0.00    +0.000 A 
ATOM     14  C   UNL     1       2.296   7.407  19.059  0.00  0.00    +0.000 A 
ATOM     15  C   UNL     1       2.890   6.153  18.668  0.00  0.00    +0.000 A 
ATOM     16  C   UNL     1       2.699   4.987  19.445  0.00  0.00    +0.000 A 
ATOM     17  C   UNL     1       3.718   6.007  17.421  0.00  0.00    +0.000 C 
ATOM     18  O   UNL     1       3.813   6.931  16.615  0.00  0.00    +0.000 OA
ATOM     19  N   UNL     1       4.324   4.770  17.172  0.00  0.00    +0.000 N 
ENDROOT
BRANCH  19  20
ATOM     20  C   UNL     1       5.086   4.628  15.928  0.00  0.00    +0.000 C 
BRANCH  20  21
ATOM     21  C   UNL     1       6.510   4.042  16.073  0.00  0.00    +0.000 C 
BRANCH  21  22
ATOM     22  N   UNL     1       7.575   4.931  16.578  0.00  0.00    +0.000 NA
ATOM     23  C   UNL     1       7.869   4.615  17.992  0.00  0.00    +0.000 C 
ATOM     24  C   UNL     1       7.245   5.733  18.804  0.00  0.00    +0.000 C 
ATOM     25  C   UNL     1       7.468   6.929  17.910  0.00  0.00    +0.000 C 
ATOM     26  C   UNL     1       7.233   6.364  16.515  0.00  0.00    +0.000 C 
ENDBRANCH  21  22
ENDBRANCH  20  21
ENDBRANCH  19  20
TORSDOF 3
ENDMDL
MODEL 2
REMARK VINA RESULT:      -8.2      2.498      6.387
REMARK  Name = 
REMARK  3 active torsions:
REMARK  status: ('A' for Active; 'I' for Inactive)
REMARK    1  A    between atoms: N_19  and  C_20
REMARK    2  A    between atoms: C_20  and  C_21
REMARK    3  A    between atoms: C_21  and  N_22
REMARK                            x       y       z     vdW  Elec       q    Type
REMARK                         _______ _______ _______ _____ _____    ______ ____
ROOT
ATOM      1  O   UNL     1       1.192   7.311  21.100  0.00  0.00    +0.000 OA
ATOM      2  C   UNL     1       1.794   6.917  20.103  0.00  0.00    +0.000 C 
ATOM      3  C   UNL     1       2.160   5.492  20.013  0.00  0.00    +0.000 A 
ATOM      4  C   UNL     1       1.660   4.608  20.986  0.00  0.00    +0.000 A 
ATOM      5  C   UNL     1       1.990   3.261  20.938  0.00  0.00    +0.000 A 
ATOM      6  C   UNL     1       2.827   2.801  19.928  0.00  0.00    +0.000 A 
ATOM      7  C   UNL     1       3.335   3.678  18.955  0.00  0.00    +0.000 A 
ATOM      8  C   UNL     1       4.186   3.191  17.960  0.00  0.00    +0.000 A 
ATOM      9  C   UNL     1       4.722   4.032  16.981  0.00  0.00    +0.000 A 
ATOM     10  C   UNL     1       5.577   3.468  16.015  0.00  0.00    +0.000 A 
ATOM     11  C   UNL     1       6.144   4.247  15.011  0.00  0.00    +0.000 A 
ATOM     12  C   UNL     1       5.857   5.598  14.965  0.00  0.00    +0.000 A 
ATOM     13  C   UNL     1       5.006   6.167  15.919  0.00  0.00    +0.000 A 
ATOM     14  C   UNL     1       4.406   5.413  16.966  0.00  0.00    +0.000 A 
ATOM     15  C   UNL     1       3.523   5.914  17.991  0.00  0.00    +0.000 A 
ATOM     16  C   UNL     1       2.999   5.050  18.981  0.00  0.00    +0.000 A 
ATOM     17  C   UNL     1       3.129   7.363  18.079  0.00  0.00    +0.000 C 
ATOM     18  O   UNL     1       3.652   8.203  17.350  0.00  0.00    +0.000 OA
ATOM     19  N   UNL     1       2.199   7.736  19.057  0.00  0.00    +0.000 N 
ENDROOT
BRANCH  19  20
ATOM     20  C   UNL     1       1.864   9.159  19.162  0.00  0.00    +0.000 C 
BRANCH  20  21
ATOM     21  C   UNL     1       0.704   9.646  18.263  0.00  0.00    +0.000 C 
BRANCH  21  22
ATOM     22  N   UNL     1      -0.567  10.019  18.914  0.00  0.00    +0.000 NA
ATOM     23  C   UNL     1      -1.601  10.283  17.892  0.00  0.00    +0.000 C 
ATOM     24  C   UNL     1      -1.764  11.790  17.847  0.00  0.00    +0.000 C 
ATOM     25  C   UNL     1      -1.578  12.166  19.298  0.00  0.00    +0.000 C 
ATOM     26  C   UNL     1      -0.471  11.225  19.758  0.00  0.00    +0.000 C 
ENDBRANCH  21  22
ENDBRANCH  20  21
ENDBRANCH  19  20
TORSDOF 3
ENDMDL
MODEL 3
REMARK VINA RESULT:      -8.2      2.381      6.179
REMARK  Name = 
REMARK  3 active torsions:
REMARK  status: ('A' for Active; 'I' for Inactive)
REMARK    1  A    between atoms: N_19  and  C_20
REMARK    2  A    between atoms: C_20  and  C_21
REMARK    3  A    between atoms: C_21  and  N_22
REMARK                            x       y       z     vdW  Elec       q    Type
REMARK                         _______ _______ _______ _____ _____    ______ ____
ROOT
ATOM      1  O   UNL     1       1.123   6.932  21.101  0.00  0.00    +0.000 OA
ATOM      2  C   UNL     1       1.742   6.592  20.095  0.00  0.00    +0.000 C 
ATOM      3  C   UNL     1       2.053   5.164  19.904  0.00  0.00    +0.000 A 
ATOM      4  C   UNL     1       1.486   4.229  20.788  0.00  0.00    +0.000 A 
ATOM      5  C   UNL     1       1.761   2.877  20.643  0.00  0.00    +0.000 A 
ATOM      6  C   UNL     1       2.613   2.461  19.626  0.00  0.00    +0.000 A 
ATOM      7  C   UNL     1       3.188   3.389  18.742  0.00  0.00    +0.000 A 
ATOM      8  C   UNL     1       4.052   2.945  17.737  0.00  0.00    +0.000 A 
ATOM      9  C   UNL     1       4.654   3.836  16.845  0.00  0.00    +0.000 A 
ATOM     10  C   UNL     1       5.518   3.312  15.864  0.00  0.00    +0.000 A 
ATOM     11  C   UNL     1       6.150   4.142  14.942  0.00  0.00    +0.000 A 
ATOM     12  C   UNL     1       5.919   5.504  14.995  0.00  0.00    +0.000 A 
ATOM     13  C   UNL     1       5.061   6.033  15.965  0.00  0.00    +0.000 A 
ATOM     14  C   UNL     1       4.395   5.226  16.930  0.00  0.00    +0.000 A 
ATOM     15  C   UNL     1       3.499   5.683  17.964  0.00  0.00    +0.000 A 
ATOM     16  C   UNL     1       2.907   4.768  18.865  0.00  0.00    +0.000 A 
ATOM     17  C   UNL     1       3.162   7.136  18.154  0.00  0.00    +0.000 C 
ATOM     18  O   UNL     1       3.743   8.007  17.511  0.00  0.00    +0.000 OA
ATOM     19  N   UNL     1       2.215   7.472  19.130  0.00  0.00    +0.000 N 
ENDROOT
BRANCH  19  20
ATOM     20  C   UNL     1       1.934   8.895  19.338  0.00  0.00    +0.000 C 
BRANCH  20  21
ATOM     21  C   UNL     1       0.849   9.508  18.422  0.00  0.00    +0.000 C 
BRANCH  21  22
ATOM     22  N   UNL     1      -0.189  10.350  19.049  0.00  0.00    +0.000 NA
ATOM     23  C   UNL     1       0.149  11.779  18.882  0.00  0.00    +0.000 C 
ATOM     24  C   UNL     1       0.637  12.250  20.238  0.00  0.00    +0.000 C 
ATOM     25  C   UNL     1      -0.249  11.466  21.177  0.00  0.00    +0.000 C 
ATOM     26  C   UNL     1      -0.357  10.108  20.494  0.00  0.00    +0.000 C 
ENDBRANCH  21  22
ENDBRANCH  20  21
ENDBRANCH  19  20
TORSDOF 3
ENDMDL
MODEL 4
REMARK VINA RESULT:      -7.8      1.816      4.582
REMARK  Name = 
REMARK  3 active torsions:
REMARK  status: ('A' for Active; 'I' for Inactive)
REMARK    1  A    between atoms: N_19  and  C_20
REMARK    2  A    between atoms: C_20  and  C_21
REMARK    3  A    between atoms: C_21  and  N_22
REMARK                            x       y       z     vdW  Elec       q    Type
REMARK                         _______ _______ _______ _____ _____    ______ ____
ROOT
ATOM      1  O   UNL     1       6.097   7.595  16.520  0.00  0.00    +0.000 OA
ATOM      2  C   UNL     1       5.472   6.746  17.154  0.00  0.00    +0.000 C 
ATOM      3  C   UNL     1       4.143   7.096  17.687  0.00  0.00    +0.000 A 
ATOM      4  C   UNL     1       3.568   8.321  17.306  0.00  0.00    +0.000 A 
ATOM      5  C   UNL     1       2.322   8.687  17.793  0.00  0.00    +0.000 A 
ATOM      6  C   UNL     1       1.657   7.836  18.669  0.00  0.00    +0.000 A 
ATOM      7  C   UNL     1       2.226   6.612  19.058  0.00  0.00    +0.000 A 
ATOM      8  C   UNL     1       1.542   5.783  19.950  0.00  0.00    +0.000 A 
ATOM      9  C   UNL     1       2.078   4.564  20.372  0.00  0.00    +0.000 A 
ATOM     10  C   UNL     1       1.331   3.787  21.278  0.00  0.00    +0.000 A 
ATOM     11  C   UNL     1       1.805   2.561  21.738  0.00  0.00    +0.000 A 
ATOM     12  C   UNL     1       3.030   2.103  21.291  0.00  0.00    +0.000 A 
ATOM     13  C   UNL     1       3.777   2.867  20.389  0.00  0.00    +0.000 A 
ATOM     14  C   UNL     1       3.338   4.127  19.893  0.00  0.00    +0.000 A 
ATOM     15  C   UNL     1       4.041   4.981  18.969  0.00  0.00    +0.000 A 
ATOM     16  C   UNL     1       3.488   6.217  18.561  0.00  0.00    +0.000 A 
ATOM     17  C   UNL     1       5.389   4.624  18.406  0.00  0.00    +0.000 C 
ATOM     18  O   UNL     1       6.004   3.642  18.817  0.00  0.00    +0.000 OA
ATOM     19  N   UNL     1       5.952   5.476  17.449  0.00  0.00    +0.000 N 
ENDROOT
BRANCH  19  20
ATOM     20  C   UNL     1       7.288   5.142  16.947  0.00  0.00    +0.000 C 
BRANCH  20  21
ATOM     21  C   UNL     1       7.330   4.345  15.622  0.00  0.00    +0.000 C 
BRANCH  21  22
ATOM     22  N   UNL     1       6.785   4.990  14.410  0.00  0.00    +0.000 NA
ATOM     23  C   UNL     1       5.604   4.244  13.928  0.00  0.00    +0.000 C 
ATOM     24  C   UNL     1       6.068   3.479  12.704  0.00  0.00    +0.000 C 
ATOM     25  C   UNL     1       7.043   4.450  12.082  0.00  0.00    +0.000 C 
ATOM     26  C   UNL     1       7.744   5.055  13.291  0.00  0.00    +0.000 C 
ENDBRANCH  21  22
ENDBRANCH  20  21
ENDBRANCH  19  20
TORSDOF 3
ENDMDL
MODEL 5
REMARK VINA RESULT:      -7.7      0.901      1.051
REMARK  Name = 
REMARK  3 active torsions:
REMARK  status: ('A' for Active; 'I' for Inactive)
REMARK    1  A    between atoms: N_19  and  C_20
REMARK    2  A    between atoms: C_20  and  C_21
REMARK    3  A    between atoms: C_21  and  N_22
REMARK                            x       y       z     vdW  Elec       q    Type
REMARK                         _______ _______ _______ _____ _____    ______ ____
ROOT
ATOM      1  O   UNL     1       4.599   3.368  16.317  0.00  0.00    +0.000 OA
ATOM      2  C   UNL     1       4.169   4.245  17.064  0.00  0.00    +0.000 C 
ATOM      3  C   UNL     1       3.356   3.848  18.227  0.00  0.00    +0.000 A 
ATOM      4  C   UNL     1       3.245   2.481  18.535  0.00  0.00    +0.000 A 
ATOM      5  C   UNL     1       2.483   2.070  19.618  0.00  0.00    +0.000 A 
ATOM      6  C   UNL     1       1.820   3.022  20.385  0.00  0.00    +0.000 A 
ATOM      7  C   UNL     1       1.921   4.390  20.082  0.00  0.00    +0.000 A 
ATOM      8  C   UNL     1       1.234   5.324  20.861  0.00  0.00    +0.000 A 
ATOM      9  C   UNL     1       1.298   6.692  20.586  0.00  0.00    +0.000 A 
ATOM     10  C   UNL     1       0.571   7.571  21.413  0.00  0.00    +0.000 A 
ATOM     11  C   UNL     1       0.592   8.946  21.197  0.00  0.00    +0.000 A 
ATOM     12  C   UNL     1       1.342   9.452  20.152  0.00  0.00    +0.000 A 
ATOM     13  C   UNL     1       2.068   8.587  19.327  0.00  0.00    +0.000 A 
ATOM     14  C   UNL     1       2.077   7.175  19.505  0.00  0.00    +0.000 A 
ATOM     15  C   UNL     1       2.790   6.210  18.705  0.00  0.00    +0.000 A 
ATOM     16  C   UNL     1       2.705   4.827  18.991  0.00  0.00    +0.000 A 
ATOM     17  C   UNL     1       3.636   6.607  17.527  0.00  0.00    +0.000 C 
ATOM     18  O   UNL     1       3.649   7.768  17.123  0.00  0.00    +0.000 OA
ATOM     19  N   UNL     1       4.359   5.607  16.866  0.00  0.00    +0.000 N 
ENDROOT
BRANCH  19  20
ATOM     20  C   UNL     1       5.140   6.001  15.690  0.00  0.00    +0.000 C 
BRANCH  20  21
ATOM     21  C   UNL     1       6.474   5.248  15.484  0.00  0.00    +0.000 C 
BRANCH  21  22
ATOM     22  N   UNL     1       7.618   5.618  16.341  0.00  0.00    +0.000 NA
ATOM     23  C   UNL     1       7.816   4.596  17.389  0.00  0.00    +0.000 C 
ATOM     24  C   UNL     1       7.300   5.213  18.674  0.00  0.00    +0.000 C 
ATOM     25  C   UNL     1       7.699   6.660  18.506  0.00  0.00    +0.000 C 
ATOM     26  C   UNL     1       7.452   6.915  17.023  0.00  0.00    +0.000 C 
ENDBRANCH  21  22
ENDBRANCH  20  21
ENDBRANCH  19  20
TORSDOF 3
ENDMDL
MODEL 6
REMARK VINA RESULT:      -7.6      2.537      6.360
REMARK  Name = 
REMARK  3 active torsions:
REMARK  status: ('A' for Active; 'I' for Inactive)
REMARK    1  A    between atoms: N_19  and  C_20
REMARK    2  A    between atoms: C_20  and  C_21
REMARK    3  A    between atoms: C_21  and  N_22
REMARK                            x       y       z     vdW  Elec       q    Type
REMARK                         _______ _______ _______ _____ _____    ______ ____
ROOT
ATOM      1  O   UNL     1       1.117   6.827  21.398  0.00  0.00    +0.000 OA
ATOM      2  C   UNL     1       1.712   6.546  20.359  0.00  0.00    +0.000 C 
ATOM      3  C   UNL     1       2.101   5.144  20.122  0.00  0.00    +0.000 A 
ATOM      4  C   UNL     1       1.630   4.158  21.007  0.00  0.00    +0.000 A 
ATOM      5  C   UNL     1       1.981   2.829  20.820  0.00  0.00    +0.000 A 
ATOM      6  C   UNL     1       2.813   2.488  19.759  0.00  0.00    +0.000 A 
ATOM      7  C   UNL     1       3.292   3.467  18.874  0.00  0.00    +0.000 A 
ATOM      8  C   UNL     1       4.137   3.098  17.825  0.00  0.00    +0.000 A 
ATOM      9  C   UNL     1       4.646   4.043  16.929  0.00  0.00    +0.000 A 
ATOM     10  C   UNL     1       5.497   3.593  15.901  0.00  0.00    +0.000 A 
ATOM     11  C   UNL     1       6.037   4.480  14.974  0.00  0.00    +0.000 A 
ATOM     12  C   UNL     1       5.726   5.823  15.067  0.00  0.00    +0.000 A 
ATOM     13  C   UNL     1       4.879   6.278  16.084  0.00  0.00    +0.000 A 
ATOM     14  C   UNL     1       4.306   5.412  17.057  0.00  0.00    +0.000 A 
ATOM     15  C   UNL     1       3.429   5.791  18.137  0.00  0.00    +0.000 A 
ATOM     16  C   UNL     1       2.933   4.823  19.041  0.00  0.00    +0.000 A 
ATOM     17  C   UNL     1       3.012   7.217  18.375  0.00  0.00    +0.000 C 
ATOM     18  O   UNL     1       3.511   8.135  17.728  0.00  0.00    +0.000 OA
ATOM     19  N   UNL     1       2.089   7.473  19.396  0.00  0.00    +0.000 N 
ENDROOT
BRANCH  19  20
ATOM     20  C   UNL     1       1.731   8.871  19.648  0.00  0.00    +0.000 C 
BRANCH  20  21
ATOM     21  C   UNL     1       0.594   9.102  20.670  0.00  0.00    +0.000 C 
BRANCH  21  22
ATOM     22  N   UNL     1       0.783  10.151  21.691  0.00  0.00    +0.000 NA
ATOM     23  C   UNL     1       0.152   9.740  22.962  0.00  0.00    +0.000 C 
ATOM     24  C   UNL     1      -1.118  10.560  23.079  0.00  0.00    +0.000 C 
ATOM     25  C   UNL     1      -0.693  11.878  22.477  0.00  0.00    +0.000 C 
ATOM     26  C   UNL     1       0.202  11.454  21.318  0.00  0.00    +0.000 C 
ENDBRANCH  21  22
ENDBRANCH  20  21
ENDBRANCH  19  20
TORSDOF 3
ENDMDL
MODEL 7
REMARK VINA RESULT:      -7.5      2.390      6.209
REMARK  Name = 
REMARK  3 active torsions:
REMARK  status: ('A' for Active; 'I' for Inactive)
REMARK    1  A    between atoms: N_19  and  C_20
REMARK    2  A    between atoms: C_20  and  C_21
REMARK    3  A    between atoms: C_21  and  N_22
REMARK                            x       y       z     vdW  Elec       q    Type
REMARK                         _______ _______ _______ _____ _____    ______ ____
ROOT
ATOM      1  O   UNL     1       1.350   6.541  21.188  0.00  0.00    +0.000 OA
ATOM      2  C   UNL     1       1.938   6.309  20.133  0.00  0.00    +0.000 C 
ATOM      3  C   UNL     1       2.322   4.919  19.828  0.00  0.00    +0.000 A 
ATOM      4  C   UNL     1       1.854   3.893  20.667  0.00  0.00    +0.000 A 
ATOM      5  C   UNL     1       2.201   2.573  20.415  0.00  0.00    +0.000 A 
ATOM      6  C   UNL     1       3.025   2.281  19.334  0.00  0.00    +0.000 A 
ATOM      7  C   UNL     1       3.501   3.301  18.493  0.00  0.00    +0.000 A 
ATOM      8  C   UNL     1       4.339   2.980  17.422  0.00  0.00    +0.000 A 
ATOM      9  C   UNL     1       4.844   3.965  16.570  0.00  0.00    +0.000 A 
ATOM     10  C   UNL     1       5.688   3.563  15.516  0.00  0.00    +0.000 A 
ATOM     11  C   UNL     1       6.224   4.492  14.628  0.00  0.00    +0.000 A 
ATOM     12  C   UNL     1       5.917   5.830  14.788  0.00  0.00    +0.000 A 
ATOM     13  C   UNL     1       5.078   6.237  15.830  0.00  0.00    +0.000 A 
ATOM     14  C   UNL     1       4.509   5.328  16.764  0.00  0.00    +0.000 A 
ATOM     15  C   UNL     1       3.640   5.657  17.867  0.00  0.00    +0.000 A 
ATOM     16  C   UNL     1       3.147   4.648  18.727  0.00  0.00    +0.000 A 
ATOM     17  C   UNL     1       3.228   7.070  18.175  0.00  0.00    +0.000 C 
ATOM     18  O   UNL     1       3.724   8.018  17.569  0.00  0.00    +0.000 OA
ATOM     19  N   UNL     1       2.312   7.280  19.213  0.00  0.00    +0.000 N 
ENDROOT
BRANCH  19  20
ATOM     20  C   UNL     1       1.959   8.665  19.534  0.00  0.00    +0.000 C 
BRANCH  20  21
ATOM     21  C   UNL     1       0.496   9.073  19.240  0.00  0.00    +0.000 C 
BRANCH  21  22
ATOM     22  N   UNL     1       0.262  10.144  18.251  0.00  0.00    +0.000 NA
ATOM     23  C   UNL     1       0.657  11.451  18.817  0.00  0.00    +0.000 C 
ATOM     24  C   UNL     1      -0.637  12.166  19.151  0.00  0.00    +0.000 C 
ATOM     25  C   UNL     1      -1.538  11.721  18.024  0.00  0.00    +0.000 C 
ATOM     26  C   UNL     1      -1.145  10.262  17.825  0.00  0.00    +0.000 C 
ENDBRANCH  21  22
ENDBRANCH  20  21
ENDBRANCH  19  20
TORSDOF 3
ENDMDL
MODEL 8
REMARK VINA RESULT:      -7.4      1.653      2.403
REMARK  Name = 
REMARK  3 active torsions:
REMARK  status: ('A' for Active; 'I' for Inactive)
REMARK    1  A    between atoms: N_19  and  C_20
REMARK    2  A    between atoms: C_20  and  C_21
REMARK    3  A    between atoms: C_21  and  N_22
REMARK                            x       y       z     vdW  Elec       q    Type
REMARK                         _______ _______ _______ _____ _____    ______ ____
ROOT
ATOM      1  O   UNL     1       5.112   3.306  17.299  0.00  0.00    +0.000 OA
ATOM      2  C   UNL     1       4.605   4.351  17.703  0.00  0.00    +0.000 C 
ATOM      3  C   UNL     1       3.744   4.304  18.898  0.00  0.00    +0.000 A 
ATOM      4  C   UNL     1       3.672   3.105  19.627  0.00  0.00    +0.000 A 
ATOM      5  C   UNL     1       2.866   3.021  20.754  0.00  0.00    +0.000 A 
ATOM      6  C   UNL     1       2.123   4.130  21.143  0.00  0.00    +0.000 A 
ATOM      7  C   UNL     1       2.185   5.331  20.417  0.00  0.00    +0.000 A 
ATOM      8  C   UNL     1       1.417   6.425  20.822  0.00  0.00    +0.000 A 
ATOM      9  C   UNL     1       1.441   7.634  20.121  0.00  0.00    +0.000 A 
ATOM     10  C   UNL     1       0.633   8.689  20.588  0.00  0.00    +0.000 A 
ATOM     11  C   UNL     1       0.610   9.921  19.939  0.00  0.00    +0.000 A 
ATOM     12  C   UNL     1       1.397  10.105  18.818  0.00  0.00    +0.000 A 
ATOM     13  C   UNL     1       2.203   9.063  18.349  0.00  0.00    +0.000 A 
ATOM     14  C   UNL     1       2.259   7.786  18.975  0.00  0.00    +0.000 A 
ATOM     15  C   UNL     1       3.055   6.658  18.561  0.00  0.00    +0.000 A 
ATOM     16  C   UNL     1       3.011   5.438  19.276  0.00  0.00    +0.000 A 
ATOM     17  C   UNL     1       3.951   6.702  17.353  0.00  0.00    +0.000 C 
ATOM     18  O   UNL     1       3.939   7.670  16.595  0.00  0.00    +0.000 OA
ATOM     19  N   UNL     1       4.750   5.585  17.082  0.00  0.00    +0.000 N 
ENDROOT
BRANCH  19  20
ATOM     20  C   UNL     1       5.580   5.624  15.875  0.00  0.00    +0.000 C 
BRANCH  20  21
ATOM     21  C   UNL     1       5.171   4.651  14.745  0.00  0.00    +0.000 C 
BRANCH  21  22
ATOM     22  N   UNL     1       6.238   3.874  14.081  0.00  0.00    +0.000 NA
ATOM     23  C   UNL     1       7.466   4.689  13.977  0.00  0.00    +0.000 C 
ATOM     24  C   UNL     1       7.562   5.111  12.524  0.00  0.00    +0.000 C 
ATOM     25  C   UNL     1       7.027   3.892  11.811  0.00  0.00    +0.000 C 
ATOM     26  C   UNL     1       5.890   3.434  12.717  0.00  0.00    +0.000 C 
ENDBRANCH  21  22
ENDBRANCH  20  21
ENDBRANCH  19  20
TORSDOF 3
ENDMDL
MODEL 9
REMARK VINA RESULT:      -7.4      2.621      6.768
REMARK  Name = 
REMARK  3 active torsions:
REMARK  status: ('A' for Active; 'I' for Inactive)
REMARK    1  A    between atoms: N_19  and  C_20
REMARK    2  A    between atoms: C_20  and  C_21
REMARK    3  A    between atoms: C_21  and  N_22
REMARK                            x       y       z     vdW  Elec       q    Type
REMARK                         _______ _______ _______ _____ _____    ______ ____
ROOT
ATOM      1  O   UNL     1       2.306   9.385  17.418  0.00  0.00    +0.000 OA
ATOM      2  C   UNL     1       2.483   8.397  18.128  0.00  0.00    +0.000 C 
ATOM      3  C   UNL     1       3.426   7.359  17.676  0.00  0.00    +0.000 A 
ATOM      4  C   UNL     1       4.212   7.615  16.539  0.00  0.00    +0.000 A 
ATOM      5  C   UNL     1       5.106   6.658  16.079  0.00  0.00    +0.000 A 
ATOM      6  C   UNL     1       5.204   5.443  16.746  0.00  0.00    +0.000 A 
ATOM      7  C   UNL     1       4.419   5.176  17.881  0.00  0.00    +0.000 A 
ATOM      8  C   UNL     1       4.528   3.941  18.523  0.00  0.00    +0.000 A 
ATOM      9  C   UNL     1       3.757   3.631  19.646  0.00  0.00    +0.000 A 
ATOM     10  C   UNL     1       3.919   2.362  20.235  0.00  0.00    +0.000 A 
ATOM     11  C   UNL     1       3.184   1.989  21.357  0.00  0.00    +0.000 A 
ATOM     12  C   UNL     1       2.282   2.885  21.899  0.00  0.00    +0.000 A 
ATOM     13  C   UNL     1       2.116   4.149  21.322  0.00  0.00    +0.000 A 
ATOM     14  C   UNL     1       2.841   4.575  20.174  0.00  0.00    +0.000 A 
ATOM     15  C   UNL     1       2.734   5.852  19.513  0.00  0.00    +0.000 A 
ATOM     16  C   UNL     1       3.514   6.144  18.370  0.00  0.00    +0.000 A 
ATOM     17  C   UNL     1       1.787   6.924  19.979  0.00  0.00    +0.000 C 
ATOM     18  O   UNL     1       0.972   6.701  20.871  0.00  0.00    +0.000 OA
ATOM     19  N   UNL     1       1.817   8.161  19.324  0.00  0.00    +0.000 N 
ENDROOT
BRANCH  19  20
ATOM     20  C   UNL     1       0.855   9.179  19.757  0.00  0.00    +0.000 C 
BRANCH  20  21
ATOM     21  C   UNL     1       1.460  10.455  20.384  0.00  0.00    +0.000 C 
BRANCH  21  22
ATOM     22  N   UNL     1       1.083  10.791  21.772  0.00  0.00    +0.000 NA
ATOM     23  C   UNL     1       1.003   9.560  22.586  0.00  0.00    +0.000 C 
ATOM     24  C   UNL     1      -0.475   9.287  22.781  0.00  0.00    +0.000 C 
ATOM     25  C   UNL     1      -1.036  10.684  22.903  0.00  0.00    +0.000 C 
ATOM     26  C   UNL     1      -0.221  11.471  21.884  0.00  0.00    +0.000 C 
ENDBRANCH  21  22
ENDBRANCH  20  21
ENDBRANCH  19  20
TORSDOF 3
ENDMDL
