MODEL 1
REMARK VINA RESULT:      -7.6      0.000      0.000
REMARK  Name = 
REMARK  9 active torsions:
REMARK  status: ('A' for Active; 'I' for Inactive)
REMARK    1  A    between atoms: N_1  and  C_2
REMARK    2  A    between atoms: C_2  and  C_3
REMARK    3  A    between atoms: C_3  and  C_4
REMARK    4  A    between atoms: C_4  and  N_5
REMARK    5  A    between atoms: N_8  and  C_9
REMARK    6  A    between atoms: C_9  and  C_10
REMARK    7  A    between atoms: C_10  and  C_11
REMARK    8  A    between atoms: C_11  and  N_12
REMARK    9  A    between atoms: N_12  and  C_13
REMARK                            x       y       z     vdW  Elec       q    Type
REMARK                         _______ _______ _______ _____ _____    ______ ____
ROOT
ATOM      1  N   UNL     1       1.352   7.515  20.130  0.00  0.00    +0.000 N 
ATOM      2  H   UNL     1       0.326   7.421  20.210  0.00  0.00    +0.000 HD
ENDROOT
BRANCH   1   3
ATOM      3  C   UNL     1       2.041   6.230  19.977  0.00  0.00    +0.000 A 
ATOM      4  C   UNL     1       1.664   5.264  20.989  0.00  0.00    +0.000 A 
ATOM      5  C   UNL     1       2.137   3.941  21.023  0.00  0.00    +0.000 A 
ATOM      6  C   UNL     1       2.990   3.559  20.018  0.00  0.00    +0.000 A 
ATOM      7  N   UNL     1       3.554   2.349  19.805  0.00  0.00    +0.000 NA
ATOM      8  N   UNL     1       4.288   2.497  18.695  0.00  0.00    +0.000 NA
ATOM      9  N   UNL     1       4.182   3.745  18.250  0.00  0.00    +0.000 N 
ATOM     10  C   UNL     1       4.756   4.306  17.179  0.00  0.00    +0.000 A 
ATOM     11  C   UNL     1       5.558   3.536  16.318  0.00  0.00    +0.000 A 
ATOM     12  C   UNL     1       6.155   4.130  15.211  0.00  0.00    +0.000 A 
ATOM     13  C   UNL     1       5.972   5.494  14.973  0.00  0.00    +0.000 A 
ATOM     14  C   UNL     1       5.162   6.273  15.827  0.00  0.00    +0.000 A 
ATOM     15  C   UNL     1       4.516   5.689  16.944  0.00  0.00    +0.000 A 
ATOM     16  C   UNL     1       3.627   6.429  17.837  0.00  0.00    +0.000 A 
ATOM     17  O   UNL     1       3.417   7.609  17.636  0.00  0.00    +0.000 OA
ATOM     18  C   UNL     1       3.002   5.766  18.947  0.00  0.00    +0.000 A 
ATOM     19  C   UNL     1       3.377   4.413  19.065  0.00  0.00    +0.000 A 
ENDBRANCH   1   3
BRANCH   1  20
ATOM     20  C   UNL     1       1.790   8.922  20.128  0.00  0.00    +0.000 C 
BRANCH  20  21
ATOM     21  C   UNL     1       1.083   9.713  18.944  0.00  0.00    +0.000 C 
BRANCH  21  22
ATOM     22  C   UNL     1      -0.444  10.103  19.047  0.00  0.00    +0.000 C 
BRANCH  22  26
ATOM     23  N   UNL     1      -4.029  10.908  18.021  0.00  0.00    +0.000 NA
ATOM     24  C   UNL     1      -3.298   9.658  17.723  0.00  0.00    +0.000 C 
ATOM     25  C   UNL     1      -1.938   9.918  17.038  0.00  0.00    +0.000 C 
ATOM     26  N   UNL     1      -1.040  10.767  17.852  0.00  0.00    +0.000 NA
ATOM     27  C   UNL     1      -1.752  12.041  18.153  0.00  0.00    +0.000 C 
ATOM     28  C   UNL     1      -3.166  11.847  18.777  0.00  0.00    +0.000 C 
BRANCH  23  29
ATOM     29  C   UNL     1      -4.767  11.504  16.872  0.00  0.00    +0.000 C 
BRANCH  29  30
ATOM     30  C   UNL     1      -5.865  12.510  17.322  0.00  0.00    +0.000 C 
BRANCH  30  31
ATOM     31  C   UNL     1      -6.740  11.964  18.461  0.00  0.00    +0.000 C 
BRANCH  31  32
ATOM     32  N   UNL     1      -7.026  10.545  18.252  0.00  0.00    +0.000 NA
ATOM     33  H   UNL     1      -6.968  10.332  17.230  0.00  0.00    +0.000 HD
ATOM     34  H   UNL     1      -8.009  10.348  18.554  0.00  0.00    +0.000 HD
ENDBRANCH  31  32
ENDBRANCH  30  31
ENDBRANCH  29  30
ENDBRANCH  23  29
ENDBRANCH  22  26
ENDBRANCH  21  22
ENDBRANCH  20  21
ENDBRANCH   1  20
TORSDOF 9
ENDMDL
MODEL 2
REMARK VINA RESULT:      -7.6      2.943      4.421
REMARK  Name = 
REMARK  9 active torsions:
REMARK  status: ('A' for Active; 'I' for Inactive)
REMARK    1  A    between atoms: N_1  and  C_2
REMARK    2  A    between atoms: C_2  and  C_3
REMARK    3  A    between atoms: C_3  and  C_4
REMARK    4  A    between atoms: C_4  and  N_5
REMARK    5  A    between atoms: N_8  and  C_9
REMARK    6  A    between atoms: C_9  and  C_10
REMARK    7  A    between atoms: C_10  and  C_11
REMARK    8  A    between atoms: C_11  and  N_12
REMARK    9  A    between atoms: N_12  and  C_13
REMARK                            x       y       z     vdW  Elec       q    Type
REMARK                         _______ _______ _______ _____ _____    ______ ____
ROOT
ATOM      1  N   UNL     1       1.753   7.654  20.196  0.00  0.00    +0.000 N 
ATOM      2  H   UNL     1       1.955   8.316  19.429  0.00  0.00    +0.000 HD
ENDROOT
BRANCH   1   3
ATOM      3  C   UNL     1       2.215   6.290  19.919  0.00  0.00    +0.000 A 
ATOM      4  C   UNL     1       1.674   5.313  20.843  0.00  0.00    +0.000 A 
ATOM      5  C   UNL     1       1.915   3.932  20.751  0.00  0.00    +0.000 A 
ATOM      6  C   UNL     1       2.696   3.505  19.707  0.00  0.00    +0.000 A 
ATOM      7  N   UNL     1       3.048   2.241  19.378  0.00  0.00    +0.000 NA
ATOM      8  N   UNL     1       3.802   2.364  18.279  0.00  0.00    +0.000 NA
ATOM      9  N   UNL     1       3.912   3.647  17.951  0.00  0.00    +0.000 N 
ATOM     10  C   UNL     1       4.578   4.199  16.929  0.00  0.00    +0.000 A 
ATOM     11  C   UNL     1       5.243   3.386  15.993  0.00  0.00    +0.000 A 
ATOM     12  C   UNL     1       5.938   3.969  14.939  0.00  0.00    +0.000 A 
ATOM     13  C   UNL     1       5.989   5.360  14.828  0.00  0.00    +0.000 A 
ATOM     14  C   UNL     1       5.320   6.183  15.758  0.00  0.00    +0.000 A 
ATOM     15  C   UNL     1       4.578   5.618  16.824  0.00  0.00    +0.000 A 
ATOM     16  C   UNL     1       3.823   6.413  17.791  0.00  0.00    +0.000 A 
ATOM     17  O   UNL     1       3.817   7.624  17.700  0.00  0.00    +0.000 OA
ATOM     18  C   UNL     1       3.088   5.767  18.841  0.00  0.00    +0.000 A 
ATOM     19  C   UNL     1       3.228   4.364  18.831  0.00  0.00    +0.000 A 
ENDBRANCH   1   3
BRANCH   1  20
ATOM     20  C   UNL     1       1.122   8.309  21.356  0.00  0.00    +0.000 C 
BRANCH  20  21
ATOM     21  C   UNL     1       0.111   9.433  20.866  0.00  0.00    +0.000 C 
BRANCH  21  22
ATOM     22  C   UNL     1       0.262  10.919  21.378  0.00  0.00    +0.000 C 
BRANCH  22  26
ATOM     23  N   UNL     1       2.459  12.993  19.048  0.00  0.00    +0.000 NA
ATOM     24  C   UNL     1       2.102  13.334  20.441  0.00  0.00    +0.000 C 
ATOM     25  C   UNL     1       0.576  13.311  20.683  0.00  0.00    +0.000 C 
ATOM     26  N   UNL     1      -0.030  11.994  20.387  0.00  0.00    +0.000 NA
ATOM     27  C   UNL     1       0.305  11.635  18.979  0.00  0.00    +0.000 C 
ATOM     28  C   UNL     1       1.825  11.714  18.648  0.00  0.00    +0.000 C 
BRANCH  23  29
ATOM     29  C   UNL     1       2.325  14.105  18.065  0.00  0.00    +0.000 C 
BRANCH  29  30
ATOM     30  C   UNL     1       3.589  15.010  18.009  0.00  0.00    +0.000 C 
BRANCH  30  31
ATOM     31  C   UNL     1       3.294  16.407  17.437  0.00  0.00    +0.000 C 
BRANCH  31  32
ATOM     32  N   UNL     1       2.962  17.340  18.513  0.00  0.00    +0.000 NA
ATOM     33  H   UNL     1       2.355  16.854  19.211  0.00  0.00    +0.000 HD
ATOM     34  H   UNL     1       2.403  18.132  18.115  0.00  0.00    +0.000 HD
ENDBRANCH  31  32
ENDBRANCH  30  31
ENDBRANCH  29  30
ENDBRANCH  23  29
ENDBRANCH  22  26
ENDBRANCH  21  22
ENDBRANCH  20  21
ENDBRANCH   1  20
TORSDOF 9
ENDMDL
MODEL 3
REMARK VINA RESULT:      -7.5      7.659     11.268
REMARK  Name = 
REMARK  9 active torsions:
REMARK  status: ('A' for Active; 'I' for Inactive)
REMARK    1  A    between atoms: N_1  and  C_2
REMARK    2  A    between atoms: C_2  and  C_3
REMARK    3  A    between atoms: C_3  and  C_4
REMARK    4  A    between atoms: C_4  and  N_5
REMARK    5  A    between atoms: N_8  and  C_9
REMARK    6  A    between atoms: C_9  and  C_10
REMARK    7  A    between atoms: C_10  and  C_11
REMARK    8  A    between atoms: C_11  and  N_12
REMARK    9  A    between atoms: N_12  and  C_13
REMARK                            x       y       z     vdW  Elec       q    Type
REMARK                         _______ _______ _______ _____ _____    ______ ____
ROOT
ATOM      1  N   UNL     1       9.091   9.825  18.928  0.00  0.00    +0.000 N 
ATOM      2  H   UNL     1       9.231   9.246  19.772  0.00  0.00    +0.000 HD
ENDROOT
BRANCH   1   3
ATOM      3  C   UNL     1       9.849  11.081  18.955  0.00  0.00    +0.000 A 
ATOM      4  C   UNL     1      10.678  11.265  17.781  0.00  0.00    +0.000 A 
ATOM      5  C   UNL     1      11.450  12.413  17.540  0.00  0.00    +0.000 A 
ATOM      6  C   UNL     1      11.386  13.414  18.477  0.00  0.00    +0.000 A 
ATOM      7  N   UNL     1      11.999  14.619  18.468  0.00  0.00    +0.000 NA
ATOM      8  N   UNL     1      11.602  15.220  19.596  0.00  0.00    +0.000 NA
ATOM      9  N   UNL     1      10.786  14.417  20.270  0.00  0.00    +0.000 N 
ATOM     10  C   UNL     1      10.175  14.631  21.442  0.00  0.00    +0.000 A 
ATOM     11  C   UNL     1      10.318  15.865  22.102  0.00  0.00    +0.000 A 
ATOM     12  C   UNL     1       9.685  16.075  23.323  0.00  0.00    +0.000 A 
ATOM     13  C   UNL     1       8.929  15.051  23.896  0.00  0.00    +0.000 A 
ATOM     14  C   UNL     1       8.774  13.813  23.238  0.00  0.00    +0.000 A 
ATOM     15  C   UNL     1       9.380  13.580  21.980  0.00  0.00    +0.000 A 
ATOM     16  C   UNL     1       9.219  12.339  21.225  0.00  0.00    +0.000 A 
ATOM     17  O   UNL     1       8.537  11.442  21.679  0.00  0.00    +0.000 OA
ATOM     18  C   UNL     1       9.860  12.180  19.950  0.00  0.00    +0.000 A 
ATOM     19  C   UNL     1      10.644  13.292  19.583  0.00  0.00    +0.000 A 
ENDBRANCH   1   3
BRANCH   1  20
ATOM     20  C   UNL     1       8.224   9.170  17.932  0.00  0.00    +0.000 C 
BRANCH  20  21
ATOM     21  C   UNL     1       8.212   7.599  18.167  0.00  0.00    +0.000 C 
BRANCH  21  22
ATOM     22  C   UNL     1       7.483   6.646  17.140  0.00  0.00    +0.000 C 
BRANCH  22  26
ATOM     23  N   UNL     1       4.056   4.968  17.184  0.00  0.00    +0.000 NA
ATOM     24  C   UNL     1       4.587   5.891  18.209  0.00  0.00    +0.000 C 
ATOM     25  C   UNL     1       5.967   5.450  18.745  0.00  0.00    +0.000 C 
ATOM     26  N   UNL     1       6.988   5.346  17.680  0.00  0.00    +0.000 NA
ATOM     27  C   UNL     1       6.480   4.407  16.639  0.00  0.00    +0.000 C 
ATOM     28  C   UNL     1       5.056   4.754  16.111  0.00  0.00    +0.000 C 
BRANCH  23  29
ATOM     29  C   UNL     1       3.411   3.733  17.711  0.00  0.00    +0.000 C 
BRANCH  29  30
ATOM     30  C   UNL     1       1.874   3.889  17.890  0.00  0.00    +0.000 C 
BRANCH  30  31
ATOM     31  C   UNL     1       1.298   2.928  18.942  0.00  0.00    +0.000 C 
BRANCH  31  32
ATOM     32  N   UNL     1       1.837   1.581  18.755  0.00  0.00    +0.000 NA
ATOM     33  H   UNL     1       1.518   0.973  19.544  0.00  0.00    +0.000 HD
ATOM     34  H   UNL     1       2.882   1.625  18.801  0.00  0.00    +0.000 HD
ENDBRANCH  31  32
ENDBRANCH  30  31
ENDBRANCH  29  30
ENDBRANCH  23  29
ENDBRANCH  22  26
ENDBRANCH  21  22
ENDBRANCH  20  21
ENDBRANCH   1  20
TORSDOF 9
ENDMDL
MODEL 4
REMARK VINA RESULT:      -7.5      2.969      3.457
REMARK  Name = 
REMARK  9 active torsions:
REMARK  status: ('A' for Active; 'I' for Inactive)
REMARK    1  A    between atoms: N_1  and  C_2
REMARK    2  A    between atoms: C_2  and  C_3
REMARK    3  A    between atoms: C_3  and  C_4
REMARK    4  A    between atoms: C_4  and  N_5
REMARK    5  A    between atoms: N_8  and  C_9
REMARK    6  A    between atoms: C_9  and  C_10
REMARK    7  A    between atoms: C_10  and  C_11
REMARK    8  A    between atoms: C_11  and  N_12
REMARK    9  A    between atoms: N_12  and  C_13
REMARK                            x       y       z     vdW  Elec       q    Type
REMARK                         _______ _______ _______ _____ _____    ______ ____
ROOT
ATOM      1  N   UNL     1       1.638   8.119  19.823  0.00  0.00    +0.000 N 
ATOM      2  H   UNL     1       1.601   8.582  18.900  0.00  0.00    +0.000 HD
ENDROOT
BRANCH   1   3
ATOM      3  C   UNL     1       2.193   6.763  19.769  0.00  0.00    +0.000 A 
ATOM      4  C   UNL     1       1.715   5.914  20.841  0.00  0.00    +0.000 A 
ATOM      5  C   UNL     1       2.050   4.556  20.973  0.00  0.00    +0.000 A 
ATOM      6  C   UNL     1       2.864   4.020  20.008  0.00  0.00    +0.000 A 
ATOM      7  N   UNL     1       3.303   2.746  19.886  0.00  0.00    +0.000 NA
ATOM      8  N   UNL     1       4.053   2.740  18.778  0.00  0.00    +0.000 NA
ATOM      9  N   UNL     1       4.077   3.958  18.246  0.00  0.00    +0.000 N 
ATOM     10  C   UNL     1       4.710   4.380  17.144  0.00  0.00    +0.000 A 
ATOM     11  C   UNL     1       5.433   3.474  16.348  0.00  0.00    +0.000 A 
ATOM     12  C   UNL     1       6.093   3.924  15.210  0.00  0.00    +0.000 A 
ATOM     13  C   UNL     1       6.050   5.279  14.875  0.00  0.00    +0.000 A 
ATOM     14  C   UNL     1       5.321   6.194  15.662  0.00  0.00    +0.000 A 
ATOM     15  C   UNL     1       4.614   5.760  16.810  0.00  0.00    +0.000 A 
ATOM     16  C   UNL     1       3.801   6.648  17.639  0.00  0.00    +0.000 A 
ATOM     17  O   UNL     1       3.713   7.826  17.353  0.00  0.00    +0.000 OA
ATOM     18  C   UNL     1       3.106   6.133  18.785  0.00  0.00    +0.000 A 
ATOM     19  C   UNL     1       3.340   4.760  19.001  0.00  0.00    +0.000 A 
ENDBRANCH   1   3
BRANCH   1  20
ATOM     20  C   UNL     1       1.180   8.999  20.914  0.00  0.00    +0.000 C 
BRANCH  20  21
ATOM     21  C   UNL     1       0.081  10.012  20.374  0.00  0.00    +0.000 C 
BRANCH  21  22
ATOM     22  C   UNL     1       0.274  11.568  20.559  0.00  0.00    +0.000 C 
BRANCH  22  26
ATOM     23  N   UNL     1      -2.573  13.250  22.462  0.00  0.00    +0.000 NA
ATOM     24  C   UNL     1      -1.547  13.934  21.648  0.00  0.00    +0.000 C 
ATOM     25  C   UNL     1      -0.109  13.545  22.059  0.00  0.00    +0.000 C 
ATOM     26  N   UNL     1       0.144  12.092  21.950  0.00  0.00    +0.000 NA
ATOM     27  C   UNL     1      -0.873  11.380  22.777  0.00  0.00    +0.000 C 
ATOM     28  C   UNL     1      -2.344  11.785  22.463  0.00  0.00    +0.000 C 
BRANCH  23  29
ATOM     29  C   UNL     1      -2.834  13.856  23.798  0.00  0.00    +0.000 C 
BRANCH  29  30
ATOM     30  C   UNL     1      -4.324  14.259  23.993  0.00  0.00    +0.000 C 
BRANCH  30  31
ATOM     31  C   UNL     1      -5.266  13.045  24.043  0.00  0.00    +0.000 C 
BRANCH  31  32
ATOM     32  N   UNL     1      -4.843  12.112  25.086  0.00  0.00    +0.000 NA
ATOM     33  H   UNL     1      -5.199  11.156  24.854  0.00  0.00    +0.000 HD
ATOM     34  H   UNL     1      -5.283  12.394  25.993  0.00  0.00    +0.000 HD
ENDBRANCH  31  32
ENDBRANCH  30  31
ENDBRANCH  29  30
ENDBRANCH  23  29
ENDBRANCH  22  26
ENDBRANCH  21  22
ENDBRANCH  20  21
ENDBRANCH   1  20
TORSDOF 9
ENDMDL
MODEL 5
REMARK VINA RESULT:      -7.5      2.850      3.966
REMARK  Name = 
REMARK  9 active torsions:
REMARK  status: ('A' for Active; 'I' for Inactive)
REMARK    1  A    between atoms: N_1  and  C_2
REMARK    2  A    between atoms: C_2  and  C_3
REMARK    3  A    between atoms: C_3  and  C_4
REMARK    4  A    between atoms: C_4  and  N_5
REMARK    5  A    between atoms: N_8  and  C_9
REMARK    6  A    between atoms: C_9  and  C_10
REMARK    7  A    between atoms: C_10  and  C_11
REMARK    8  A    between atoms: C_11  and  N_12
REMARK    9  A    between atoms: N_12  and  C_13
REMARK                            x       y       z     vdW  Elec       q    Type
REMARK                         _______ _______ _______ _____ _____    ______ ____
ROOT
ATOM      1  N   UNL     1       1.896   7.692  20.234  0.00  0.00    +0.000 N 
ATOM      2  H   UNL     1       2.321   8.395  19.609  0.00  0.00    +0.000 HD
ENDROOT
BRANCH   1   3
ATOM      3  C   UNL     1       2.317   6.319  19.933  0.00  0.00    +0.000 A 
ATOM      4  C   UNL     1       1.754   5.344  20.844  0.00  0.00    +0.000 A 
ATOM      5  C   UNL     1       1.954   3.958  20.728  0.00  0.00    +0.000 A 
ATOM      6  C   UNL     1       2.717   3.526  19.673  0.00  0.00    +0.000 A 
ATOM      7  N   UNL     1       3.031   2.258  19.322  0.00  0.00    +0.000 NA
ATOM      8  N   UNL     1       3.782   2.377  18.220  0.00  0.00    +0.000 NA
ATOM      9  N   UNL     1       3.927   3.662  17.912  0.00  0.00    +0.000 N 
ATOM     10  C   UNL     1       4.603   4.210  16.895  0.00  0.00    +0.000 A 
ATOM     11  C   UNL     1       5.238   3.394  15.942  0.00  0.00    +0.000 A 
ATOM     12  C   UNL     1       5.944   3.974  14.893  0.00  0.00    +0.000 A 
ATOM     13  C   UNL     1       6.034   5.364  14.805  0.00  0.00    +0.000 A 
ATOM     14  C   UNL     1       5.394   6.192  15.751  0.00  0.00    +0.000 A 
ATOM     15  C   UNL     1       4.643   5.630  16.812  0.00  0.00    +0.000 A 
ATOM     16  C   UNL     1       3.916   6.431  17.796  0.00  0.00    +0.000 A 
ATOM     17  O   UNL     1       3.944   7.644  17.725  0.00  0.00    +0.000 OA
ATOM     18  C   UNL     1       3.169   5.789  18.841  0.00  0.00    +0.000 A 
ATOM     19  C   UNL     1       3.268   4.384  18.808  0.00  0.00    +0.000 A 
ENDBRANCH   1   3
BRANCH   1  20
ATOM     20  C   UNL     1       1.051   8.301  21.276  0.00  0.00    +0.000 C 
BRANCH  20  21
ATOM     21  C   UNL     1       0.172   9.469  20.653  0.00  0.00    +0.000 C 
BRANCH  21  22
ATOM     22  C   UNL     1       0.859  10.634  19.837  0.00  0.00    +0.000 C 
BRANCH  22  26
ATOM     23  N   UNL     1       0.031  14.193  18.741  0.00  0.00    +0.000 NA
ATOM     24  C   UNL     1       1.330  13.510  18.572  0.00  0.00    +0.000 C 
ATOM     25  C   UNL     1       1.871  12.930  19.898  0.00  0.00    +0.000 C 
ATOM     26  N   UNL     1       0.944  11.958  20.518  0.00  0.00    +0.000 NA
ATOM     27  C   UNL     1      -0.372  12.631  20.712  0.00  0.00    +0.000 C 
ATOM     28  C   UNL     1      -0.938  13.304  19.426  0.00  0.00    +0.000 C 
BRANCH  23  29
ATOM     29  C   UNL     1       0.106  15.583  19.272  0.00  0.00    +0.000 C 
BRANCH  29  30
ATOM     30  C   UNL     1       1.433  16.300  18.889  0.00  0.00    +0.000 C 
BRANCH  30  31
ATOM     31  C   UNL     1       1.220  17.449  17.890  0.00  0.00    +0.000 C 
BRANCH  31  32
ATOM     32  N   UNL     1       2.407  17.627  17.055  0.00  0.00    +0.000 NA
ATOM     33  H   UNL     1       2.694  16.700  16.666  0.00  0.00    +0.000 HD
ATOM     34  H   UNL     1       3.195  17.969  17.653  0.00  0.00    +0.000 HD
ENDBRANCH  31  32
ENDBRANCH  30  31
ENDBRANCH  29  30
ENDBRANCH  23  29
ENDBRANCH  22  26
ENDBRANCH  21  22
ENDBRANCH  20  21
ENDBRANCH   1  20
TORSDOF 9
ENDMDL
MODEL 6
REMARK VINA RESULT:      -7.4      2.356      3.065
REMARK  Name = 
REMARK  9 active torsions:
REMARK  status: ('A' for Active; 'I' for Inactive)
REMARK    1  A    between atoms: N_1  and  C_2
REMARK    2  A    between atoms: C_2  and  C_3
REMARK    3  A    between atoms: C_3  and  C_4
REMARK    4  A    between atoms: C_4  and  N_5
REMARK    5  A    between atoms: N_8  and  C_9
REMARK    6  A    between atoms: C_9  and  C_10
REMARK    7  A    between atoms: C_10  and  C_11
REMARK    8  A    between atoms: C_11  and  N_12
REMARK    9  A    between atoms: N_12  and  C_13
REMARK                            x       y       z     vdW  Elec       q    Type
REMARK                         _______ _______ _______ _____ _____    ______ ____
ROOT
ATOM      1  N   UNL     1       1.246   6.674  20.635  0.00  0.00    +0.000 N 
ATOM      2  H   UNL     1       0.213   6.674  20.654  0.00  0.00    +0.000 HD
ENDROOT
BRANCH   1   3
ATOM      3  C   UNL     1       1.816   5.423  20.123  0.00  0.00    +0.000 A 
ATOM      4  C   UNL     1       1.320   4.252  20.817  0.00  0.00    +0.000 A 
ATOM      5  C   UNL     1       1.664   2.934  20.473  0.00  0.00    +0.000 A 
ATOM      6  C   UNL     1       2.506   2.770  19.402  0.00  0.00    +0.000 A 
ATOM      7  N   UNL     1       2.960   1.621  18.854  0.00  0.00    +0.000 NA
ATOM      8  N   UNL     1       3.737   2.004  17.833  0.00  0.00    +0.000 NA
ATOM      9  N   UNL     1       3.762   3.331  17.762  0.00  0.00    +0.000 N 
ATOM     10  C   UNL     1       4.418   4.114  16.896  0.00  0.00    +0.000 A 
ATOM     11  C   UNL     1       5.169   3.544  15.852  0.00  0.00    +0.000 A 
ATOM     12  C   UNL     1       5.851   4.365  14.961  0.00  0.00    +0.000 A 
ATOM     13  C   UNL     1       5.804   5.751  15.122  0.00  0.00    +0.000 A 
ATOM     14  C   UNL     1       5.047   6.332  16.161  0.00  0.00    +0.000 A 
ATOM     15  C   UNL     1       4.317   5.523  17.064  0.00  0.00    +0.000 A 
ATOM     16  C   UNL     1       3.475   6.063  18.131  0.00  0.00    +0.000 A 
ATOM     17  O   UNL     1       3.383   7.266  18.274  0.00  0.00    +0.000 OA
ATOM     18  C   UNL     1       2.758   5.179  19.004  0.00  0.00    +0.000 A 
ATOM     19  C   UNL     1       3.000   3.817  18.732  0.00  0.00    +0.000 A 
ENDBRANCH   1   3
BRANCH   1  20
ATOM     20  C   UNL     1       1.818   7.962  21.067  0.00  0.00    +0.000 C 
BRANCH  20  21
ATOM     21  C   UNL     1       0.674   8.902  21.642  0.00  0.00    +0.000 C 
BRANCH  21  22
ATOM     22  C   UNL     1      -0.420   9.508  20.676  0.00  0.00    +0.000 C 
BRANCH  22  26
ATOM     23  N   UNL     1      -0.697  13.191  19.720  0.00  0.00    +0.000 NA
ATOM     24  C   UNL     1      -1.649  12.123  19.354  0.00  0.00    +0.000 C 
ATOM     25  C   UNL     1      -0.957  10.921  18.672  0.00  0.00    +0.000 C 
ATOM     26  N   UNL     1       0.086  10.305  19.520  0.00  0.00    +0.000 NA
ATOM     27  C   UNL     1       1.068  11.363  19.892  0.00  0.00    +0.000 C 
ATOM     28  C   UNL     1       0.424  12.637  20.516  0.00  0.00    +0.000 C 
BRANCH  23  29
ATOM     29  C   UNL     1      -0.301  14.101  18.609  0.00  0.00    +0.000 C 
BRANCH  29  30
ATOM     30  C   UNL     1       0.376  15.407  19.116  0.00  0.00    +0.000 C 
BRANCH  30  31
ATOM     31  C   UNL     1      -0.487  16.164  20.139  0.00  0.00    +0.000 C 
BRANCH  31  32
ATOM     32  N   UNL     1      -1.905  16.036  19.807  0.00  0.00    +0.000 NA
ATOM     33  H   UNL     1      -2.234  15.082  20.080  0.00  0.00    +0.000 HD
ATOM     34  H   UNL     1      -2.020  16.118  18.770  0.00  0.00    +0.000 HD
ENDBRANCH  31  32
ENDBRANCH  30  31
ENDBRANCH  29  30
ENDBRANCH  23  29
ENDBRANCH  22  26
ENDBRANCH  21  22
ENDBRANCH  20  21
ENDBRANCH   1  20
TORSDOF 9
ENDMDL
MODEL 7
REMARK VINA RESULT:      -7.4      3.005      4.362
REMARK  Name = 
REMARK  9 active torsions:
REMARK  status: ('A' for Active; 'I' for Inactive)
REMARK    1  A    between atoms: N_1  and  C_2
REMARK    2  A    between atoms: C_2  and  C_3
REMARK    3  A    between atoms: C_3  and  C_4
REMARK    4  A    between atoms: C_4  and  N_5
REMARK    5  A    between atoms: N_8  and  C_9
REMARK    6  A    between atoms: C_9  and  C_10
REMARK    7  A    between atoms: C_10  and  C_11
REMARK    8  A    between atoms: C_11  and  N_12
REMARK    9  A    between atoms: N_12  and  C_13
REMARK                            x       y       z     vdW  Elec       q    Type
REMARK                         _______ _______ _______ _____ _____    ______ ____
ROOT
ATOM      1  N   UNL     1       1.867   7.207  20.516  0.00  0.00    +0.000 N 
ATOM      2  H   UNL     1       1.840   7.289  21.545  0.00  0.00    +0.000 HD
ENDROOT
BRANCH   1   3
ATOM      3  C   UNL     1       2.244   5.867  20.052  0.00  0.00    +0.000 A 
ATOM      4  C   UNL     1       1.626   4.808  20.824  0.00  0.00    +0.000 A 
ATOM      5  C   UNL     1       1.778   3.441  20.540  0.00  0.00    +0.000 A 
ATOM      6  C   UNL     1       2.547   3.114  19.452  0.00  0.00    +0.000 A 
ATOM      7  N   UNL     1       2.821   1.888  18.950  0.00  0.00    +0.000 NA
ATOM      8  N   UNL     1       3.599   2.114  17.884  0.00  0.00    +0.000 NA
ATOM      9  N   UNL     1       3.797   3.421  17.742  0.00  0.00    +0.000 N 
ATOM     10  C   UNL     1       4.514   4.065  16.812  0.00  0.00    +0.000 A 
ATOM     11  C   UNL     1       5.140   3.349  15.775  0.00  0.00    +0.000 A 
ATOM     12  C   UNL     1       5.888   4.027  14.819  0.00  0.00    +0.000 A 
ATOM     13  C   UNL     1       6.031   5.413  14.906  0.00  0.00    +0.000 A 
ATOM     14  C   UNL     1       5.402   6.140  15.938  0.00  0.00    +0.000 A 
ATOM     15  C   UNL     1       4.608   5.481  16.909  0.00  0.00    +0.000 A 
ATOM     16  C   UNL     1       3.891   6.181  17.973  0.00  0.00    +0.000 A 
ATOM     17  O   UNL     1       3.965   7.391  18.054  0.00  0.00    +0.000 OA
ATOM     18  C   UNL     1       3.099   5.444  18.917  0.00  0.00    +0.000 A 
ATOM     19  C   UNL     1       3.147   4.051  18.710  0.00  0.00    +0.000 A 
ENDBRANCH   1   3
BRANCH   1  20
ATOM     20  C   UNL     1       1.452   8.449  19.840  0.00  0.00    +0.000 C 
BRANCH  20  21
ATOM     21  C   UNL     1       0.494   9.292  20.786  0.00  0.00    +0.000 C 
BRANCH  21  22
ATOM     22  C   UNL     1       0.716  10.845  20.965  0.00  0.00    +0.000 C 
BRANCH  22  26
ATOM     23  N   UNL     1       1.754  14.328  19.802  0.00  0.00    +0.000 NA
ATOM     24  C   UNL     1       0.676  14.016  20.762  0.00  0.00    +0.000 C 
ATOM     25  C   UNL     1      -0.337  12.993  20.202  0.00  0.00    +0.000 C 
ATOM     26  N   UNL     1       0.295  11.710  19.824  0.00  0.00    +0.000 NA
ATOM     27  C   UNL     1       1.380  11.998  18.843  0.00  0.00    +0.000 C 
ATOM     28  C   UNL     1       2.394  13.081  19.317  0.00  0.00    +0.000 C 
BRANCH  23  29
ATOM     29  C   UNL     1       1.401  15.316  18.744  0.00  0.00    +0.000 C 
BRANCH  29  30
ATOM     30  C   UNL     1       2.302  16.584  18.784  0.00  0.00    +0.000 C 
BRANCH  30  31
ATOM     31  C   UNL     1       3.703  16.335  18.202  0.00  0.00    +0.000 C 
BRANCH  31  32
ATOM     32  N   UNL     1       3.636  15.383  17.094  0.00  0.00    +0.000 NA
ATOM     33  H   UNL     1       4.242  14.559  17.314  0.00  0.00    +0.000 HD
ATOM     34  H   UNL     1       4.027  15.834  16.234  0.00  0.00    +0.000 HD
ENDBRANCH  31  32
ENDBRANCH  30  31
ENDBRANCH  29  30
ENDBRANCH  23  29
ENDBRANCH  22  26
ENDBRANCH  21  22
ENDBRANCH  20  21
ENDBRANCH   1  20
TORSDOF 9
ENDMDL
MODEL 8
REMARK VINA RESULT:      -7.4      2.897      3.443
REMARK  Name = 
REMARK  9 active torsions:
REMARK  status: ('A' for Active; 'I' for Inactive)
REMARK    1  A    between atoms: N_1  and  C_2
REMARK    2  A    between atoms: C_2  and  C_3
REMARK    3  A    between atoms: C_3  and  C_4
REMARK    4  A    between atoms: C_4  and  N_5
REMARK    5  A    between atoms: N_8  and  C_9
REMARK    6  A    between atoms: C_9  and  C_10
REMARK    7  A    between atoms: C_10  and  C_11
REMARK    8  A    between atoms: C_11  and  N_12
REMARK    9  A    between atoms: N_12  and  C_13
REMARK                            x       y       z     vdW  Elec       q    Type
REMARK                         _______ _______ _______ _____ _____    ______ ____
ROOT
ATOM      1  N   UNL     1       1.776   7.651  20.265  0.00  0.00    +0.000 N 
ATOM      2  H   UNL     1       1.822   8.279  19.447  0.00  0.00    +0.000 HD
ENDROOT
BRANCH   1   3
ATOM      3  C   UNL     1       2.225   6.285  19.972  0.00  0.00    +0.000 A 
ATOM      4  C   UNL     1       1.678   5.303  20.886  0.00  0.00    +0.000 A 
ATOM      5  C   UNL     1       1.906   3.922  20.779  0.00  0.00    +0.000 A 
ATOM      6  C   UNL     1       2.681   3.499  19.729  0.00  0.00    +0.000 A 
ATOM      7  N   UNL     1       3.021   2.236  19.385  0.00  0.00    +0.000 NA
ATOM      8  N   UNL     1       3.774   2.364  18.286  0.00  0.00    +0.000 NA
ATOM      9  N   UNL     1       3.895   3.650  17.972  0.00  0.00    +0.000 N 
ATOM     10  C   UNL     1       4.564   4.207  16.955  0.00  0.00    +0.000 A 
ATOM     11  C   UNL     1       5.219   3.398  16.009  0.00  0.00    +0.000 A 
ATOM     12  C   UNL     1       5.917   3.986  14.960  0.00  0.00    +0.000 A 
ATOM     13  C   UNL     1       5.981   5.378  14.864  0.00  0.00    +0.000 A 
ATOM     14  C   UNL     1       5.320   6.197  15.804  0.00  0.00    +0.000 A 
ATOM     15  C   UNL     1       4.576   5.627  16.865  0.00  0.00    +0.000 A 
ATOM     16  C   UNL     1       3.830   6.418  17.842  0.00  0.00    +0.000 A 
ATOM     17  O   UNL     1       3.834   7.630  17.764  0.00  0.00    +0.000 OA
ATOM     18  C   UNL     1       3.092   5.767  18.887  0.00  0.00    +0.000 A 
ATOM     19  C   UNL     1       3.219   4.363  18.861  0.00  0.00    +0.000 A 
ENDBRANCH   1   3
BRANCH   1  20
ATOM     20  C   UNL     1       1.334   8.347  21.487  0.00  0.00    +0.000 C 
BRANCH  20  21
ATOM     21  C   UNL     1      -0.092   9.007  21.255  0.00  0.00    +0.000 C 
BRANCH  21  22
ATOM     22  C   UNL     1      -0.238  10.290  20.345  0.00  0.00    +0.000 C 
BRANCH  22  26
ATOM     23  N   UNL     1      -0.309  13.990  19.416  0.00  0.00    +0.000 NA
ATOM     24  C   UNL     1       0.364  12.914  18.658  0.00  0.00    +0.000 C 
ATOM     25  C   UNL     1       1.324  12.082  19.537  0.00  0.00    +0.000 C 
ATOM     26  N   UNL     1       0.642  11.446  20.685  0.00  0.00    +0.000 NA
ATOM     27  C   UNL     1      -0.034  12.515  21.475  0.00  0.00    +0.000 C 
ATOM     28  C   UNL     1      -0.959  13.440  20.630  0.00  0.00    +0.000 C 
BRANCH  23  29
ATOM     29  C   UNL     1       0.501  15.222  19.629  0.00  0.00    +0.000 C 
BRANCH  29  30
ATOM     30  C   UNL     1      -0.255  16.299  20.459  0.00  0.00    +0.000 C 
BRANCH  30  31
ATOM     31  C   UNL     1      -0.984  17.325  19.577  0.00  0.00    +0.000 C 
BRANCH  31  32
ATOM     32  N   UNL     1      -0.945  16.914  18.174  0.00  0.00    +0.000 NA
ATOM     33  H   UNL     1      -1.745  17.356  17.666  0.00  0.00    +0.000 HD
ATOM     34  H   UNL     1      -1.079  15.877  18.121  0.00  0.00    +0.000 HD
ENDBRANCH  31  32
ENDBRANCH  30  31
ENDBRANCH  29  30
ENDBRANCH  23  29
ENDBRANCH  22  26
ENDBRANCH  21  22
ENDBRANCH  20  21
ENDBRANCH   1  20
TORSDOF 9
ENDMDL
MODEL 9
REMARK VINA RESULT:      -7.4      1.596      2.020
REMARK  Name = 
REMARK  9 active torsions:
REMARK  status: ('A' for Active; 'I' for Inactive)
REMARK    1  A    between atoms: N_1  and  C_2
REMARK    2  A    between atoms: C_2  and  C_3
REMARK    3  A    between atoms: C_3  and  C_4
REMARK    4  A    between atoms: C_4  and  N_5
REMARK    5  A    between atoms: N_8  and  C_9
REMARK    6  A    between atoms: C_9  and  C_10
REMARK    7  A    between atoms: C_10  and  C_11
REMARK    8  A    between atoms: C_11  and  N_12
REMARK    9  A    between atoms: N_12  and  C_13
REMARK                            x       y       z     vdW  Elec       q    Type
REMARK                         _______ _______ _______ _____ _____    ______ ____
ROOT
ATOM      1  N   UNL     1       1.121   6.673  20.598  0.00  0.00    +0.000 N 
ATOM      2  H   UNL     1       0.102   6.683  20.425  0.00  0.00    +0.000 HD
ENDROOT
BRANCH   1   3
ATOM      3  C   UNL     1       1.773   5.442  20.136  0.00  0.00    +0.000 A 
ATOM      4  C   UNL     1       1.341   4.268  20.866  0.00  0.00    +0.000 A 
ATOM      5  C   UNL     1       1.771   2.963  20.574  0.00  0.00    +0.000 A 
ATOM      6  C   UNL     1       2.636   2.814  19.519  0.00  0.00    +0.000 A 
ATOM      7  N   UNL     1       3.167   1.677  19.016  0.00  0.00    +0.000 NA
ATOM      8  N   UNL     1       3.932   2.072  17.992  0.00  0.00    +0.000 NA
ATOM      9  N   UNL     1       3.876   3.395  17.874  0.00  0.00    +0.000 N 
ATOM     10  C   UNL     1       4.493   4.186  16.987  0.00  0.00    +0.000 A 
ATOM     11  C   UNL     1       5.292   3.628  15.972  0.00  0.00    +0.000 A 
ATOM     12  C   UNL     1       5.934   4.458  15.061  0.00  0.00    +0.000 A 
ATOM     13  C   UNL     1       5.799   5.844  15.171  0.00  0.00    +0.000 A 
ATOM     14  C   UNL     1       4.994   6.413  16.180  0.00  0.00    +0.000 A 
ATOM     15  C   UNL     1       4.303   5.591  17.104  0.00  0.00    +0.000 A 
ATOM     16  C   UNL     1       3.416   6.115  18.141  0.00  0.00    +0.000 A 
ATOM     17  O   UNL     1       3.248   7.314  18.240  0.00  0.00    +0.000 OA
ATOM     18  C   UNL     1       2.743   5.218  19.038  0.00  0.00    +0.000 A 
ATOM     19  C   UNL     1       3.073   3.866  18.817  0.00  0.00    +0.000 A 
ENDBRANCH   1   3
BRANCH   1  20
ATOM     20  C   UNL     1       1.605   7.931  21.194  0.00  0.00    +0.000 C 
BRANCH  20  21
ATOM     21  C   UNL     1       0.530   9.083  20.986  0.00  0.00    +0.000 C 
BRANCH  21  22
ATOM     22  C   UNL     1       0.956  10.599  21.103  0.00  0.00    +0.000 C 
BRANCH  22  26
ATOM     23  N   UNL     1      -1.870  10.969  18.566  0.00  0.00    +0.000 NA
ATOM     24  C   UNL     1      -0.758   9.999  18.496  0.00  0.00    +0.000 C 
ATOM     25  C   UNL     1       0.626  10.675  18.615  0.00  0.00    +0.000 C 
ATOM     26  N   UNL     1       0.786  11.431  19.877  0.00  0.00    +0.000 NA
ATOM     27  C   UNL     1      -0.320  12.428  19.964  0.00  0.00    +0.000 C 
ATOM     28  C   UNL     1      -1.741  11.819  19.774  0.00  0.00    +0.000 C 
BRANCH  23  29
ATOM     29  C   UNL     1      -2.162  11.699  17.301  0.00  0.00    +0.000 C 
BRANCH  29  30
ATOM     30  C   UNL     1      -3.385  11.112  16.539  0.00  0.00    +0.000 C 
BRANCH  30  31
ATOM     31  C   UNL     1      -3.023  10.613  15.130  0.00  0.00    +0.000 C 
BRANCH  31  32
ATOM     32  N   UNL     1      -4.187  10.000  14.490  0.00  0.00    +0.000 NA
ATOM     33  H   UNL     1      -4.148  10.185  13.462  0.00  0.00    +0.000 HD
ATOM     34  H   UNL     1      -5.055  10.457  14.855  0.00  0.00    +0.000 HD
ENDBRANCH  31  32
ENDBRANCH  30  31
ENDBRANCH  29  30
ENDBRANCH  23  29
ENDBRANCH  22  26
ENDBRANCH  21  22
ENDBRANCH  20  21
ENDBRANCH   1  20
TORSDOF 9
ENDMDL
