MODEL 1
REMARK VINA RESULT:      -6.8      0.000      0.000
REMARK  Name = 
REMARK  8 active torsions:
REMARK  status: ('A' for Active; 'I' for Inactive)
REMARK    1  A    between atoms: C_1  and  C_2
REMARK    2  A    between atoms: C_4  and  C_5
REMARK    3  A    between atoms: C_11  and  C_12
REMARK    4  A    between atoms: C_12  and  N_13
REMARK    5  A    between atoms: N_16  and  C_17
REMARK    6  A    between atoms: C_22  and  C_23
REMARK    7  A    between atoms: C_23  and  C_24
REMARK    8  A    between atoms: C_24  and  O_25
REMARK                            x       y       z     vdW  Elec       q    Type
REMARK                         _______ _______ _______ _____ _____    ______ ____
ROOT
ATOM      1  N   UNL     1       2.400   6.935  18.160  0.00  0.00    +0.000 NA
ATOM      2  C   UNL     1       3.682   7.291  17.521  0.00  0.00    +0.000 C 
ATOM      3  C   UNL     1       4.937   6.557  18.067  0.00  0.00    +0.000 C 
ATOM      4  N   UNL     1       4.838   5.091  18.249  0.00  0.00    +0.000 NA
ATOM      5  C   UNL     1       3.525   4.707  18.809  0.00  0.00    +0.000 C 
ATOM      6  C   UNL     1       2.312   5.446  18.147  0.00  0.00    +0.000 C 
ENDROOT
BRANCH   4   7
ATOM      7  C   UNL     1       5.450   4.282  17.188  0.00  0.00    +0.000 C 
ATOM      8  C   UNL     1       4.811   4.314  15.797  0.00  0.00    +0.000 C 
ATOM      9  C   UNL     1       5.948   4.071  14.815  0.00  0.00    +0.000 C 
ATOM     10  C   UNL     1       7.189   4.654  15.469  0.00  0.00    +0.000 C 
ATOM     11  C   UNL     1       6.935   4.656  16.971  0.00  0.00    +0.000 C 
ENDBRANCH   4   7
BRANCH   1  12
ATOM     12  C   UNL     1       2.266   7.452  19.544  0.00  0.00    +0.000 C 
BRANCH  12  18
ATOM     13  C   UNL     1      -0.228   8.306  21.804  0.00  0.00    +0.000 C 
ATOM     14  C   UNL     1       0.397   8.952  20.637  0.00  0.00    +0.000 A 
ATOM     15  O   UNL     1       0.010  10.245  20.429  0.00  0.00    +0.000 OA
ATOM     16  C   UNL     1       0.814  10.710  19.422  0.00  0.00    +0.000 A 
ATOM     17  N   UNL     1       1.613   9.776  18.929  0.00  0.00    +0.000 NA
ATOM     18  C   UNL     1       1.367   8.647  19.700  0.00  0.00    +0.000 A 
BRANCH  16  19
ATOM     19  C   UNL     1       0.829  12.101  19.058  0.00  0.00    +0.000 A 
ATOM     20  C   UNL     1      -0.285  12.913  18.923  0.00  0.00    +0.000 A 
ATOM     21  C   UNL     1       0.051  14.276  18.673  0.00  0.00    +0.000 A 
ATOM     22  C   UNL     1       1.411  14.454  18.604  0.00  0.00    +0.000 A 
ATOM     23  S   UNL     1       2.271  12.987  18.822  0.00  0.00    +0.000 S 
ENDBRANCH  16  19
ENDBRANCH  12  18
ENDBRANCH   1  12
BRANCH   5  24
ATOM     24  C   UNL     1       3.236   3.199  18.972  0.00  0.00    +0.000 C 
BRANCH  24  25
ATOM     25  C   UNL     1       3.916   2.610  20.208  0.00  0.00    +0.000 C 
BRANCH  25  26
ATOM     26  O   UNL     1       5.044   1.835  19.815  0.00  0.00    +0.000 OA
ATOM     27  H   UNL     1       4.989   1.698  18.854  0.00  0.00    +0.000 HD
ENDBRANCH  25  26
ENDBRANCH  24  25
ENDBRANCH   5  24
TORSDOF 7
ENDMDL
MODEL 2
REMARK VINA RESULT:      -6.8      1.949      2.492
REMARK  Name = 
REMARK  8 active torsions:
REMARK  status: ('A' for Active; 'I' for Inactive)
REMARK    1  A    between atoms: C_1  and  C_2
REMARK    2  A    between atoms: C_4  and  C_5
REMARK    3  A    between atoms: C_11  and  C_12
REMARK    4  A    between atoms: C_12  and  N_13
REMARK    5  A    between atoms: N_16  and  C_17
REMARK    6  A    between atoms: C_22  and  C_23
REMARK    7  A    between atoms: C_23  and  C_24
REMARK    8  A    between atoms: C_24  and  O_25
REMARK                            x       y       z     vdW  Elec       q    Type
REMARK                         _______ _______ _______ _____ _____    ______ ____
ROOT
ATOM      1  N   UNL     1       2.435   6.667  18.278  0.00  0.00    +0.000 NA
ATOM      2  C   UNL     1       3.728   7.064  17.686  0.00  0.00    +0.000 C 
ATOM      3  C   UNL     1       4.980   6.329  18.238  0.00  0.00    +0.000 C 
ATOM      4  N   UNL     1       4.898   4.856  18.365  0.00  0.00    +0.000 NA
ATOM      5  C   UNL     1       3.577   4.434  18.877  0.00  0.00    +0.000 C 
ATOM      6  C   UNL     1       2.371   5.178  18.210  0.00  0.00    +0.000 C 
ENDROOT
BRANCH   4   7
ATOM      7  C   UNL     1       5.549   4.094  17.291  0.00  0.00    +0.000 C 
ATOM      8  C   UNL     1       4.894   4.094  15.908  0.00  0.00    +0.000 C 
ATOM      9  C   UNL     1       6.033   3.930  14.912  0.00  0.00    +0.000 C 
ATOM     10  C   UNL     1       7.241   4.588  15.557  0.00  0.00    +0.000 C 
ATOM     11  C   UNL     1       7.004   4.565  17.062  0.00  0.00    +0.000 C 
ENDBRANCH   4   7
BRANCH   1  12
ATOM     12  C   UNL     1       2.259   7.132  19.676  0.00  0.00    +0.000 C 
BRANCH  12  18
ATOM     13  C   UNL     1       1.991   9.865  17.549  0.00  0.00    +0.000 C 
ATOM     14  C   UNL     1       1.590   9.571  18.936  0.00  0.00    +0.000 A 
ATOM     15  O   UNL     1       0.827  10.538  19.524  0.00  0.00    +0.000 OA
ATOM     16  C   UNL     1       0.424  10.009  20.722  0.00  0.00    +0.000 A 
ATOM     17  N   UNL     1       0.953   8.819  20.962  0.00  0.00    +0.000 NA
ATOM     18  C   UNL     1       1.693   8.517  19.826  0.00  0.00    +0.000 A 
BRANCH  16  19
ATOM     19  C   UNL     1      -0.558  10.669  21.540  0.00  0.00    +0.000 A 
ATOM     20  C   UNL     1      -0.847  10.365  22.859  0.00  0.00    +0.000 A 
ATOM     21  C   UNL     1      -1.781  11.270  23.444  0.00  0.00    +0.000 A 
ATOM     22  C   UNL     1      -2.187  12.224  22.544  0.00  0.00    +0.000 A 
ATOM     23  S   UNL     1      -1.463  12.016  21.003  0.00  0.00    +0.000 S 
ENDBRANCH  16  19
ENDBRANCH  12  18
ENDBRANCH   1  12
BRANCH   5  24
ATOM     24  C   UNL     1       3.307   2.916  18.978  0.00  0.00    +0.000 C 
BRANCH  24  25
ATOM     25  C   UNL     1       3.922   2.302  20.236  0.00  0.00    +0.000 C 
BRANCH  25  26
ATOM     26  O   UNL     1       5.269   1.919  19.976  0.00  0.00    +0.000 OA
ATOM     27  H   UNL     1       5.761   2.719  19.728  0.00  0.00    +0.000 HD
ENDBRANCH  25  26
ENDBRANCH  24  25
ENDBRANCH   5  24
TORSDOF 7
ENDMDL
MODEL 3
REMARK VINA RESULT:      -6.8      3.507      7.906
REMARK  Name = 
REMARK  8 active torsions:
REMARK  status: ('A' for Active; 'I' for Inactive)
REMARK    1  A    between atoms: C_1  and  C_2
REMARK    2  A    between atoms: C_4  and  C_5
REMARK    3  A    between atoms: C_11  and  C_12
REMARK    4  A    between atoms: C_12  and  N_13
REMARK    5  A    between atoms: N_16  and  C_17
REMARK    6  A    between atoms: C_22  and  C_23
REMARK    7  A    between atoms: C_23  and  C_24
REMARK    8  A    between atoms: C_24  and  O_25
REMARK                            x       y       z     vdW  Elec       q    Type
REMARK                         _______ _______ _______ _____ _____    ______ ____
ROOT
ATOM      1  N   UNL     1       3.216   6.519  17.373  0.00  0.00    +0.000 NA
ATOM      2  C   UNL     1       3.438   5.113  17.767  0.00  0.00    +0.000 C 
ATOM      3  C   UNL     1       3.748   4.871  19.269  0.00  0.00    +0.000 C 
ATOM      4  N   UNL     1       2.884   5.555  20.258  0.00  0.00    +0.000 NA
ATOM      5  C   UNL     1       2.580   6.940  19.837  0.00  0.00    +0.000 C 
ATOM      6  C   UNL     1       2.208   7.076  18.322  0.00  0.00    +0.000 C 
ENDROOT
BRANCH   4   7
ATOM      7  C   UNL     1       1.835   4.723  20.860  0.00  0.00    +0.000 C 
ATOM      8  C   UNL     1       0.903   3.948  19.926  0.00  0.00    +0.000 C 
ATOM      9  C   UNL     1       0.490   2.701  20.697  0.00  0.00    +0.000 C 
ATOM     10  C   UNL     1       1.662   2.370  21.604  0.00  0.00    +0.000 C 
ATOM     11  C   UNL     1       2.429   3.669  21.823  0.00  0.00    +0.000 C 
ENDBRANCH   4   7
BRANCH   1  12
ATOM     12  C   UNL     1       4.453   7.338  17.389  0.00  0.00    +0.000 C 
BRANCH  12  18
ATOM     13  C   UNL     1       7.710   6.504  18.258  0.00  0.00    +0.000 C 
ATOM     14  C   UNL     1       6.897   6.423  17.032  0.00  0.00    +0.000 A 
ATOM     15  O   UNL     1       7.495   5.763  15.997  0.00  0.00    +0.000 OA
ATOM     16  C   UNL     1       6.532   5.649  15.029  0.00  0.00    +0.000 A 
ATOM     17  N   UNL     1       5.405   6.267  15.351  0.00  0.00    +0.000 NA
ATOM     18  C   UNL     1       5.616   6.759  16.633  0.00  0.00    +0.000 A 
BRANCH  16  19
ATOM     19  C   UNL     1       6.737   4.838  13.860  0.00  0.00    +0.000 A 
ATOM     20  C   UNL     1       5.991   3.726  13.507  0.00  0.00    +0.000 A 
ATOM     21  C   UNL     1       6.351   3.200  12.231  0.00  0.00    +0.000 A 
ATOM     22  C   UNL     1       7.375   3.918  11.663  0.00  0.00    +0.000 A 
ATOM     23  S   UNL     1       7.907   5.201  12.668  0.00  0.00    +0.000 S 
ENDBRANCH  16  19
ENDBRANCH  12  18
ENDBRANCH   1  12
BRANCH   5  24
ATOM     24  C   UNL     1       1.612   7.754  20.723  0.00  0.00    +0.000 C 
BRANCH  24  25
ATOM     25  C   UNL     1       1.136   9.034  20.035  0.00  0.00    +0.000 C 
BRANCH  25  26
ATOM     26  O   UNL     1      -0.042   9.515  20.673  0.00  0.00    +0.000 OA
ATOM     27  H   UNL     1      -0.674   8.777  20.722  0.00  0.00    +0.000 HD
ENDBRANCH  25  26
ENDBRANCH  24  25
ENDBRANCH   5  24
TORSDOF 7
ENDMDL
MODEL 4
REMARK VINA RESULT:      -6.6      2.112      2.617
REMARK  Name = 
REMARK  8 active torsions:
REMARK  status: ('A' for Active; 'I' for Inactive)
REMARK    1  A    between atoms: C_1  and  C_2
REMARK    2  A    between atoms: C_4  and  C_5
REMARK    3  A    between atoms: C_11  and  C_12
REMARK    4  A    between atoms: C_12  and  N_13
REMARK    5  A    between atoms: N_16  and  C_17
REMARK    6  A    between atoms: C_22  and  C_23
REMARK    7  A    between atoms: C_23  and  C_24
REMARK    8  A    between atoms: C_24  and  O_25
REMARK                            x       y       z     vdW  Elec       q    Type
REMARK                         _______ _______ _______ _____ _____    ______ ____
ROOT
ATOM      1  N   UNL     1       2.450   6.495  18.287  0.00  0.00    +0.000 NA
ATOM      2  C   UNL     1       3.687   6.962  17.631  0.00  0.00    +0.000 C 
ATOM      3  C   UNL     1       5.008   6.327  18.143  0.00  0.00    +0.000 C 
ATOM      4  N   UNL     1       5.032   4.855  18.307  0.00  0.00    +0.000 NA
ATOM      5  C   UNL     1       3.765   4.359  18.885  0.00  0.00    +0.000 C 
ATOM      6  C   UNL     1       2.484   5.004  18.256  0.00  0.00    +0.000 C 
ENDROOT
BRANCH   4   7
ATOM      7  C   UNL     1       5.687   4.112  17.223  0.00  0.00    +0.000 C 
ATOM      8  C   UNL     1       4.984   4.048  15.865  0.00  0.00    +0.000 C 
ATOM      9  C   UNL     1       6.095   3.931  14.830  0.00  0.00    +0.000 C 
ATOM     10  C   UNL     1       7.285   4.669  15.419  0.00  0.00    +0.000 C 
ATOM     11  C   UNL     1       7.103   4.661  16.932  0.00  0.00    +0.000 C 
ENDBRANCH   4   7
BRANCH   1  12
ATOM     12  C   UNL     1       2.302   6.982  19.680  0.00  0.00    +0.000 C 
BRANCH  12  18
ATOM     13  C   UNL     1       1.892   9.624  17.464  0.00  0.00    +0.000 C 
ATOM     14  C   UNL     1       1.617   9.402  18.895  0.00  0.00    +0.000 A 
ATOM     15  O   UNL     1       0.933  10.413  19.506  0.00  0.00    +0.000 OA
ATOM     16  C   UNL     1       0.634   9.948  20.759  0.00  0.00    +0.000 A 
ATOM     17  N   UNL     1       1.158   8.756  21.003  0.00  0.00    +0.000 NA
ATOM     18  C   UNL     1       1.782   8.386  19.819  0.00  0.00    +0.000 A 
BRANCH  16  19
ATOM     19  C   UNL     1      -0.253  10.667  21.633  0.00  0.00    +0.000 A 
ATOM     20  C   UNL     1      -0.851  11.884  21.353  0.00  0.00    +0.000 A 
ATOM     21  C   UNL     1      -1.775  12.292  22.360  0.00  0.00    +0.000 A 
ATOM     22  C   UNL     1      -1.834  11.380  23.386  0.00  0.00    +0.000 A 
ATOM     23  S   UNL     1      -0.772  10.057  23.143  0.00  0.00    +0.000 S 
ENDBRANCH  16  19
ENDBRANCH  12  18
ENDBRANCH   1  12
BRANCH   5  24
ATOM     24  C   UNL     1       3.604   2.830  19.032  0.00  0.00    +0.000 C 
BRANCH  24  25
ATOM     25  C   UNL     1       2.540   2.267  18.089  0.00  0.00    +0.000 C 
BRANCH  25  26
ATOM     26  O   UNL     1       1.631   1.449  18.820  0.00  0.00    +0.000 OA
ATOM     27  H   UNL     1       0.737   1.805  18.684  0.00  0.00    +0.000 HD
ENDBRANCH  25  26
ENDBRANCH  24  25
ENDBRANCH   5  24
TORSDOF 7
ENDMDL
MODEL 5
REMARK VINA RESULT:      -6.5      1.924      3.192
REMARK  Name = 
REMARK  8 active torsions:
REMARK  status: ('A' for Active; 'I' for Inactive)
REMARK    1  A    between atoms: C_1  and  C_2
REMARK    2  A    between atoms: C_4  and  C_5
REMARK    3  A    between atoms: C_11  and  C_12
REMARK    4  A    between atoms: C_12  and  N_13
REMARK    5  A    between atoms: N_16  and  C_17
REMARK    6  A    between atoms: C_22  and  C_23
REMARK    7  A    between atoms: C_23  and  C_24
REMARK    8  A    between atoms: C_24  and  O_25
REMARK                            x       y       z     vdW  Elec       q    Type
REMARK                         _______ _______ _______ _____ _____    ______ ____
ROOT
ATOM      1  N   UNL     1       2.879   7.370  18.953  0.00  0.00    +0.000 NA
ATOM      2  C   UNL     1       2.208   6.127  19.381  0.00  0.00    +0.000 C 
ATOM      3  C   UNL     1       2.067   5.025  18.296  0.00  0.00    +0.000 C 
ATOM      4  N   UNL     1       3.267   4.715  17.486  0.00  0.00    +0.000 NA
ATOM      5  C   UNL     1       4.000   5.945  17.120  0.00  0.00    +0.000 C 
ATOM      6  C   UNL     1       4.156   6.966  18.298  0.00  0.00    +0.000 C 
ENDROOT
BRANCH   4   7
ATOM      7  C   UNL     1       4.005   3.512  17.891  0.00  0.00    +0.000 C 
ATOM      8  C   UNL     1       4.521   3.431  19.330  0.00  0.00    +0.000 C 
ATOM      9  C   UNL     1       4.536   1.949  19.680  0.00  0.00    +0.000 C 
ATOM     10  C   UNL     1       3.406   1.325  18.880  0.00  0.00    +0.000 C 
ATOM     11  C   UNL     1       3.165   2.230  17.678  0.00  0.00    +0.000 C 
ENDBRANCH   4   7
BRANCH   1  12
ATOM     12  C   UNL     1       2.060   8.195  18.031  0.00  0.00    +0.000 C 
BRANCH  12  18
ATOM     13  C   UNL     1       0.294   8.983  20.916  0.00  0.00    +0.000 C 
ATOM     14  C   UNL     1       0.849   9.746  19.783  0.00  0.00    +0.000 A 
ATOM     15  O   UNL     1       0.771  11.102  19.919  0.00  0.00    +0.000 OA
ATOM     16  C   UNL     1       1.479  11.616  18.864  0.00  0.00    +0.000 A 
ATOM     17  N   UNL     1       1.917  10.682  18.035  0.00  0.00    +0.000 NA
ATOM     18  C   UNL     1       1.533   9.478  18.611  0.00  0.00    +0.000 A 
BRANCH  16  19
ATOM     19  C   UNL     1       1.781  13.020  18.779  0.00  0.00    +0.000 A 
ATOM     20  C   UNL     1       2.932  13.567  18.239  0.00  0.00    +0.000 A 
ATOM     21  C   UNL     1       2.894  14.992  18.183  0.00  0.00    +0.000 A 
ATOM     22  C   UNL     1       1.722  15.484  18.702  0.00  0.00    +0.000 A 
ATOM     23  S   UNL     1       0.687  14.239  19.268  0.00  0.00    +0.000 S 
ENDBRANCH  16  19
ENDBRANCH  12  18
ENDBRANCH   1  12
BRANCH   5  24
ATOM     24  C   UNL     1       5.328   5.777  16.349  0.00  0.00    +0.000 C 
BRANCH  24  25
ATOM     25  C   UNL     1       6.535   6.227  17.172  0.00  0.00    +0.000 C 
BRANCH  25  26
ATOM     26  O   UNL     1       7.618   6.550  16.305  0.00  0.00    +0.000 OA
ATOM     27  H   UNL     1       7.258   7.068  15.564  0.00  0.00    +0.000 HD
ENDBRANCH  25  26
ENDBRANCH  24  25
ENDBRANCH   5  24
TORSDOF 7
ENDMDL
MODEL 6
REMARK VINA RESULT:      -6.5      0.962      1.165
REMARK  Name = 
REMARK  8 active torsions:
REMARK  status: ('A' for Active; 'I' for Inactive)
REMARK    1  A    between atoms: C_1  and  C_2
REMARK    2  A    between atoms: C_4  and  C_5
REMARK    3  A    between atoms: C_11  and  C_12
REMARK    4  A    between atoms: C_12  and  N_13
REMARK    5  A    between atoms: N_16  and  C_17
REMARK    6  A    between atoms: C_22  and  C_23
REMARK    7  A    between atoms: C_23  and  C_24
REMARK    8  A    between atoms: C_24  and  O_25
REMARK                            x       y       z     vdW  Elec       q    Type
REMARK                         _______ _______ _______ _____ _____    ______ ____
ROOT
ATOM      1  N   UNL     1       2.385   6.906  18.241  0.00  0.00    +0.000 NA
ATOM      2  C   UNL     1       3.617   7.282  17.520  0.00  0.00    +0.000 C 
ATOM      3  C   UNL     1       4.926   6.615  18.023  0.00  0.00    +0.000 C 
ATOM      4  N   UNL     1       4.892   5.155  18.265  0.00  0.00    +0.000 NA
ATOM      5  C   UNL     1       3.626   4.747  18.911  0.00  0.00    +0.000 C 
ATOM      6  C   UNL     1       2.353   5.415  18.289  0.00  0.00    +0.000 C 
ENDROOT
BRANCH   4   7
ATOM      7  C   UNL     1       5.476   4.327  17.203  0.00  0.00    +0.000 C 
ATOM      8  C   UNL     1       4.791   4.320  15.834  0.00  0.00    +0.000 C 
ATOM      9  C   UNL     1       5.897   4.065  14.820  0.00  0.00    +0.000 C 
ATOM     10  C   UNL     1       7.153   4.674  15.418  0.00  0.00    +0.000 C 
ATOM     11  C   UNL     1       6.949   4.710  16.928  0.00  0.00    +0.000 C 
ENDBRANCH   4   7
BRANCH   1  12
ATOM     12  C   UNL     1       2.306   7.472  19.610  0.00  0.00    +0.000 C 
BRANCH  12  18
ATOM     13  C   UNL     1      -0.313   8.236  21.759  0.00  0.00    +0.000 C 
ATOM     14  C   UNL     1       0.376   8.929  20.656  0.00  0.00    +0.000 A 
ATOM     15  O   UNL     1       0.000  10.229  20.478  0.00  0.00    +0.000 OA
ATOM     16  C   UNL     1       0.859  10.734  19.538  0.00  0.00    +0.000 A 
ATOM     17  N   UNL     1       1.685   9.819  19.053  0.00  0.00    +0.000 NA
ATOM     18  C   UNL     1       1.398   8.661  19.763  0.00  0.00    +0.000 A 
BRANCH  16  19
ATOM     19  C   UNL     1       0.893  12.139  19.232  0.00  0.00    +0.000 A 
ATOM     20  C   UNL     1       2.025  12.870  18.916  0.00  0.00    +0.000 A 
ATOM     21  C   UNL     1       1.730  14.214  18.541  0.00  0.00    +0.000 A 
ATOM     22  C   UNL     1       0.381  14.467  18.602  0.00  0.00    +0.000 A 
ATOM     23  S   UNL     1      -0.515  13.103  19.126  0.00  0.00    +0.000 S 
ENDBRANCH  16  19
ENDBRANCH  12  18
ENDBRANCH   1  12
BRANCH   5  24
ATOM     24  C   UNL     1       3.404   3.237  19.146  0.00  0.00    +0.000 C 
BRANCH  24  25
ATOM     25  C   UNL     1       2.102   2.739  18.516  0.00  0.00    +0.000 C 
BRANCH  25  26
ATOM     26  O   UNL     1       2.368   1.617  17.681  0.00  0.00    +0.000 OA
ATOM     27  H   UNL     1       3.332   1.550  17.574  0.00  0.00    +0.000 HD
ENDBRANCH  25  26
ENDBRANCH  24  25
ENDBRANCH   5  24
TORSDOF 7
ENDMDL
MODEL 7
REMARK VINA RESULT:      -6.5      3.415      9.481
REMARK  Name = 
REMARK  8 active torsions:
REMARK  status: ('A' for Active; 'I' for Inactive)
REMARK    1  A    between atoms: C_1  and  C_2
REMARK    2  A    between atoms: C_4  and  C_5
REMARK    3  A    between atoms: C_11  and  C_12
REMARK    4  A    between atoms: C_12  and  N_13
REMARK    5  A    between atoms: N_16  and  C_17
REMARK    6  A    between atoms: C_22  and  C_23
REMARK    7  A    between atoms: C_23  and  C_24
REMARK    8  A    between atoms: C_24  and  O_25
REMARK                            x       y       z     vdW  Elec       q    Type
REMARK                         _______ _______ _______ _____ _____    ______ ____
ROOT
ATOM      1  N   UNL     1      -0.097   8.632  21.053  0.00  0.00    +0.000 NA
ATOM      2  C   UNL     1      -0.619   8.975  22.391  0.00  0.00    +0.000 C 
ATOM      3  C   UNL     1      -0.121  10.319  22.989  0.00  0.00    +0.000 C 
ATOM      4  N   UNL     1      -0.148  11.505  22.103  0.00  0.00    +0.000 NA
ATOM      5  C   UNL     1       0.291  11.162  20.733  0.00  0.00    +0.000 C 
ATOM      6  C   UNL     1      -0.319   9.826  20.187  0.00  0.00    +0.000 C 
ENDROOT
BRANCH   4   7
ATOM      7  C   UNL     1      -1.281  12.416  22.305  0.00  0.00    +0.000 C 
ATOM      8  C   UNL     1      -2.434  11.947  23.196  0.00  0.00    +0.000 C 
ATOM      9  C   UNL     1      -3.016  13.210  23.817  0.00  0.00    +0.000 C 
ATOM     10  C   UNL     1      -1.854  14.180  23.942  0.00  0.00    +0.000 C 
ATOM     11  C   UNL     1      -0.824  13.770  22.897  0.00  0.00    +0.000 C 
ENDBRANCH   4   7
BRANCH   1  12
ATOM     12  C   UNL     1       1.338   8.254  21.059  0.00  0.00    +0.000 C 
BRANCH  12  18
ATOM     13  C   UNL     1       2.459   8.803  17.818  0.00  0.00    +0.000 C 
ATOM     14  C   UNL     1       2.231   7.618  18.663  0.00  0.00    +0.000 A 
ATOM     15  O   UNL     1       2.658   6.441  18.118  0.00  0.00    +0.000 OA
ATOM     16  C   UNL     1       2.514   5.505  19.109  0.00  0.00    +0.000 A 
ATOM     17  N   UNL     1       1.948   5.996  20.201  0.00  0.00    +0.000 NA
ATOM     18  C   UNL     1       1.768   7.348  19.939  0.00  0.00    +0.000 A 
BRANCH  16  19
ATOM     19  C   UNL     1       3.044   4.176  18.966  0.00  0.00    +0.000 A 
ATOM     20  C   UNL     1       3.850   3.524  19.884  0.00  0.00    +0.000 A 
ATOM     21  C   UNL     1       4.118   2.171  19.523  0.00  0.00    +0.000 A 
ATOM     22  C   UNL     1       3.523   1.843  18.329  0.00  0.00    +0.000 A 
ATOM     23  S   UNL     1       2.666   3.160  17.644  0.00  0.00    +0.000 S 
ENDBRANCH  16  19
ENDBRANCH  12  18
ENDBRANCH   1  12
BRANCH   5  24
ATOM     24  C   UNL     1       0.230  12.278  19.668  0.00  0.00    +0.000 C 
BRANCH  24  25
ATOM     25  C   UNL     1      -1.084  12.260  18.886  0.00  0.00    +0.000 C 
BRANCH  25  26
ATOM     26  O   UNL     1      -0.816  12.364  17.491  0.00  0.00    +0.000 OA
ATOM     27  H   UNL     1      -0.170  11.674  17.262  0.00  0.00    +0.000 HD
ENDBRANCH  25  26
ENDBRANCH  24  25
ENDBRANCH   5  24
TORSDOF 7
ENDMDL
MODEL 8
REMARK VINA RESULT:      -6.5      2.313      2.802
REMARK  Name = 
REMARK  8 active torsions:
REMARK  status: ('A' for Active; 'I' for Inactive)
REMARK    1  A    between atoms: C_1  and  C_2
REMARK    2  A    between atoms: C_4  and  C_5
REMARK    3  A    between atoms: C_11  and  C_12
REMARK    4  A    between atoms: C_12  and  N_13
REMARK    5  A    between atoms: N_16  and  C_17
REMARK    6  A    between atoms: C_22  and  C_23
REMARK    7  A    between atoms: C_23  and  C_24
REMARK    8  A    between atoms: C_24  and  O_25
REMARK                            x       y       z     vdW  Elec       q    Type
REMARK                         _______ _______ _______ _____ _____    ______ ____
ROOT
ATOM      1  N   UNL     1       3.552   6.673  17.746  0.00  0.00    +0.000 NA
ATOM      2  C   UNL     1       4.810   6.988  17.040  0.00  0.00    +0.000 C 
ATOM      3  C   UNL     1       5.982   5.997  17.269  0.00  0.00    +0.000 C 
ATOM      4  N   UNL     1       5.677   4.552  17.164  0.00  0.00    +0.000 NA
ATOM      5  C   UNL     1       4.378   4.230  17.791  0.00  0.00    +0.000 C 
ATOM      6  C   UNL     1       3.237   5.246  17.445  0.00  0.00    +0.000 C 
ENDROOT
BRANCH   4   7
ATOM      7  C   UNL     1       6.058   3.919  15.895  0.00  0.00    +0.000 C 
ATOM      8  C   UNL     1       5.033   3.910  14.757  0.00  0.00    +0.000 C 
ATOM      9  C   UNL     1       5.846   3.923  13.470  0.00  0.00    +0.000 C 
ATOM     10  C   UNL     1       7.122   4.680  13.795  0.00  0.00    +0.000 C 
ATOM     11  C   UNL     1       7.334   4.560  15.300  0.00  0.00    +0.000 C 
ENDBRANCH   4   7
BRANCH   1  12
ATOM     12  C   UNL     1       3.627   6.891  19.211  0.00  0.00    +0.000 C 
BRANCH  12  18
ATOM     13  C   UNL     1       1.502   4.733  20.911  0.00  0.00    +0.000 C 
ATOM     14  C   UNL     1       1.501   6.171  20.591  0.00  0.00    +0.000 A 
ATOM     15  O   UNL     1       0.499   6.884  21.183  0.00  0.00    +0.000 OA
ATOM     16  C   UNL     1       0.769   8.198  20.903  0.00  0.00    +0.000 A 
ATOM     17  N   UNL     1       1.816   8.348  20.107  0.00  0.00    +0.000 NA
ATOM     18  C   UNL     1       2.304   7.064  19.904  0.00  0.00    +0.000 A 
BRANCH  16  19
ATOM     19  C   UNL     1       0.032   9.263  21.527  0.00  0.00    +0.000 A 
ATOM     20  C   UNL     1      -0.393   9.288  22.845  0.00  0.00    +0.000 A 
ATOM     21  C   UNL     1      -0.994  10.529  23.209  0.00  0.00    +0.000 A 
ATOM     22  C   UNL     1      -1.026  11.402  22.149  0.00  0.00    +0.000 A 
ATOM     23  S   UNL     1      -0.354  10.723  20.726  0.00  0.00    +0.000 S 
ENDBRANCH  16  19
ENDBRANCH  12  18
ENDBRANCH   1  12
BRANCH   5  24
ATOM     24  C   UNL     1       3.878   2.773  17.681  0.00  0.00    +0.000 C 
BRANCH  24  25
ATOM     25  C   UNL     1       4.026   2.010  18.998  0.00  0.00    +0.000 C 
BRANCH  25  26
ATOM     26  O   UNL     1       5.136   2.521  19.730  0.00  0.00    +0.000 OA
ATOM     27  H   UNL     1       5.043   2.225  20.651  0.00  0.00    +0.000 HD
ENDBRANCH  25  26
ENDBRANCH  24  25
ENDBRANCH   5  24
TORSDOF 7
ENDMDL
MODEL 9
REMARK VINA RESULT:      -6.4      3.380      9.225
REMARK  Name = 
REMARK  8 active torsions:
REMARK  status: ('A' for Active; 'I' for Inactive)
REMARK    1  A    between atoms: C_1  and  C_2
REMARK    2  A    between atoms: C_4  and  C_5
REMARK    3  A    between atoms: C_11  and  C_12
REMARK    4  A    between atoms: C_12  and  N_13
REMARK    5  A    between atoms: N_16  and  C_17
REMARK    6  A    between atoms: C_22  and  C_23
REMARK    7  A    between atoms: C_23  and  C_24
REMARK    8  A    between atoms: C_24  and  O_25
REMARK                            x       y       z     vdW  Elec       q    Type
REMARK                         _______ _______ _______ _____ _____    ______ ____
ROOT
ATOM      1  N   UNL     1       0.050   8.712  20.829  0.00  0.00    +0.000 NA
ATOM      2  C   UNL     1      -0.480   9.230  22.106  0.00  0.00    +0.000 C 
ATOM      3  C   UNL     1       0.115  10.581  22.588  0.00  0.00    +0.000 C 
ATOM      4  N   UNL     1       0.219  11.670  21.590  0.00  0.00    +0.000 NA
ATOM      5  C   UNL     1       0.667  11.155  20.278  0.00  0.00    +0.000 C 
ATOM      6  C   UNL     1      -0.041   9.827  19.842  0.00  0.00    +0.000 C 
ENDROOT
BRANCH   4   7
ATOM      7  C   UNL     1      -0.835  12.689  21.658  0.00  0.00    +0.000 C 
ATOM      8  C   UNL     1      -2.219  12.334  21.109  0.00  0.00    +0.000 C 
ATOM      9  C   UNL     1      -3.210  13.153  21.925  0.00  0.00    +0.000 C 
ATOM     10  C   UNL     1      -2.579  13.314  23.297  0.00  0.00    +0.000 C 
ATOM     11  C   UNL     1      -1.074  13.164  23.110  0.00  0.00    +0.000 C 
ENDBRANCH   4   7
BRANCH   1  12
ATOM     12  C   UNL     1       1.444   8.217  20.927  0.00  0.00    +0.000 C 
BRANCH  12  18
ATOM     13  C   UNL     1       2.646   8.686  17.703  0.00  0.00    +0.000 C 
ATOM     14  C   UNL     1       2.370   7.520  18.561  0.00  0.00    +0.000 A 
ATOM     15  O   UNL     1       2.776   6.324  18.043  0.00  0.00    +0.000 OA
ATOM     16  C   UNL     1       2.588   5.408  19.044  0.00  0.00    +0.000 A 
ATOM     17  N   UNL     1       2.012   5.930  20.116  0.00  0.00    +0.000 NA
ATOM     18  C   UNL     1       1.874   7.283  19.830  0.00  0.00    +0.000 A 
BRANCH  16  19
ATOM     19  C   UNL     1       3.085   4.063  18.932  0.00  0.00    +0.000 A 
ATOM     20  C   UNL     1       3.894   3.422  19.855  0.00  0.00    +0.000 A 
ATOM     21  C   UNL     1       4.125   2.052  19.530  0.00  0.00    +0.000 A 
ATOM     22  C   UNL     1       3.499   1.701  18.359  0.00  0.00    +0.000 A 
ATOM     23  S   UNL     1       2.659   3.016  17.650  0.00  0.00    +0.000 S 
ENDBRANCH  16  19
ENDBRANCH  12  18
ENDBRANCH   1  12
BRANCH   5  24
ATOM     24  C   UNL     1       0.737  12.159  19.107  0.00  0.00    +0.000 C 
BRANCH  24  25
ATOM     25  C   UNL     1       2.167  12.620  18.825  0.00  0.00    +0.000 C 
BRANCH  25  26
ATOM     26  O   UNL     1       2.502  12.349  17.467  0.00  0.00    +0.000 OA
ATOM     27  H   UNL     1       1.760  11.859  17.072  0.00  0.00    +0.000 HD
ENDBRANCH  25  26
ENDBRANCH  24  25
ENDBRANCH   5  24
TORSDOF 7
ENDMDL
