MODEL 1
REMARK VINA RESULT:      -7.2      0.000      0.000
REMARK  Name = 
REMARK  7 active torsions:
REMARK  status: ('A' for Active; 'I' for Inactive)
REMARK    1  A    between atoms: C_1  and  C_2
REMARK    2  A    between atoms: C_2  and  N_3
REMARK    3  A    between atoms: C_2  and  C_13
REMARK    4  A    between atoms: N_6  and  C_7
REMARK    5  A    between atoms: C_13  and  C_14
REMARK    6  A    between atoms: C_13  and  N_19
REMARK    7  A    between atoms: N_22  and  C_23
REMARK                            x       y       z     vdW  Elec       q    Type
REMARK                         _______ _______ _______ _____ _____    ______ ____
ROOT
ATOM      1  C   UNL     1      -0.065  11.712  20.686  0.00  0.00    +0.000 C 
ENDROOT
BRANCH   1   2
ATOM      2  N   UNL     1       1.016  12.704  20.976  0.00  0.00    +0.000 NA
ATOM      3  C   UNL     1       1.925  12.915  19.806  0.00  0.00    +0.000 C 
ATOM      4  C   UNL     1       1.372  13.806  18.659  0.00  0.00    +0.000 C 
ATOM      5  N   UNL     1       0.991  15.102  19.230  0.00  0.00    +0.000 N 
ATOM      6  C   UNL     1       0.000  14.994  20.309  0.00  0.00    +0.000 C 
ATOM      7  C   UNL     1       0.542  14.050  21.405  0.00  0.00    +0.000 C 
BRANCH   5   8
ATOM      8  C   UNL     1       0.957  16.247  18.451  0.00  0.00    +0.000 A 
ATOM      9  C   UNL     1      -0.209  16.978  18.200  0.00  0.00    +0.000 A 
ATOM     10  C   UNL     1      -0.194  18.102  17.365  0.00  0.00    +0.000 A 
ATOM     11  C   UNL     1       0.990  18.508  16.754  0.00  0.00    +0.000 A 
ATOM     12  C   UNL     1       2.161  17.797  16.987  0.00  0.00    +0.000 A 
ATOM     13  C   UNL     1       2.139  16.684  17.830  0.00  0.00    +0.000 A 
ENDBRANCH   5   8
ENDBRANCH   1   2
BRANCH   1  14
ATOM     14  C   UNL     1      -1.267  11.880  21.629  0.00  0.00    +0.000 A 
ATOM     15  C   UNL     1      -1.356  11.621  22.988  0.00  0.00    +0.000 A 
ATOM     16  C   UNL     1      -2.613  11.993  23.543  0.00  0.00    +0.000 A 
ATOM     17  C   UNL     1      -3.476  12.465  22.581  0.00  0.00    +0.000 A 
ATOM     18  S   UNL     1      -2.763  12.481  21.027  0.00  0.00    +0.000 S 
ENDBRANCH   1  14
BRANCH   1  20
ATOM     19  C   UNL     1      -0.455   9.272  21.576  0.00  0.00    +0.000 C 
ATOM     20  C   UNL     1       0.462  10.216  20.797  0.00  0.00    +0.000 C 
BRANCH  20  21
ATOM     21  N   UNL     1       0.832   9.636  19.501  0.00  0.00    +0.000 N 
ATOM     22  C   UNL     1       1.674   8.545  19.468  0.00  0.00    +0.000 C 
ATOM     23  O   UNL     1       2.071   8.002  20.497  0.00  0.00    +0.000 OA
ATOM     24  N   UNL     1       1.990   8.151  18.190  0.00  0.00    +0.000 N 
ATOM     25  H   UNL     1       0.702  10.189  18.672  0.00  0.00    +0.000 HD
ATOM     26  H   UNL     1       2.069   8.898  17.514  0.00  0.00    +0.000 HD
BRANCH  24  27
ATOM     27  C   UNL     1       2.746   6.982  17.941  0.00  0.00    +0.000 A 
ATOM     28  C   UNL     1       4.079   7.049  17.525  0.00  0.00    +0.000 A 
ATOM     29  C   UNL     1       4.796   5.882  17.267  0.00  0.00    +0.000 A 
ATOM     30  C   UNL     1       4.176   4.642  17.401  0.00  0.00    +0.000 A 
ATOM     31  C   UNL     1       2.848   4.570  17.823  0.00  0.00    +0.000 A 
ATOM     32  C   UNL     1       2.142   5.738  18.120  0.00  0.00    +0.000 A 
ENDBRANCH  24  27
ENDBRANCH  20  21
ENDBRANCH   1  20
TORSDOF 6
ENDMDL
MODEL 2
REMARK VINA RESULT:      -7.2      3.888     10.249
REMARK  Name = 
REMARK  7 active torsions:
REMARK  status: ('A' for Active; 'I' for Inactive)
REMARK    1  A    between atoms: C_1  and  C_2
REMARK    2  A    between atoms: C_2  and  N_3
REMARK    3  A    between atoms: C_2  and  C_13
REMARK    4  A    between atoms: N_6  and  C_7
REMARK    5  A    between atoms: C_13  and  C_14
REMARK    6  A    between atoms: C_13  and  N_19
REMARK    7  A    between atoms: N_22  and  C_23
REMARK                            x       y       z     vdW  Elec       q    Type
REMARK                         _______ _______ _______ _____ _____    ______ ____
ROOT
ATOM      1  C   UNL     1       4.007   5.435  19.048  0.00  0.00    +0.000 C 
ENDROOT
BRANCH   1   2
ATOM      2  N   UNL     1       5.362   5.896  18.615  0.00  0.00    +0.000 NA
ATOM      3  C   UNL     1       6.273   4.756  18.284  0.00  0.00    +0.000 C 
ATOM      4  C   UNL     1       6.037   4.065  16.913  0.00  0.00    +0.000 C 
ATOM      5  N   UNL     1       6.122   5.087  15.864  0.00  0.00    +0.000 N 
ATOM      6  C   UNL     1       5.168   6.189  16.047  0.00  0.00    +0.000 C 
ATOM      7  C   UNL     1       5.375   6.816  17.443  0.00  0.00    +0.000 C 
BRANCH   5   8
ATOM      8  C   UNL     1       6.465   4.755  14.564  0.00  0.00    +0.000 A 
ATOM      9  C   UNL     1       7.518   5.353  13.864  0.00  0.00    +0.000 A 
ATOM     10  C   UNL     1       7.789   5.013  12.533  0.00  0.00    +0.000 A 
ATOM     11  C   UNL     1       7.000   4.075  11.873  0.00  0.00    +0.000 A 
ATOM     12  C   UNL     1       5.947   3.468  12.546  0.00  0.00    +0.000 A 
ATOM     13  C   UNL     1       5.691   3.804  13.877  0.00  0.00    +0.000 A 
ENDBRANCH   5   8
ENDBRANCH   1   2
BRANCH   1  14
ATOM     14  C   UNL     1       3.787   3.941  18.757  0.00  0.00    +0.000 A 
ATOM     15  C   UNL     1       3.355   3.332  17.589  0.00  0.00    +0.000 A 
ATOM     16  C   UNL     1       3.366   1.912  17.668  0.00  0.00    +0.000 A 
ATOM     17  C   UNL     1       3.744   1.472  18.915  0.00  0.00    +0.000 A 
ATOM     18  S   UNL     1       4.105   2.766  19.973  0.00  0.00    +0.000 S 
ENDBRANCH   1  14
BRANCH   1  20
ATOM     19  C   UNL     1       1.708   5.417  17.779  0.00  0.00    +0.000 C 
ATOM     20  C   UNL     1       2.848   6.265  18.344  0.00  0.00    +0.000 C 
BRANCH  20  21
ATOM     21  N   UNL     1       2.329   7.354  19.179  0.00  0.00    +0.000 N 
ATOM     22  C   UNL     1       1.885   8.511  18.575  0.00  0.00    +0.000 C 
ATOM     23  O   UNL     1       1.850   8.631  17.351  0.00  0.00    +0.000 OA
ATOM     24  N   UNL     1       1.491   9.469  19.478  0.00  0.00    +0.000 N 
ATOM     25  H   UNL     1       2.554   7.359  20.158  0.00  0.00    +0.000 HD
ATOM     26  H   UNL     1       2.017   9.493  20.340  0.00  0.00    +0.000 HD
BRANCH  24  27
ATOM     27  C   UNL     1       0.897  10.682  19.060  0.00  0.00    +0.000 A 
ATOM     28  C   UNL     1       1.654  11.844  18.878  0.00  0.00    +0.000 A 
ATOM     29  C   UNL     1       1.039  13.031  18.484  0.00  0.00    +0.000 A 
ATOM     30  C   UNL     1      -0.339  13.069  18.291  0.00  0.00    +0.000 A 
ATOM     31  C   UNL     1      -1.098  11.911  18.463  0.00  0.00    +0.000 A 
ATOM     32  C   UNL     1      -0.477  10.711  18.820  0.00  0.00    +0.000 A 
ENDBRANCH  24  27
ENDBRANCH  20  21
ENDBRANCH   1  20
TORSDOF 6
ENDMDL
MODEL 3
REMARK VINA RESULT:      -7.1      3.884     10.269
REMARK  Name = 
REMARK  7 active torsions:
REMARK  status: ('A' for Active; 'I' for Inactive)
REMARK    1  A    between atoms: C_1  and  C_2
REMARK    2  A    between atoms: C_2  and  N_3
REMARK    3  A    between atoms: C_2  and  C_13
REMARK    4  A    between atoms: N_6  and  C_7
REMARK    5  A    between atoms: C_13  and  C_14
REMARK    6  A    between atoms: C_13  and  N_19
REMARK    7  A    between atoms: N_22  and  C_23
REMARK                            x       y       z     vdW  Elec       q    Type
REMARK                         _______ _______ _______ _____ _____    ______ ____
ROOT
ATOM      1  C   UNL     1       4.040   5.456  19.028  0.00  0.00    +0.000 C 
ENDROOT
BRANCH   1   2
ATOM      2  N   UNL     1       5.380   5.916  18.550  0.00  0.00    +0.000 NA
ATOM      3  C   UNL     1       6.282   4.775  18.199  0.00  0.00    +0.000 C 
ATOM      4  C   UNL     1       6.005   4.073  16.841  0.00  0.00    +0.000 C 
ATOM      5  N   UNL     1       6.055   5.088  15.783  0.00  0.00    +0.000 N 
ATOM      6  C   UNL     1       5.104   6.189  15.987  0.00  0.00    +0.000 C 
ATOM      7  C   UNL     1       5.353   6.827  17.371  0.00  0.00    +0.000 C 
BRANCH   5   8
ATOM      8  C   UNL     1       6.357   4.747  14.475  0.00  0.00    +0.000 A 
ATOM      9  C   UNL     1       5.671   3.765  13.752  0.00  0.00    +0.000 A 
ATOM     10  C   UNL     1       6.051   3.427  12.447  0.00  0.00    +0.000 A 
ATOM     11  C   UNL     1       7.138   4.058  11.847  0.00  0.00    +0.000 A 
ATOM     12  C   UNL     1       7.836   5.035  12.545  0.00  0.00    +0.000 A 
ATOM     13  C   UNL     1       7.443   5.374  13.841  0.00  0.00    +0.000 A 
ENDBRANCH   5   8
ENDBRANCH   1   2
BRANCH   1  14
ATOM     14  C   UNL     1       3.823   3.955  18.775  0.00  0.00    +0.000 A 
ATOM     15  C   UNL     1       3.318   3.321  17.649  0.00  0.00    +0.000 A 
ATOM     16  C   UNL     1       3.357   1.903  17.747  0.00  0.00    +0.000 A 
ATOM     17  C   UNL     1       3.828   1.487  18.970  0.00  0.00    +0.000 A 
ATOM     18  S   UNL     1       4.244   2.802  19.981  0.00  0.00    +0.000 S 
ENDBRANCH   1  14
BRANCH   1  20
ATOM     19  C   UNL     1       1.744   5.392  17.755  0.00  0.00    +0.000 C 
ATOM     20  C   UNL     1       2.856   6.263  18.338  0.00  0.00    +0.000 C 
BRANCH  20  21
ATOM     21  N   UNL     1       2.303   7.319  19.193  0.00  0.00    +0.000 N 
ATOM     22  C   UNL     1       1.878   8.497  18.617  0.00  0.00    +0.000 C 
ATOM     23  O   UNL     1       1.888   8.663  17.398  0.00  0.00    +0.000 OA
ATOM     24  N   UNL     1       1.448   9.420  19.539  0.00  0.00    +0.000 N 
ATOM     25  H   UNL     1       2.492   7.289  20.179  0.00  0.00    +0.000 HD
ATOM     26  H   UNL     1       1.942   9.413  20.420  0.00  0.00    +0.000 HD
BRANCH  24  27
ATOM     27  C   UNL     1       0.865  10.647  19.144  0.00  0.00    +0.000 A 
ATOM     28  C   UNL     1      -0.508  10.762  18.911  0.00  0.00    +0.000 A 
ATOM     29  C   UNL     1      -1.054  11.979  18.504  0.00  0.00    +0.000 A 
ATOM     30  C   UNL     1      -0.226  13.080  18.306  0.00  0.00    +0.000 A 
ATOM     31  C   UNL     1       1.145  12.972  18.544  0.00  0.00    +0.000 A 
ATOM     32  C   UNL     1       1.686  11.764  18.991  0.00  0.00    +0.000 A 
ENDBRANCH  24  27
ENDBRANCH  20  21
ENDBRANCH   1  20
TORSDOF 6
ENDMDL
MODEL 4
REMARK VINA RESULT:      -7.1      4.430     10.334
REMARK  Name = 
REMARK  7 active torsions:
REMARK  status: ('A' for Active; 'I' for Inactive)
REMARK    1  A    between atoms: C_1  and  C_2
REMARK    2  A    between atoms: C_2  and  N_3
REMARK    3  A    between atoms: C_2  and  C_13
REMARK    4  A    between atoms: N_6  and  C_7
REMARK    5  A    between atoms: C_13  and  C_14
REMARK    6  A    between atoms: C_13  and  N_19
REMARK    7  A    between atoms: N_22  and  C_23
REMARK                            x       y       z     vdW  Elec       q    Type
REMARK                         _______ _______ _______ _____ _____    ______ ____
ROOT
ATOM      1  C   UNL     1       4.268   5.289  19.342  0.00  0.00    +0.000 C 
ENDROOT
BRANCH   1   2
ATOM      2  N   UNL     1       5.518   5.853  18.745  0.00  0.00    +0.000 NA
ATOM      3  C   UNL     1       6.487   4.788  18.340  0.00  0.00    +0.000 C 
ATOM      4  C   UNL     1       6.164   4.030  17.023  0.00  0.00    +0.000 C 
ATOM      5  N   UNL     1       6.036   5.018  15.946  0.00  0.00    +0.000 N 
ATOM      6  C   UNL     1       5.010   6.036  16.209  0.00  0.00    +0.000 C 
ATOM      7  C   UNL     1       5.313   6.728  17.556  0.00  0.00    +0.000 C 
BRANCH   5   8
ATOM      8  C   UNL     1       6.260   4.671  14.624  0.00  0.00    +0.000 A 
ATOM      9  C   UNL     1       5.470   3.758  13.918  0.00  0.00    +0.000 A 
ATOM     10  C   UNL     1       5.772   3.408  12.596  0.00  0.00    +0.000 A 
ATOM     11  C   UNL     1       6.882   3.959  11.960  0.00  0.00    +0.000 A 
ATOM     12  C   UNL     1       7.683   4.867  12.641  0.00  0.00    +0.000 A 
ATOM     13  C   UNL     1       7.368   5.219  13.954  0.00  0.00    +0.000 A 
ENDBRANCH   5   8
ENDBRANCH   1   2
BRANCH   1  14
ATOM     14  C   UNL     1       3.939   3.897  18.778  0.00  0.00    +0.000 A 
ATOM     15  C   UNL     1       3.344   3.560  17.571  0.00  0.00    +0.000 A 
ATOM     16  C   UNL     1       3.290   2.156  17.353  0.00  0.00    +0.000 A 
ATOM     17  C   UNL     1       3.784   1.452  18.427  0.00  0.00    +0.000 A 
ATOM     18  S   UNL     1       4.330   2.483  19.676  0.00  0.00    +0.000 S 
ENDBRANCH   1  14
BRANCH   1  20
ATOM     19  C   UNL     1       1.961   5.683  18.150  0.00  0.00    +0.000 C 
ATOM     20  C   UNL     1       3.017   6.242  19.104  0.00  0.00    +0.000 C 
BRANCH  20  21
ATOM     21  N   UNL     1       2.403   6.710  20.352  0.00  0.00    +0.000 N 
ATOM     22  C   UNL     1       1.811   7.954  20.384  0.00  0.00    +0.000 C 
ATOM     23  O   UNL     1       1.723   8.657  19.377  0.00  0.00    +0.000 OA
ATOM     24  N   UNL     1       1.338   8.291  21.629  0.00  0.00    +0.000 N 
ATOM     25  H   UNL     1       2.657   6.259  21.212  0.00  0.00    +0.000 HD
ATOM     26  H   UNL     1       1.885   7.948  22.406  0.00  0.00    +0.000 HD
BRANCH  24  27
ATOM     27  C   UNL     1       0.595   9.475  21.846  0.00  0.00    +0.000 A 
ATOM     28  C   UNL     1       0.775  10.608  21.047  0.00  0.00    +0.000 A 
ATOM     29  C   UNL     1       0.043  11.768  21.293  0.00  0.00    +0.000 A 
ATOM     30  C   UNL     1      -0.856  11.809  22.356  0.00  0.00    +0.000 A 
ATOM     31  C   UNL     1      -1.045  10.678  23.151  0.00  0.00    +0.000 A 
ATOM     32  C   UNL     1      -0.341   9.503  22.879  0.00  0.00    +0.000 A 
ENDBRANCH  24  27
ENDBRANCH  20  21
ENDBRANCH   1  20
TORSDOF 6
ENDMDL
MODEL 5
REMARK VINA RESULT:      -7.1      0.304      1.276
REMARK  Name = 
REMARK  7 active torsions:
REMARK  status: ('A' for Active; 'I' for Inactive)
REMARK    1  A    between atoms: C_1  and  C_2
REMARK    2  A    between atoms: C_2  and  N_3
REMARK    3  A    between atoms: C_2  and  C_13
REMARK    4  A    between atoms: N_6  and  C_7
REMARK    5  A    between atoms: C_13  and  C_14
REMARK    6  A    between atoms: C_13  and  N_19
REMARK    7  A    between atoms: N_22  and  C_23
REMARK                            x       y       z     vdW  Elec       q    Type
REMARK                         _______ _______ _______ _____ _____    ______ ____
ROOT
ATOM      1  C   UNL     1       0.090  11.557  20.525  0.00  0.00    +0.000 C 
ENDROOT
BRANCH   1   2
ATOM      2  N   UNL     1       1.187  12.548  20.752  0.00  0.00    +0.000 NA
ATOM      3  C   UNL     1       1.984  12.810  19.513  0.00  0.00    +0.000 C 
ATOM      4  C   UNL     1       1.323  13.738  18.456  0.00  0.00    +0.000 C 
ATOM      5  N   UNL     1       0.989  15.008  19.107  0.00  0.00    +0.000 N 
ATOM      6  C   UNL     1       0.102  14.852  20.268  0.00  0.00    +0.000 C 
ATOM      7  C   UNL     1       0.747  13.873  21.273  0.00  0.00    +0.000 C 
BRANCH   5   8
ATOM      8  C   UNL     1       0.877  16.181  18.379  0.00  0.00    +0.000 A 
ATOM      9  C   UNL     1       1.967  16.839  17.798  0.00  0.00    +0.000 A 
ATOM     10  C   UNL     1       1.802  18.049  17.113  0.00  0.00    +0.000 A 
ATOM     11  C   UNL     1       0.540  18.631  17.009  0.00  0.00    +0.000 A 
ATOM     12  C   UNL     1      -0.557  17.997  17.578  0.00  0.00    +0.000 A 
ATOM     13  C   UNL     1      -0.385  16.785  18.249  0.00  0.00    +0.000 A 
ENDBRANCH   5   8
ENDBRANCH   1   2
BRANCH   1  14
ATOM     14  C   UNL     1      -1.075  11.754  21.509  0.00  0.00    +0.000 A 
ATOM     15  C   UNL     1      -1.111  11.533  22.878  0.00  0.00    +0.000 A 
ATOM     16  C   UNL     1      -2.345  11.923  23.470  0.00  0.00    +0.000 A 
ATOM     17  C   UNL     1      -3.244  12.370  22.530  0.00  0.00    +0.000 A 
ATOM     18  S   UNL     1      -2.592  12.341  20.949  0.00  0.00    +0.000 S 
ENDBRANCH   1  14
BRANCH   1  20
ATOM     19  C   UNL     1      -0.365   9.098  21.327  0.00  0.00    +0.000 C 
ATOM     20  C   UNL     1       0.611  10.060  20.649  0.00  0.00    +0.000 C 
BRANCH  20  21
ATOM     21  N   UNL     1       1.093   9.510  19.376  0.00  0.00    +0.000 N 
ATOM     22  C   UNL     1       1.830   8.345  19.384  0.00  0.00    +0.000 C 
ATOM     23  O   UNL     1       2.039   7.717  20.421  0.00  0.00    +0.000 OA
ATOM     24  N   UNL     1       2.272   7.983  18.135  0.00  0.00    +0.000 N 
ATOM     25  H   UNL     1       1.122  10.111  18.573  0.00  0.00    +0.000 HD
ATOM     26  H   UNL     1       2.505   8.749  17.520  0.00  0.00    +0.000 HD
BRANCH  24  27
ATOM     27  C   UNL     1       2.946   6.759  17.913  0.00  0.00    +0.000 A 
ATOM     28  C   UNL     1       2.307   5.529  18.092  0.00  0.00    +0.000 A 
ATOM     29  C   UNL     1       2.999   4.338  17.884  0.00  0.00    +0.000 A 
ATOM     30  C   UNL     1       4.343   4.370  17.519  0.00  0.00    +0.000 A 
ATOM     31  C   UNL     1       4.983   5.595  17.330  0.00  0.00    +0.000 A 
ATOM     32  C   UNL     1       4.278   6.789  17.500  0.00  0.00    +0.000 A 
ENDBRANCH  24  27
ENDBRANCH  20  21
ENDBRANCH   1  20
TORSDOF 6
ENDMDL
MODEL 6
REMARK VINA RESULT:      -6.9      3.541      9.431
REMARK  Name = 
REMARK  7 active torsions:
REMARK  status: ('A' for Active; 'I' for Inactive)
REMARK    1  A    between atoms: C_1  and  C_2
REMARK    2  A    between atoms: C_2  and  N_3
REMARK    3  A    between atoms: C_2  and  C_13
REMARK    4  A    between atoms: N_6  and  C_7
REMARK    5  A    between atoms: C_13  and  C_14
REMARK    6  A    between atoms: C_13  and  N_19
REMARK    7  A    between atoms: N_22  and  C_23
REMARK                            x       y       z     vdW  Elec       q    Type
REMARK                         _______ _______ _______ _____ _____    ______ ____
ROOT
ATOM      1  C   UNL     1      -0.720  10.714  20.573  0.00  0.00    +0.000 C 
ENDROOT
BRANCH   1   2
ATOM      2  N   UNL     1       0.773  10.673  20.502  0.00  0.00    +0.000 NA
ATOM      3  C   UNL     1       1.363   9.684  21.457  0.00  0.00    +0.000 C 
ATOM      4  C   UNL     1       1.272   8.190  21.041  0.00  0.00    +0.000 C 
ATOM      5  N   UNL     1       1.901   8.042  19.725  0.00  0.00    +0.000 N 
ATOM      6  C   UNL     1       1.296   8.893  18.691  0.00  0.00    +0.000 C 
ATOM      7  C   UNL     1       1.335  10.365  19.156  0.00  0.00    +0.000 C 
BRANCH   5   8
ATOM      8  C   UNL     1       2.434   6.831  19.315  0.00  0.00    +0.000 A 
ATOM      9  C   UNL     1       3.149   6.662  18.125  0.00  0.00    +0.000 A 
ATOM     10  C   UNL     1       3.624   5.403  17.736  0.00  0.00    +0.000 A 
ATOM     11  C   UNL     1       3.379   4.285  18.530  0.00  0.00    +0.000 A 
ATOM     12  C   UNL     1       2.670   4.427  19.716  0.00  0.00    +0.000 A 
ATOM     13  C   UNL     1       2.210   5.688  20.101  0.00  0.00    +0.000 A 
ENDBRANCH   5   8
ENDBRANCH   1   2
BRANCH   1  14
ATOM     14  C   UNL     1      -1.357  10.879  19.183  0.00  0.00    +0.000 A 
ATOM     15  C   UNL     1      -2.167   9.999  18.482  0.00  0.00    +0.000 A 
ATOM     16  C   UNL     1      -2.649  10.543  17.259  0.00  0.00    +0.000 A 
ATOM     17  C   UNL     1      -2.142  11.800  17.024  0.00  0.00    +0.000 A 
ATOM     18  S   UNL     1      -1.112  12.325  18.284  0.00  0.00    +0.000 S 
ENDBRANCH   1  14
BRANCH   1  20
ATOM     19  C   UNL     1      -0.244  13.040  21.696  0.00  0.00    +0.000 C 
ATOM     20  C   UNL     1      -1.235  11.891  21.510  0.00  0.00    +0.000 C 
BRANCH  20  21
ATOM     21  N   UNL     1      -2.559  12.395  21.128  0.00  0.00    +0.000 N 
ATOM     22  C   UNL     1      -3.511  12.592  22.105  0.00  0.00    +0.000 C 
ATOM     23  O   UNL     1      -3.261  12.421  23.298  0.00  0.00    +0.000 OA
ATOM     24  N   UNL     1      -4.721  13.000  21.600  0.00  0.00    +0.000 N 
ATOM     25  H   UNL     1      -2.841  12.326  20.167  0.00  0.00    +0.000 HD
ATOM     26  H   UNL     1      -4.964  12.616  20.697  0.00  0.00    +0.000 HD
BRANCH  24  27
ATOM     27  C   UNL     1      -5.793  13.368  22.446  0.00  0.00    +0.000 A 
ATOM     28  C   UNL     1      -6.856  12.496  22.700  0.00  0.00    +0.000 A 
ATOM     29  C   UNL     1      -7.910  12.890  23.523  0.00  0.00    +0.000 A 
ATOM     30  C   UNL     1      -7.917  14.167  24.078  0.00  0.00    +0.000 A 
ATOM     31  C   UNL     1      -6.854  15.038  23.835  0.00  0.00    +0.000 A 
ATOM     32  C   UNL     1      -5.779  14.628  23.042  0.00  0.00    +0.000 A 
ENDBRANCH  24  27
ENDBRANCH  20  21
ENDBRANCH   1  20
TORSDOF 6
ENDMDL
MODEL 7
REMARK VINA RESULT:      -6.9      3.515      9.344
REMARK  Name = 
REMARK  7 active torsions:
REMARK  status: ('A' for Active; 'I' for Inactive)
REMARK    1  A    between atoms: C_1  and  C_2
REMARK    2  A    between atoms: C_2  and  N_3
REMARK    3  A    between atoms: C_2  and  C_13
REMARK    4  A    between atoms: N_6  and  C_7
REMARK    5  A    between atoms: C_13  and  C_14
REMARK    6  A    between atoms: C_13  and  N_19
REMARK    7  A    between atoms: N_22  and  C_23
REMARK                            x       y       z     vdW  Elec       q    Type
REMARK                         _______ _______ _______ _____ _____    ______ ____
ROOT
ATOM      1  C   UNL     1      -0.714  10.765  20.603  0.00  0.00    +0.000 C 
ENDROOT
BRANCH   1   2
ATOM      2  N   UNL     1       0.778  10.719  20.531  0.00  0.00    +0.000 NA
ATOM      3  C   UNL     1       1.364   9.717  21.476  0.00  0.00    +0.000 C 
ATOM      4  C   UNL     1       1.267   8.228  21.043  0.00  0.00    +0.000 C 
ATOM      5  N   UNL     1       1.896   8.093  19.725  0.00  0.00    +0.000 N 
ATOM      6  C   UNL     1       1.294   8.957  18.701  0.00  0.00    +0.000 C 
ATOM      7  C   UNL     1       1.339  10.424  19.183  0.00  0.00    +0.000 C 
BRANCH   5   8
ATOM      8  C   UNL     1       2.424   6.884  19.302  0.00  0.00    +0.000 A 
ATOM      9  C   UNL     1       2.326   5.696  20.035  0.00  0.00    +0.000 A 
ATOM     10  C   UNL     1       2.921   4.513  19.582  0.00  0.00    +0.000 A 
ATOM     11  C   UNL     1       3.640   4.500  18.389  0.00  0.00    +0.000 A 
ATOM     12  C   UNL     1       3.753   5.667  17.644  0.00  0.00    +0.000 A 
ATOM     13  C   UNL     1       3.146   6.840  18.097  0.00  0.00    +0.000 A 
ENDBRANCH   5   8
ENDBRANCH   1   2
BRANCH   1  14
ATOM     14  C   UNL     1      -1.353  10.896  19.211  0.00  0.00    +0.000 A 
ATOM     15  C   UNL     1      -2.159   9.997  18.529  0.00  0.00    +0.000 A 
ATOM     16  C   UNL     1      -2.643  10.511  17.294  0.00  0.00    +0.000 A 
ATOM     17  C   UNL     1      -2.142  11.765  17.031  0.00  0.00    +0.000 A 
ATOM     18  S   UNL     1      -1.116  12.324  18.280  0.00  0.00    +0.000 S 
ENDBRANCH   1  14
BRANCH   1  20
ATOM     19  C   UNL     1      -0.236  13.121  21.659  0.00  0.00    +0.000 C 
ATOM     20  C   UNL     1      -1.226  11.966  21.511  0.00  0.00    +0.000 C 
BRANCH  20  21
ATOM     21  N   UNL     1      -2.553  12.458  21.122  0.00  0.00    +0.000 N 
ATOM     22  C   UNL     1      -3.509  12.654  22.096  0.00  0.00    +0.000 C 
ATOM     23  O   UNL     1      -3.260  12.491  23.290  0.00  0.00    +0.000 OA
ATOM     24  N   UNL     1      -4.721  13.049  21.586  0.00  0.00    +0.000 N 
ATOM     25  H   UNL     1      -2.832  12.382  20.161  0.00  0.00    +0.000 HD
ATOM     26  H   UNL     1      -4.959  12.659  20.685  0.00  0.00    +0.000 HD
BRANCH  24  27
ATOM     27  C   UNL     1      -5.797  13.414  22.427  0.00  0.00    +0.000 A 
ATOM     28  C   UNL     1      -5.888  14.692  22.987  0.00  0.00    +0.000 A 
ATOM     29  C   UNL     1      -6.950  15.019  23.828  0.00  0.00    +0.000 A 
ATOM     30  C   UNL     1      -7.914  14.061  24.134  0.00  0.00    +0.000 A 
ATOM     31  C   UNL     1      -7.833  12.787  23.572  0.00  0.00    +0.000 A 
ATOM     32  C   UNL     1      -6.790  12.472  22.697  0.00  0.00    +0.000 A 
ENDBRANCH  24  27
ENDBRANCH  20  21
ENDBRANCH   1  20
TORSDOF 6
ENDMDL
MODEL 8
REMARK VINA RESULT:      -6.9      2.964      4.644
REMARK  Name = 
REMARK  7 active torsions:
REMARK  status: ('A' for Active; 'I' for Inactive)
REMARK    1  A    between atoms: C_1  and  C_2
REMARK    2  A    between atoms: C_2  and  N_3
REMARK    3  A    between atoms: C_2  and  C_13
REMARK    4  A    between atoms: N_6  and  C_7
REMARK    5  A    between atoms: C_13  and  C_14
REMARK    6  A    between atoms: C_13  and  N_19
REMARK    7  A    between atoms: N_22  and  C_23
REMARK                            x       y       z     vdW  Elec       q    Type
REMARK                         _______ _______ _______ _____ _____    ______ ____
ROOT
ATOM      1  C   UNL     1      -0.495  11.602  19.241  0.00  0.00    +0.000 C 
ENDROOT
BRANCH   1   2
ATOM      2  N   UNL     1      -0.589  11.192  20.676  0.00  0.00    +0.000 NA
ATOM      3  C   UNL     1       0.421  11.887  21.534  0.00  0.00    +0.000 C 
ATOM      4  C   UNL     1       0.107  13.363  21.904  0.00  0.00    +0.000 C 
ATOM      5  N   UNL     1      -1.206  13.404  22.554  0.00  0.00    +0.000 N 
ATOM      6  C   UNL     1      -2.284  12.850  21.723  0.00  0.00    +0.000 C 
ATOM      7  C   UNL     1      -1.920  11.407  21.311  0.00  0.00    +0.000 C 
BRANCH   5   8
ATOM      8  C   UNL     1      -1.543  14.421  23.432  0.00  0.00    +0.000 A 
ATOM      9  C   UNL     1      -0.783  15.584  23.597  0.00  0.00    +0.000 A 
ATOM     10  C   UNL     1      -1.144  16.559  24.535  0.00  0.00    +0.000 A 
ATOM     11  C   UNL     1      -2.269  16.380  25.336  0.00  0.00    +0.000 A 
ATOM     12  C   UNL     1      -3.039  15.232  25.192  0.00  0.00    +0.000 A 
ATOM     13  C   UNL     1      -2.678  14.271  24.246  0.00  0.00    +0.000 A 
ENDBRANCH   5   8
ENDBRANCH   1   2
BRANCH   1  14
ATOM     14  C   UNL     1      -1.666  11.054  18.409  0.00  0.00    +0.000 A 
ATOM     15  C   UNL     1      -1.719   9.919  17.614  0.00  0.00    +0.000 A 
ATOM     16  C   UNL     1      -3.012   9.681  17.072  0.00  0.00    +0.000 A 
ATOM     17  C   UNL     1      -3.900  10.676  17.411  0.00  0.00    +0.000 A 
ATOM     18  S   UNL     1      -3.179  11.873  18.397  0.00  0.00    +0.000 S 
ENDBRANCH   1  14
BRANCH   1  20
ATOM     19  C   UNL     1       1.955  12.194  18.503  0.00  0.00    +0.000 C 
ATOM     20  C   UNL     1       0.867  11.122  18.577  0.00  0.00    +0.000 C 
BRANCH  20  21
ATOM     21  N   UNL     1       1.390   9.882  19.164  0.00  0.00    +0.000 N 
ATOM     22  C   UNL     1       1.834   8.878  18.330  0.00  0.00    +0.000 C 
ATOM     23  O   UNL     1       1.865   9.017  17.108  0.00  0.00    +0.000 OA
ATOM     24  N   UNL     1       2.231   7.753  19.011  0.00  0.00    +0.000 N 
ATOM     25  H   UNL     1       1.168   9.672  20.121  0.00  0.00    +0.000 HD
ATOM     26  H   UNL     1       1.707   7.548  19.850  0.00  0.00    +0.000 HD
BRANCH  24  27
ATOM     27  C   UNL     1       2.826   6.656  18.346  0.00  0.00    +0.000 A 
ATOM     28  C   UNL     1       2.171   5.425  18.236  0.00  0.00    +0.000 A 
ATOM     29  C   UNL     1       2.788   4.354  17.593  0.00  0.00    +0.000 A 
ATOM     30  C   UNL     1       4.073   4.501  17.076  0.00  0.00    +0.000 A 
ATOM     31  C   UNL     1       4.727   5.729  17.176  0.00  0.00    +0.000 A 
ATOM     32  C   UNL     1       4.093   6.814  17.786  0.00  0.00    +0.000 A 
ENDBRANCH  24  27
ENDBRANCH  20  21
ENDBRANCH   1  20
TORSDOF 6
ENDMDL
MODEL 9
REMARK VINA RESULT:      -6.9      3.023      4.589
REMARK  Name = 
REMARK  7 active torsions:
REMARK  status: ('A' for Active; 'I' for Inactive)
REMARK    1  A    between atoms: C_1  and  C_2
REMARK    2  A    between atoms: C_2  and  N_3
REMARK    3  A    between atoms: C_2  and  C_13
REMARK    4  A    between atoms: N_6  and  C_7
REMARK    5  A    between atoms: C_13  and  C_14
REMARK    6  A    between atoms: C_13  and  N_19
REMARK    7  A    between atoms: N_22  and  C_23
REMARK                            x       y       z     vdW  Elec       q    Type
REMARK                         _______ _______ _______ _____ _____    ______ ____
ROOT
ATOM      1  C   UNL     1      -0.114  11.506  19.290  0.00  0.00    +0.000 C 
ENDROOT
BRANCH   1   2
ATOM      2  N   UNL     1      -0.072  11.154  20.743  0.00  0.00    +0.000 NA
ATOM      3  C   UNL     1       0.734  12.129  21.543  0.00  0.00    +0.000 C 
ATOM      4  C   UNL     1       0.049  13.487  21.860  0.00  0.00    +0.000 C 
ATOM      5  N   UNL     1      -1.218  13.212  22.546  0.00  0.00    +0.000 N 
ATOM      6  C   UNL     1      -2.126  12.357  21.770  0.00  0.00    +0.000 C 
ATOM      7  C   UNL     1      -1.401  11.042  21.407  0.00  0.00    +0.000 C 
BRANCH   5   8
ATOM      8  C   UNL     1      -1.795  14.146  23.391  0.00  0.00    +0.000 A 
ATOM      9  C   UNL     1      -1.060  14.991  24.229  0.00  0.00    +0.000 A 
ATOM     10  C   UNL     1      -1.698  15.884  25.099  0.00  0.00    +0.000 A 
ATOM     11  C   UNL     1      -3.089  15.937  25.155  0.00  0.00    +0.000 A 
ATOM     12  C   UNL     1      -3.841  15.107  24.333  0.00  0.00    +0.000 A 
ATOM     13  C   UNL     1      -3.196  14.228  23.460  0.00  0.00    +0.000 A 
ENDBRANCH   5   8
ENDBRANCH   1   2
BRANCH   1  14
ATOM     14  C   UNL     1      -1.401  11.006  18.615  0.00  0.00    +0.000 A 
ATOM     15  C   UNL     1      -1.696   9.745  18.119  0.00  0.00    +0.000 A 
ATOM     16  C   UNL     1      -3.034   9.632  17.649  0.00  0.00    +0.000 A 
ATOM     17  C   UNL     1      -3.708  10.828  17.735  0.00  0.00    +0.000 A 
ATOM     18  S   UNL     1      -2.737  12.068  18.402  0.00  0.00    +0.000 S 
ENDBRANCH   1  14
BRANCH   1  20
ATOM     19  C   UNL     1       2.246  11.926  18.218  0.00  0.00    +0.000 C 
ATOM     20  C   UNL     1       1.135  10.916  18.503  0.00  0.00    +0.000 C 
BRANCH  20  21
ATOM     21  N   UNL     1       1.678   9.696  19.113  0.00  0.00    +0.000 N 
ATOM     22  C   UNL     1       2.021   8.635  18.303  0.00  0.00    +0.000 C 
ATOM     23  O   UNL     1       1.948   8.705  17.077  0.00  0.00    +0.000 OA
ATOM     24  N   UNL     1       2.450   7.538  19.010  0.00  0.00    +0.000 N 
ATOM     25  H   UNL     1       1.536   9.545  20.096  0.00  0.00    +0.000 HD
ATOM     26  H   UNL     1       1.998   7.395  19.902  0.00  0.00    +0.000 HD
BRANCH  24  27
ATOM     27  C   UNL     1       2.957   6.389  18.361  0.00  0.00    +0.000 A 
ATOM     28  C   UNL     1       4.252   6.358  17.835  0.00  0.00    +0.000 A 
ATOM     29  C   UNL     1       4.721   5.218  17.183  0.00  0.00    +0.000 A 
ATOM     30  C   UNL     1       3.888   4.112  17.033  0.00  0.00    +0.000 A 
ATOM     31  C   UNL     1       2.598   4.135  17.563  0.00  0.00    +0.000 A 
ATOM     32  C   UNL     1       2.142   5.262  18.251  0.00  0.00    +0.000 A 
ENDBRANCH  24  27
ENDBRANCH  20  21
ENDBRANCH   1  20
TORSDOF 6
ENDMDL
