MODEL 1
REMARK VINA RESULT:      -7.8      0.000      0.000
REMARK  Name = 
REMARK  15 active torsions:
REMARK  status: ('A' for Active; 'I' for Inactive)
REMARK    1  A    between atoms: C_1  and  C_2
REMARK    2  A    between atoms: C_2  and  C_3
REMARK    3  A    between atoms: C_3  and  C_4
REMARK    4  A    between atoms: C_4  and  C_5
REMARK    5  A    between atoms: C_5  and  O_6
REMARK    6  A    between atoms: O_6  and  C_7
REMARK    7  A    between atoms: C_10  and  C_11
REMARK    8  A    between atoms: C_12  and  C_13
REMARK    9  A    between atoms: C_15  and  C_16
REMARK   10  A    between atoms: C_17  and  C_18
REMARK   11  A    between atoms: C_21  and  O_22
REMARK   12  A    between atoms: C_23  and  O_24
REMARK   13  A    between atoms: O_24  and  C_25
REMARK   14  A    between atoms: C_30  and  O_31
REMARK   15  A    between atoms: O_31  and  C_32
REMARK                            x       y       z     vdW  Elec       q    Type
REMARK                         _______ _______ _______ _____ _____    ______ ____
ROOT
ATOM      1  C   UNL     1       0.531   9.599  18.105  0.00  0.00    +0.000 A 
ATOM      2  C   UNL     1       0.463  10.259  19.319  0.00  0.00    +0.000 A 
ATOM      3  C   UNL     1      -0.729  11.016  19.296  0.00  0.00    +0.000 A 
ATOM      4  N   UNL     1      -1.371  10.829  18.138  0.00  0.00    +0.000 NA
ATOM      5  O   UNL     1      -0.596   9.958  17.404  0.00  0.00    +0.000 OA
ENDROOT
BRANCH   1   7
ATOM      6  C   UNL     1       2.078   7.768  18.421  0.00  0.00    +0.000 C 
ATOM      7  C   UNL     1       1.545   8.720  17.635  0.00  0.00    +0.000 C 
BRANCH   6  11
ATOM      8  C   UNL     1       5.205   5.118  17.045  0.00  0.00    +0.000 A 
ATOM      9  C   UNL     1       3.952   4.616  17.466  0.00  0.00    +0.000 A 
ATOM     10  C   UNL     1       2.926   5.444  17.932  0.00  0.00    +0.000 A 
ATOM     11  C   UNL     1       3.113   6.823  17.980  0.00  0.00    +0.000 A 
ATOM     12  C   UNL     1       4.341   7.326  17.534  0.00  0.00    +0.000 A 
ATOM     13  C   UNL     1       5.396   6.505  17.066  0.00  0.00    +0.000 A 
BRANCH  13  14
ATOM     14  O   UNL     1       6.456   7.302  16.750  0.00  0.00    +0.000 OA
ATOM     15  C   UNL     1       7.578   7.463  17.586  0.00  0.00    +0.000 C 
ENDBRANCH  13  14
BRANCH   8  16
ATOM     16  O   UNL     1       6.023   4.098  16.644  0.00  0.00    +0.000 OA
BRANCH  16  17
ATOM     17  C   UNL     1       6.674   4.198  15.387  0.00  0.00    +0.000 C 
BRANCH  17  18
ATOM     18  C   UNL     1       5.688   4.110  14.226  0.00  0.00    +0.000 C 
BRANCH  18  19
ATOM     19  C   UNL     1       6.420   3.922  12.894  0.00  0.00    +0.000 C 
BRANCH  19  21
ATOM     20  C   UNL     1       4.396   3.276  11.562  0.00  0.00    +0.000 C 
ATOM     21  C   UNL     1       5.769   2.835  12.044  0.00  0.00    +0.000 C 
ENDBRANCH  19  21
ENDBRANCH  18  19
ENDBRANCH  17  18
ENDBRANCH  16  17
ENDBRANCH   8  16
ENDBRANCH   6  11
ENDBRANCH   1   7
BRANCH   3  22
ATOM     22  C   UNL     1      -1.234  11.864  20.332  0.00  0.00    +0.000 C 
ATOM     23  C   UNL     1      -1.099  11.671  21.656  0.00  0.00    +0.000 C 
BRANCH  23  24
ATOM     24  C   UNL     1      -1.681  12.555  22.678  0.00  0.00    +0.000 A 
ATOM     25  C   UNL     1      -3.032  12.412  23.018  0.00  0.00    +0.000 A 
ATOM     26  C   UNL     1      -3.620  13.267  23.953  0.00  0.00    +0.000 A 
ATOM     27  C   UNL     1      -2.859  14.274  24.543  0.00  0.00    +0.000 A 
ATOM     28  C   UNL     1      -1.511  14.451  24.206  0.00  0.00    +0.000 A 
ATOM     29  C   UNL     1      -0.934  13.589  23.267  0.00  0.00    +0.000 A 
BRANCH  27  30
ATOM     30  O   UNL     1      -3.431  15.111  25.463  0.00  0.00    +0.000 OA
ATOM     31  H   UNL     1      -3.727  15.921  25.019  0.00  0.00    +0.000 HD
ENDBRANCH  27  30
BRANCH  28  32
ATOM     32  O   UNL     1      -0.852  15.479  24.828  0.00  0.00    +0.000 OA
ATOM     33  C   UNL     1      -0.484  16.596  24.029  0.00  0.00    +0.000 C 
ENDBRANCH  28  32
ENDBRANCH  23  24
ENDBRANCH   3  22
TORSDOF 12
ENDMDL
MODEL 2
REMARK VINA RESULT:      -7.6      2.326      2.948
REMARK  Name = 
REMARK  15 active torsions:
REMARK  status: ('A' for Active; 'I' for Inactive)
REMARK    1  A    between atoms: C_1  and  C_2
REMARK    2  A    between atoms: C_2  and  C_3
REMARK    3  A    between atoms: C_3  and  C_4
REMARK    4  A    between atoms: C_4  and  C_5
REMARK    5  A    between atoms: C_5  and  O_6
REMARK    6  A    between atoms: O_6  and  C_7
REMARK    7  A    between atoms: C_10  and  C_11
REMARK    8  A    between atoms: C_12  and  C_13
REMARK    9  A    between atoms: C_15  and  C_16
REMARK   10  A    between atoms: C_17  and  C_18
REMARK   11  A    between atoms: C_21  and  O_22
REMARK   12  A    between atoms: C_23  and  O_24
REMARK   13  A    between atoms: O_24  and  C_25
REMARK   14  A    between atoms: C_30  and  O_31
REMARK   15  A    between atoms: O_31  and  C_32
REMARK                            x       y       z     vdW  Elec       q    Type
REMARK                         _______ _______ _______ _____ _____    ______ ____
ROOT
ATOM      1  C   UNL     1       1.159   8.374  21.338  0.00  0.00    +0.000 A 
ATOM      2  C   UNL     1      -0.074   8.983  21.194  0.00  0.00    +0.000 A 
ATOM      3  C   UNL     1      -0.215   9.863  22.290  0.00  0.00    +0.000 A 
ATOM      4  N   UNL     1       0.874   9.813  23.064  0.00  0.00    +0.000 NA
ATOM      5  O   UNL     1       1.720   8.895  22.480  0.00  0.00    +0.000 OA
ENDROOT
BRANCH   1   7
ATOM      6  C   UNL     1       2.316   7.722  19.317  0.00  0.00    +0.000 C 
ATOM      7  C   UNL     1       1.763   7.397  20.499  0.00  0.00    +0.000 C 
BRANCH   6  11
ATOM      8  C   UNL     1       4.157   4.755  16.768  0.00  0.00    +0.000 A 
ATOM      9  C   UNL     1       4.683   6.064  16.866  0.00  0.00    +0.000 A 
ATOM     10  C   UNL     1       4.102   7.052  17.668  0.00  0.00    +0.000 A 
ATOM     11  C   UNL     1       2.968   6.757  18.422  0.00  0.00    +0.000 A 
ATOM     12  C   UNL     1       2.465   5.453  18.351  0.00  0.00    +0.000 A 
ATOM     13  C   UNL     1       3.032   4.441  17.540  0.00  0.00    +0.000 A 
BRANCH  13  14
ATOM     14  O   UNL     1       2.281   3.311  17.671  0.00  0.00    +0.000 OA
ATOM     15  C   UNL     1       2.253   2.533  18.844  0.00  0.00    +0.000 C 
ENDBRANCH  13  14
BRANCH   8  16
ATOM     16  O   UNL     1       4.910   3.995  15.915  0.00  0.00    +0.000 OA
BRANCH  16  17
ATOM     17  C   UNL     1       5.244   4.527  14.642  0.00  0.00    +0.000 C 
BRANCH  17  18
ATOM     18  C   UNL     1       6.337   3.715  13.954  0.00  0.00    +0.000 C 
BRANCH  18  19
ATOM     19  C   UNL     1       6.211   3.799  12.430  0.00  0.00    +0.000 C 
BRANCH  19  21
ATOM     20  C   UNL     1       4.094   3.258  11.200  0.00  0.00    +0.000 C 
ATOM     21  C   UNL     1       5.328   2.684  11.877  0.00  0.00    +0.000 C 
ENDBRANCH  19  21
ENDBRANCH  18  19
ENDBRANCH  17  18
ENDBRANCH  16  17
ENDBRANCH   8  16
ENDBRANCH   6  11
ENDBRANCH   1   7
BRANCH   3  22
ATOM     22  C   UNL     1      -1.326  10.719  22.573  0.00  0.00    +0.000 C 
ATOM     23  C   UNL     1      -1.264  12.009  22.947  0.00  0.00    +0.000 C 
BRANCH  23  24
ATOM     24  C   UNL     1      -2.443  12.828  23.270  0.00  0.00    +0.000 A 
ATOM     25  C   UNL     1      -3.530  12.236  23.925  0.00  0.00    +0.000 A 
ATOM     26  C   UNL     1      -4.679  12.980  24.203  0.00  0.00    +0.000 A 
ATOM     27  C   UNL     1      -4.746  14.318  23.819  0.00  0.00    +0.000 A 
ATOM     28  C   UNL     1      -3.680  14.929  23.145  0.00  0.00    +0.000 A 
ATOM     29  C   UNL     1      -2.536  14.172  22.872  0.00  0.00    +0.000 A 
BRANCH  27  30
ATOM     30  O   UNL     1      -5.869  15.050  24.095  0.00  0.00    +0.000 OA
ATOM     31  H   UNL     1      -6.474  14.518  24.634  0.00  0.00    +0.000 HD
ENDBRANCH  27  30
BRANCH  28  32
ATOM     32  O   UNL     1      -3.849  16.242  22.795  0.00  0.00    +0.000 OA
ATOM     33  C   UNL     1      -2.814  16.853  22.035  0.00  0.00    +0.000 C 
ENDBRANCH  28  32
ENDBRANCH  23  24
ENDBRANCH   3  22
TORSDOF 12
ENDMDL
MODEL 3
REMARK VINA RESULT:      -7.4      2.849      4.431
REMARK  Name = 
REMARK  15 active torsions:
REMARK  status: ('A' for Active; 'I' for Inactive)
REMARK    1  A    between atoms: C_1  and  C_2
REMARK    2  A    between atoms: C_2  and  C_3
REMARK    3  A    between atoms: C_3  and  C_4
REMARK    4  A    between atoms: C_4  and  C_5
REMARK    5  A    between atoms: C_5  and  O_6
REMARK    6  A    between atoms: O_6  and  C_7
REMARK    7  A    between atoms: C_10  and  C_11
REMARK    8  A    between atoms: C_12  and  C_13
REMARK    9  A    between atoms: C_15  and  C_16
REMARK   10  A    between atoms: C_17  and  C_18
REMARK   11  A    between atoms: C_21  and  O_22
REMARK   12  A    between atoms: C_23  and  O_24
REMARK   13  A    between atoms: O_24  and  C_25
REMARK   14  A    between atoms: C_30  and  O_31
REMARK   15  A    between atoms: O_31  and  C_32
REMARK                            x       y       z     vdW  Elec       q    Type
REMARK                         _______ _______ _______ _____ _____    ______ ____
ROOT
ATOM      1  C   UNL     1       0.603   9.438  21.586  0.00  0.00    +0.000 A 
ATOM      2  C   UNL     1      -0.253  10.486  21.300  0.00  0.00    +0.000 A 
ATOM      3  C   UNL     1      -0.668  11.014  22.543  0.00  0.00    +0.000 A 
ATOM      4  N   UNL     1      -0.094  10.340  23.544  0.00  0.00    +0.000 NA
ATOM      5  O   UNL     1       0.688   9.369  22.957  0.00  0.00    +0.000 OA
ENDROOT
BRANCH   1   7
ATOM      6  C   UNL     1       1.399   7.258  20.909  0.00  0.00    +0.000 C 
ATOM      7  C   UNL     1       1.278   8.577  20.678  0.00  0.00    +0.000 C 
BRANCH   6  11
ATOM      8  C   UNL     1       3.428   4.414  18.360  0.00  0.00    +0.000 A 
ATOM      9  C   UNL     1       3.061   5.694  17.883  0.00  0.00    +0.000 A 
ATOM     10  C   UNL     1       2.389   6.630  18.676  0.00  0.00    +0.000 A 
ATOM     11  C   UNL     1       2.070   6.322  19.996  0.00  0.00    +0.000 A 
ATOM     12  C   UNL     1       2.460   5.068  20.481  0.00  0.00    +0.000 A 
ATOM     13  C   UNL     1       3.133   4.103  19.693  0.00  0.00    +0.000 A 
BRANCH  13  14
ATOM     14  O   UNL     1       3.328   2.987  20.451  0.00  0.00    +0.000 OA
ATOM     15  C   UNL     1       2.496   2.630  21.530  0.00  0.00    +0.000 C 
ENDBRANCH  13  14
BRANCH   8  16
ATOM     16  O   UNL     1       4.065   3.700  17.383  0.00  0.00    +0.000 OA
BRANCH  16  17
ATOM     17  C   UNL     1       4.910   4.389  16.476  0.00  0.00    +0.000 C 
BRANCH  17  18
ATOM     18  C   UNL     1       6.275   4.694  17.087  0.00  0.00    +0.000 C 
BRANCH  18  19
ATOM     19  C   UNL     1       6.322   6.117  17.651  0.00  0.00    +0.000 C 
BRANCH  19  21
ATOM     20  C   UNL     1       7.837   8.115  17.648  0.00  0.00    +0.000 C 
ATOM     21  C   UNL     1       7.757   6.607  17.821  0.00  0.00    +0.000 C 
ENDBRANCH  19  21
ENDBRANCH  18  19
ENDBRANCH  17  18
ENDBRANCH  16  17
ENDBRANCH   8  16
ENDBRANCH   6  11
ENDBRANCH   1   7
BRANCH   3  22
ATOM     22  C   UNL     1      -1.557  12.114  22.760  0.00  0.00    +0.000 C 
ATOM     23  C   UNL     1      -2.777  12.055  23.321  0.00  0.00    +0.000 C 
BRANCH  23  24
ATOM     24  C   UNL     1      -3.667  13.216  23.477  0.00  0.00    +0.000 A 
ATOM     25  C   UNL     1      -3.113  14.501  23.533  0.00  0.00    +0.000 A 
ATOM     26  C   UNL     1      -3.931  15.616  23.725  0.00  0.00    +0.000 A 
ATOM     27  C   UNL     1      -5.306  15.447  23.872  0.00  0.00    +0.000 A 
ATOM     28  C   UNL     1      -5.883  14.171  23.841  0.00  0.00    +0.000 A 
ATOM     29  C   UNL     1      -5.053  13.062  23.648  0.00  0.00    +0.000 A 
BRANCH  27  30
ATOM     30  O   UNL     1      -6.111  16.539  24.056  0.00  0.00    +0.000 OA
ATOM     31  H   UNL     1      -7.026  16.304  23.836  0.00  0.00    +0.000 HD
ENDBRANCH  27  30
BRANCH  28  32
ATOM     32  O   UNL     1      -7.241  14.108  24.011  0.00  0.00    +0.000 OA
ATOM     33  C   UNL     1      -7.915  12.980  23.468  0.00  0.00    +0.000 C 
ENDBRANCH  28  32
ENDBRANCH  23  24
ENDBRANCH   3  22
TORSDOF 12
ENDMDL
MODEL 4
REMARK VINA RESULT:      -7.4      2.059      2.989
REMARK  Name = 
REMARK  15 active torsions:
REMARK  status: ('A' for Active; 'I' for Inactive)
REMARK    1  A    between atoms: C_1  and  C_2
REMARK    2  A    between atoms: C_2  and  C_3
REMARK    3  A    between atoms: C_3  and  C_4
REMARK    4  A    between atoms: C_4  and  C_5
REMARK    5  A    between atoms: C_5  and  O_6
REMARK    6  A    between atoms: O_6  and  C_7
REMARK    7  A    between atoms: C_10  and  C_11
REMARK    8  A    between atoms: C_12  and  C_13
REMARK    9  A    between atoms: C_15  and  C_16
REMARK   10  A    between atoms: C_17  and  C_18
REMARK   11  A    between atoms: C_21  and  O_22
REMARK   12  A    between atoms: C_23  and  O_24
REMARK   13  A    between atoms: O_24  and  C_25
REMARK   14  A    between atoms: C_30  and  O_31
REMARK   15  A    between atoms: O_31  and  C_32
REMARK                            x       y       z     vdW  Elec       q    Type
REMARK                         _______ _______ _______ _____ _____    ______ ____
ROOT
ATOM      1  C   UNL     1       1.342  10.123  18.730  0.00  0.00    +0.000 A 
ATOM      2  C   UNL     1       0.324   9.882  19.635  0.00  0.00    +0.000 A 
ATOM      3  C   UNL     1      -0.166  11.147  20.030  0.00  0.00    +0.000 A 
ATOM      4  N   UNL     1       0.501  12.117  19.398  0.00  0.00    +0.000 NA
ATOM      5  O   UNL     1       1.431  11.489  18.599  0.00  0.00    +0.000 OA
ENDROOT
BRANCH   1   7
ATOM      6  C   UNL     1       2.366   7.941  18.537  0.00  0.00    +0.000 C 
ATOM      7  C   UNL     1       2.160   9.179  18.051  0.00  0.00    +0.000 C 
BRANCH   6  11
ATOM      8  C   UNL     1       4.721   4.825  16.681  0.00  0.00    +0.000 A 
ATOM      9  C   UNL     1       5.025   6.191  16.479  0.00  0.00    +0.000 A 
ATOM     10  C   UNL     1       4.273   7.224  17.051  0.00  0.00    +0.000 A 
ATOM     11  C   UNL     1       3.186   6.922  17.868  0.00  0.00    +0.000 A 
ATOM     12  C   UNL     1       2.903   5.570  18.095  0.00  0.00    +0.000 A 
ATOM     13  C   UNL     1       3.645   4.511  17.519  0.00  0.00    +0.000 A 
BRANCH  13  14
ATOM     14  O   UNL     1       3.084   3.330  17.908  0.00  0.00    +0.000 OA
ATOM     15  C   UNL     1       1.702   3.163  18.121  0.00  0.00    +0.000 C 
ENDBRANCH  13  14
BRANCH   8  16
ATOM     16  O   UNL     1       5.606   4.030  16.007  0.00  0.00    +0.000 OA
BRANCH  16  17
ATOM     17  C   UNL     1       6.813   4.604  15.531  0.00  0.00    +0.000 C 
BRANCH  17  18
ATOM     18  C   UNL     1       6.895   4.577  14.007  0.00  0.00    +0.000 C 
BRANCH  18  19
ATOM     19  C   UNL     1       5.980   3.495  13.425  0.00  0.00    +0.000 C 
BRANCH  19  21
ATOM     20  C   UNL     1       4.452   2.919  11.522  0.00  0.00    +0.000 C 
ATOM     21  C   UNL     1       5.097   4.048  12.310  0.00  0.00    +0.000 C 
ENDBRANCH  19  21
ENDBRANCH  18  19
ENDBRANCH  17  18
ENDBRANCH  16  17
ENDBRANCH   8  16
ENDBRANCH   6  11
ENDBRANCH   1   7
BRANCH   3  22
ATOM     22  C   UNL     1      -1.227  11.411  20.953  0.00  0.00    +0.000 C 
ATOM     23  C   UNL     1      -2.168  12.365  20.834  0.00  0.00    +0.000 C 
BRANCH  23  24
ATOM     24  C   UNL     1      -3.210  12.620  21.841  0.00  0.00    +0.000 A 
ATOM     25  C   UNL     1      -2.933  12.375  23.192  0.00  0.00    +0.000 A 
ATOM     26  C   UNL     1      -3.918  12.567  24.162  0.00  0.00    +0.000 A 
ATOM     27  C   UNL     1      -5.188  12.996  23.782  0.00  0.00    +0.000 A 
ATOM     28  C   UNL     1      -5.498  13.229  22.436  0.00  0.00    +0.000 A 
ATOM     29  C   UNL     1      -4.502  13.032  21.473  0.00  0.00    +0.000 A 
BRANCH  27  30
ATOM     30  O   UNL     1      -6.155  13.189  24.732  0.00  0.00    +0.000 OA
ATOM     31  H   UNL     1      -6.421  12.332  25.097  0.00  0.00    +0.000 HD
ENDBRANCH  27  30
BRANCH  28  32
ATOM     32  O   UNL     1      -6.778  13.633  22.162  0.00  0.00    +0.000 OA
ATOM     33  C   UNL     1      -7.002  15.027  21.999  0.00  0.00    +0.000 C 
ENDBRANCH  28  32
ENDBRANCH  23  24
ENDBRANCH   3  22
TORSDOF 12
ENDMDL
MODEL 5
REMARK VINA RESULT:      -7.3      2.524      3.819
REMARK  Name = 
REMARK  15 active torsions:
REMARK  status: ('A' for Active; 'I' for Inactive)
REMARK    1  A    between atoms: C_1  and  C_2
REMARK    2  A    between atoms: C_2  and  C_3
REMARK    3  A    between atoms: C_3  and  C_4
REMARK    4  A    between atoms: C_4  and  C_5
REMARK    5  A    between atoms: C_5  and  O_6
REMARK    6  A    between atoms: O_6  and  C_7
REMARK    7  A    between atoms: C_10  and  C_11
REMARK    8  A    between atoms: C_12  and  C_13
REMARK    9  A    between atoms: C_15  and  C_16
REMARK   10  A    between atoms: C_17  and  C_18
REMARK   11  A    between atoms: C_21  and  O_22
REMARK   12  A    between atoms: C_23  and  O_24
REMARK   13  A    between atoms: O_24  and  C_25
REMARK   14  A    between atoms: C_30  and  O_31
REMARK   15  A    between atoms: O_31  and  C_32
REMARK                            x       y       z     vdW  Elec       q    Type
REMARK                         _______ _______ _______ _____ _____    ______ ____
ROOT
ATOM      1  C   UNL     1       0.269   9.287  21.518  0.00  0.00    +0.000 A 
ATOM      2  C   UNL     1      -0.499  10.429  21.380  0.00  0.00    +0.000 A 
ATOM      3  C   UNL     1      -0.742  10.908  22.687  0.00  0.00    +0.000 A 
ATOM      4  N   UNL     1      -0.149  10.114  23.585  0.00  0.00    +0.000 NA
ATOM      5  O   UNL     1       0.472   9.116  22.867  0.00  0.00    +0.000 OA
ENDROOT
BRANCH   1   7
ATOM      6  C   UNL     1       1.827   7.630  20.700  0.00  0.00    +0.000 C 
ATOM      7  C   UNL     1       0.766   8.431  20.498  0.00  0.00    +0.000 C 
BRANCH   6  11
ATOM      8  C   UNL     1       3.446   4.815  17.845  0.00  0.00    +0.000 A 
ATOM      9  C   UNL     1       3.412   6.201  17.568  0.00  0.00    +0.000 A 
ATOM     10  C   UNL     1       2.880   7.136  18.463  0.00  0.00    +0.000 A 
ATOM     11  C   UNL     1       2.370   6.714  19.688  0.00  0.00    +0.000 A 
ATOM     12  C   UNL     1       2.432   5.346  19.978  0.00  0.00    +0.000 A 
ATOM     13  C   UNL     1       2.958   4.382  19.084  0.00  0.00    +0.000 A 
BRANCH  13  14
ATOM     14  O   UNL     1       2.831   3.150  19.653  0.00  0.00    +0.000 OA
ATOM     15  C   UNL     1       2.621   2.953  21.032  0.00  0.00    +0.000 C 
ENDBRANCH  13  14
BRANCH   8  16
ATOM     16  O   UNL     1       4.010   4.129  16.805  0.00  0.00    +0.000 OA
BRANCH  16  17
ATOM     17  C   UNL     1       5.075   4.732  16.088  0.00  0.00    +0.000 C 
BRANCH  17  18
ATOM     18  C   UNL     1       6.426   4.474  16.749  0.00  0.00    +0.000 C 
BRANCH  18  19
ATOM     19  C   UNL     1       7.272   5.751  16.793  0.00  0.00    +0.000 C 
BRANCH  19  21
ATOM     20  C   UNL     1       6.931   5.533  19.267  0.00  0.00    +0.000 C 
ATOM     21  C   UNL     1       7.086   6.503  18.108  0.00  0.00    +0.000 C 
ENDBRANCH  19  21
ENDBRANCH  18  19
ENDBRANCH  17  18
ENDBRANCH  16  17
ENDBRANCH   8  16
ENDBRANCH   6  11
ENDBRANCH   1   7
BRANCH   3  22
ATOM     22  C   UNL     1      -1.489  12.070  23.056  0.00  0.00    +0.000 C 
ATOM     23  C   UNL     1      -2.788  12.106  23.405  0.00  0.00    +0.000 C 
BRANCH  23  24
ATOM     24  C   UNL     1      -3.517  13.342  23.731  0.00  0.00    +0.000 A 
ATOM     25  C   UNL     1      -4.851  13.477  23.327  0.00  0.00    +0.000 A 
ATOM     26  C   UNL     1      -5.552  14.657  23.585  0.00  0.00    +0.000 A 
ATOM     27  C   UNL     1      -4.915  15.710  24.240  0.00  0.00    +0.000 A 
ATOM     28  C   UNL     1      -3.576  15.608  24.637  0.00  0.00    +0.000 A 
ATOM     29  C   UNL     1      -2.885  14.421  24.372  0.00  0.00    +0.000 A 
BRANCH  27  30
ATOM     30  O   UNL     1      -5.601  16.866  24.498  0.00  0.00    +0.000 OA
ATOM     31  H   UNL     1      -4.975  17.560  24.754  0.00  0.00    +0.000 HD
ENDBRANCH  27  30
BRANCH  28  32
ATOM     32  O   UNL     1      -3.035  16.702  25.259  0.00  0.00    +0.000 OA
ATOM     33  C   UNL     1      -1.769  16.538  25.884  0.00  0.00    +0.000 C 
ENDBRANCH  28  32
ENDBRANCH  23  24
ENDBRANCH   3  22
TORSDOF 12
ENDMDL
MODEL 6
REMARK VINA RESULT:      -7.2      1.251      2.523
REMARK  Name = 
REMARK  15 active torsions:
REMARK  status: ('A' for Active; 'I' for Inactive)
REMARK    1  A    between atoms: C_1  and  C_2
REMARK    2  A    between atoms: C_2  and  C_3
REMARK    3  A    between atoms: C_3  and  C_4
REMARK    4  A    between atoms: C_4  and  C_5
REMARK    5  A    between atoms: C_5  and  O_6
REMARK    6  A    between atoms: O_6  and  C_7
REMARK    7  A    between atoms: C_10  and  C_11
REMARK    8  A    between atoms: C_12  and  C_13
REMARK    9  A    between atoms: C_15  and  C_16
REMARK   10  A    between atoms: C_17  and  C_18
REMARK   11  A    between atoms: C_21  and  O_22
REMARK   12  A    between atoms: C_23  and  O_24
REMARK   13  A    between atoms: O_24  and  C_25
REMARK   14  A    between atoms: C_30  and  O_31
REMARK   15  A    between atoms: O_31  and  C_32
REMARK                            x       y       z     vdW  Elec       q    Type
REMARK                         _______ _______ _______ _____ _____    ______ ____
ROOT
ATOM      1  C   UNL     1       0.914   9.628  18.708  0.00  0.00    +0.000 A 
ATOM      2  C   UNL     1       0.814  10.223  19.953  0.00  0.00    +0.000 A 
ATOM      3  C   UNL     1      -0.420  10.911  19.968  0.00  0.00    +0.000 A 
ATOM      4  N   UNL     1      -1.054  10.744  18.803  0.00  0.00    +0.000 NA
ATOM      5  O   UNL     1      -0.234   9.956  18.026  0.00  0.00    +0.000 OA
ENDROOT
BRANCH   1   7
ATOM      6  C   UNL     1       1.963   7.490  18.287  0.00  0.00    +0.000 C 
ATOM      7  C   UNL     1       1.975   8.832  18.194  0.00  0.00    +0.000 C 
BRANCH   6  11
ATOM      8  C   UNL     1       5.012   4.799  16.818  0.00  0.00    +0.000 A 
ATOM      9  C   UNL     1       5.197   6.201  16.789  0.00  0.00    +0.000 A 
ATOM     10  C   UNL     1       4.224   7.099  17.241  0.00  0.00    +0.000 A 
ATOM     11  C   UNL     1       3.022   6.621  17.758  0.00  0.00    +0.000 A 
ATOM     12  C   UNL     1       2.850   5.233  17.818  0.00  0.00    +0.000 A 
ATOM     13  C   UNL     1       3.818   4.307  17.358  0.00  0.00    +0.000 A 
BRANCH  13  14
ATOM     14  O   UNL     1       3.323   3.047  17.522  0.00  0.00    +0.000 OA
ATOM     15  C   UNL     1       3.800   2.148  18.495  0.00  0.00    +0.000 C 
ENDBRANCH  13  14
BRANCH   8  16
ATOM     16  O   UNL     1       6.111   4.158  16.315  0.00  0.00    +0.000 OA
BRANCH  16  17
ATOM     17  C   UNL     1       6.072   3.688  14.977  0.00  0.00    +0.000 C 
BRANCH  17  18
ATOM     18  C   UNL     1       6.827   4.612  14.026  0.00  0.00    +0.000 C 
BRANCH  18  19
ATOM     19  C   UNL     1       6.663   4.161  12.571  0.00  0.00    +0.000 C 
BRANCH  19  21
ATOM     20  C   UNL     1       4.501   3.426  11.536  0.00  0.00    +0.000 C 
ATOM     21  C   UNL     1       5.650   3.026  12.447  0.00  0.00    +0.000 C 
ENDBRANCH  19  21
ENDBRANCH  18  19
ENDBRANCH  17  18
ENDBRANCH  16  17
ENDBRANCH   8  16
ENDBRANCH   6  11
ENDBRANCH   1   7
BRANCH   3  22
ATOM     22  C   UNL     1      -0.968  11.677  21.045  0.00  0.00    +0.000 C 
ATOM     23  C   UNL     1      -1.988  12.549  20.964  0.00  0.00    +0.000 C 
BRANCH  23  24
ATOM     24  C   UNL     1      -2.481  13.344  22.100  0.00  0.00    +0.000 A 
ATOM     25  C   UNL     1      -1.576  13.774  23.079  0.00  0.00    +0.000 A 
ATOM     26  C   UNL     1      -2.024  14.491  24.190  0.00  0.00    +0.000 A 
ATOM     27  C   UNL     1      -3.382  14.773  24.329  0.00  0.00    +0.000 A 
ATOM     28  C   UNL     1      -4.310  14.337  23.375  0.00  0.00    +0.000 A 
ATOM     29  C   UNL     1      -3.848  13.619  22.267  0.00  0.00    +0.000 A 
BRANCH  27  30
ATOM     30  O   UNL     1      -3.823  15.480  25.415  0.00  0.00    +0.000 OA
ATOM     31  H   UNL     1      -3.827  16.426  25.201  0.00  0.00    +0.000 HD
ENDBRANCH  27  30
BRANCH  28  32
ATOM     32  O   UNL     1      -5.623  14.649  23.610  0.00  0.00    +0.000 OA
ATOM     33  C   UNL     1      -6.517  13.571  23.853  0.00  0.00    +0.000 C 
ENDBRANCH  28  32
ENDBRANCH  23  24
ENDBRANCH   3  22
TORSDOF 12
ENDMDL
MODEL 7
REMARK VINA RESULT:      -7.2      2.385      3.072
REMARK  Name = 
REMARK  15 active torsions:
REMARK  status: ('A' for Active; 'I' for Inactive)
REMARK    1  A    between atoms: C_1  and  C_2
REMARK    2  A    between atoms: C_2  and  C_3
REMARK    3  A    between atoms: C_3  and  C_4
REMARK    4  A    between atoms: C_4  and  C_5
REMARK    5  A    between atoms: C_5  and  O_6
REMARK    6  A    between atoms: O_6  and  C_7
REMARK    7  A    between atoms: C_10  and  C_11
REMARK    8  A    between atoms: C_12  and  C_13
REMARK    9  A    between atoms: C_15  and  C_16
REMARK   10  A    between atoms: C_17  and  C_18
REMARK   11  A    between atoms: C_21  and  O_22
REMARK   12  A    between atoms: C_23  and  O_24
REMARK   13  A    between atoms: O_24  and  C_25
REMARK   14  A    between atoms: C_30  and  O_31
REMARK   15  A    between atoms: O_31  and  C_32
REMARK                            x       y       z     vdW  Elec       q    Type
REMARK                         _______ _______ _______ _____ _____    ______ ____
ROOT
ATOM      1  C   UNL     1       1.125   8.908  20.993  0.00  0.00    +0.000 A 
ATOM      2  C   UNL     1       0.041   9.735  20.760  0.00  0.00    +0.000 A 
ATOM      3  C   UNL     1      -0.290  10.318  22.003  0.00  0.00    +0.000 A 
ATOM      4  N   UNL     1       0.547   9.888  22.952  0.00  0.00    +0.000 NA
ATOM      5  O   UNL     1       1.418   9.018  22.332  0.00  0.00    +0.000 OA
ENDROOT
BRANCH   1   7
ATOM      6  C   UNL     1       2.098   6.798  20.325  0.00  0.00    +0.000 C 
ATOM      7  C   UNL     1       1.824   8.089  20.065  0.00  0.00    +0.000 C 
BRANCH   6  11
ATOM      8  C   UNL     1       4.315   4.222  17.652  0.00  0.00    +0.000 A 
ATOM      9  C   UNL     1       2.963   4.552  17.398  0.00  0.00    +0.000 A 
ATOM     10  C   UNL     1       2.213   5.368  18.251  0.00  0.00    +0.000 A 
ATOM     11  C   UNL     1       2.800   5.903  19.395  0.00  0.00    +0.000 A 
ATOM     12  C   UNL     1       4.147   5.604  19.631  0.00  0.00    +0.000 A 
ATOM     13  C   UNL     1       4.922   4.774  18.786  0.00  0.00    +0.000 A 
BRANCH  13  14
ATOM     14  O   UNL     1       6.170   4.656  19.321  0.00  0.00    +0.000 OA
ATOM     15  C   UNL     1       7.242   5.502  18.977  0.00  0.00    +0.000 C 
ENDBRANCH  13  14
BRANCH   8  16
ATOM     16  O   UNL     1       4.805   3.409  16.667  0.00  0.00    +0.000 OA
BRANCH  16  17
ATOM     17  C   UNL     1       5.807   3.916  15.800  0.00  0.00    +0.000 C 
BRANCH  17  18
ATOM     18  C   UNL     1       5.304   4.052  14.365  0.00  0.00    +0.000 C 
BRANCH  18  19
ATOM     19  C   UNL     1       6.457   3.940  13.363  0.00  0.00    +0.000 C 
BRANCH  19  21
ATOM     20  C   UNL     1       8.031   5.609  12.351  0.00  0.00    +0.000 C 
ATOM     21  C   UNL     1       7.546   4.972  13.643  0.00  0.00    +0.000 C 
ENDBRANCH  19  21
ENDBRANCH  18  19
ENDBRANCH  17  18
ENDBRANCH  16  17
ENDBRANCH   8  16
ENDBRANCH   6  11
ENDBRANCH   1   7
BRANCH   3  22
ATOM     22  C   UNL     1      -1.344  11.250  22.267  0.00  0.00    +0.000 C 
ATOM     23  C   UNL     1      -1.341  12.213  23.204  0.00  0.00    +0.000 C 
BRANCH  23  24
ATOM     24  C   UNL     1      -2.475  13.115  23.460  0.00  0.00    +0.000 A 
ATOM     25  C   UNL     1      -2.227  14.460  23.759  0.00  0.00    +0.000 A 
ATOM     26  C   UNL     1      -3.283  15.327  24.049  0.00  0.00    +0.000 A 
ATOM     27  C   UNL     1      -4.591  14.845  24.050  0.00  0.00    +0.000 A 
ATOM     28  C   UNL     1      -4.865  13.500  23.775  0.00  0.00    +0.000 A 
ATOM     29  C   UNL     1      -3.798  12.642  23.486  0.00  0.00    +0.000 A 
BRANCH  27  30
ATOM     30  O   UNL     1      -5.629  15.694  24.330  0.00  0.00    +0.000 OA
ATOM     31  H   UNL     1      -5.476  16.543  23.888  0.00  0.00    +0.000 HD
ENDBRANCH  27  30
BRANCH  28  32
ATOM     32  O   UNL     1      -6.181  13.120  23.817  0.00  0.00    +0.000 OA
ATOM     33  C   UNL     1      -6.755  12.623  22.614  0.00  0.00    +0.000 C 
ENDBRANCH  28  32
ENDBRANCH  23  24
ENDBRANCH   3  22
TORSDOF 12
ENDMDL
MODEL 8
REMARK VINA RESULT:      -7.2      1.915      2.983
REMARK  Name = 
REMARK  15 active torsions:
REMARK  status: ('A' for Active; 'I' for Inactive)
REMARK    1  A    between atoms: C_1  and  C_2
REMARK    2  A    between atoms: C_2  and  C_3
REMARK    3  A    between atoms: C_3  and  C_4
REMARK    4  A    between atoms: C_4  and  C_5
REMARK    5  A    between atoms: C_5  and  O_6
REMARK    6  A    between atoms: O_6  and  C_7
REMARK    7  A    between atoms: C_10  and  C_11
REMARK    8  A    between atoms: C_12  and  C_13
REMARK    9  A    between atoms: C_15  and  C_16
REMARK   10  A    between atoms: C_17  and  C_18
REMARK   11  A    between atoms: C_21  and  O_22
REMARK   12  A    between atoms: C_23  and  O_24
REMARK   13  A    between atoms: O_24  and  C_25
REMARK   14  A    between atoms: C_30  and  O_31
REMARK   15  A    between atoms: O_31  and  C_32
REMARK                            x       y       z     vdW  Elec       q    Type
REMARK                         _______ _______ _______ _____ _____    ______ ____
ROOT
ATOM      1  C   UNL     1       1.264   8.447  20.527  0.00  0.00    +0.000 A 
ATOM      2  C   UNL     1       0.826   9.759  20.576  0.00  0.00    +0.000 A 
ATOM      3  C   UNL     1      -0.261   9.783  21.478  0.00  0.00    +0.000 A 
ATOM      4  N   UNL     1      -0.478   8.560  21.970  0.00  0.00    +0.000 NA
ATOM      5  O   UNL     1       0.458   7.736  21.384  0.00  0.00    +0.000 OA
ENDROOT
BRANCH   1   7
ATOM      6  C   UNL     1       2.134   6.869  18.915  0.00  0.00    +0.000 C 
ATOM      7  C   UNL     1       2.326   7.901  19.756  0.00  0.00    +0.000 C 
BRANCH   6  11
ATOM      8  C   UNL     1       5.227   4.984  16.555  0.00  0.00    +0.000 A 
ATOM      9  C   UNL     1       5.109   6.392  16.616  0.00  0.00    +0.000 A 
ATOM     10  C   UNL     1       4.109   7.032  17.357  0.00  0.00    +0.000 A 
ATOM     11  C   UNL     1       3.191   6.278  18.083  0.00  0.00    +0.000 A 
ATOM     12  C   UNL     1       3.326   4.886  18.049  0.00  0.00    +0.000 A 
ATOM     13  C   UNL     1       4.324   4.217  17.300  0.00  0.00    +0.000 A 
BRANCH  13  14
ATOM     14  O   UNL     1       4.151   2.873  17.452  0.00  0.00    +0.000 OA
ATOM     15  C   UNL     1       3.562   2.294  18.593  0.00  0.00    +0.000 C 
ENDBRANCH  13  14
BRANCH   8  16
ATOM     16  O   UNL     1       6.281   4.624  15.760  0.00  0.00    +0.000 OA
BRANCH  16  17
ATOM     17  C   UNL     1       6.087   3.607  14.790  0.00  0.00    +0.000 C 
BRANCH  17  18
ATOM     18  C   UNL     1       5.666   4.181  13.440  0.00  0.00    +0.000 C 
BRANCH  18  19
ATOM     19  C   UNL     1       6.405   3.488  12.291  0.00  0.00    +0.000 C 
BRANCH  19  21
ATOM     20  C   UNL     1       6.487   1.274  11.115  0.00  0.00    +0.000 C 
ATOM     21  C   UNL     1       5.582   2.345  11.702  0.00  0.00    +0.000 C 
ENDBRANCH  19  21
ENDBRANCH  18  19
ENDBRANCH  17  18
ENDBRANCH  16  17
ENDBRANCH   8  16
ENDBRANCH   6  11
ENDBRANCH   1   7
BRANCH   3  22
ATOM     22  C   UNL     1      -1.040  10.921  21.860  0.00  0.00    +0.000 C 
ATOM     23  C   UNL     1      -1.308  11.318  23.116  0.00  0.00    +0.000 C 
BRANCH  23  24
ATOM     24  C   UNL     1      -2.156  12.473  23.449  0.00  0.00    +0.000 A 
ATOM     25  C   UNL     1      -1.554  13.704  23.743  0.00  0.00    +0.000 A 
ATOM     26  C   UNL     1      -2.334  14.804  24.105  0.00  0.00    +0.000 A 
ATOM     27  C   UNL     1      -3.719  14.673  24.183  0.00  0.00    +0.000 A 
ATOM     28  C   UNL     1      -4.345  13.449  23.915  0.00  0.00    +0.000 A 
ATOM     29  C   UNL     1      -3.552  12.354  23.554  0.00  0.00    +0.000 A 
BRANCH  27  30
ATOM     30  O   UNL     1      -4.486  15.752  24.534  0.00  0.00    +0.000 OA
ATOM     31  H   UNL     1      -4.318  15.977  25.462  0.00  0.00    +0.000 HD
ENDBRANCH  27  30
BRANCH  28  32
ATOM     32  O   UNL     1      -5.709  13.418  24.036  0.00  0.00    +0.000 OA
ATOM     33  C   UNL     1      -6.457  13.029  22.891  0.00  0.00    +0.000 C 
ENDBRANCH  28  32
ENDBRANCH  23  24
ENDBRANCH   3  22
TORSDOF 12
ENDMDL
MODEL 9
REMARK VINA RESULT:      -7.1      1.052      1.918
REMARK  Name = 
REMARK  15 active torsions:
REMARK  status: ('A' for Active; 'I' for Inactive)
REMARK    1  A    between atoms: C_1  and  C_2
REMARK    2  A    between atoms: C_2  and  C_3
REMARK    3  A    between atoms: C_3  and  C_4
REMARK    4  A    between atoms: C_4  and  C_5
REMARK    5  A    between atoms: C_5  and  O_6
REMARK    6  A    between atoms: O_6  and  C_7
REMARK    7  A    between atoms: C_10  and  C_11
REMARK    8  A    between atoms: C_12  and  C_13
REMARK    9  A    between atoms: C_15  and  C_16
REMARK   10  A    between atoms: C_17  and  C_18
REMARK   11  A    between atoms: C_21  and  O_22
REMARK   12  A    between atoms: C_23  and  O_24
REMARK   13  A    between atoms: O_24  and  C_25
REMARK   14  A    between atoms: C_30  and  O_31
REMARK   15  A    between atoms: O_31  and  C_32
REMARK                            x       y       z     vdW  Elec       q    Type
REMARK                         _______ _______ _______ _____ _____    ______ ____
ROOT
ATOM      1  C   UNL     1       0.889   9.439  18.333  0.00  0.00    +0.000 A 
ATOM      2  C   UNL     1       0.665   9.694  19.673  0.00  0.00    +0.000 A 
ATOM      3  C   UNL     1      -0.395  10.626  19.731  0.00  0.00    +0.000 A 
ATOM      4  N   UNL     1      -0.813  10.925  18.497  0.00  0.00    +0.000 NA
ATOM      5  O   UNL     1      -0.023  10.196  17.635  0.00  0.00    +0.000 OA
ENDROOT
BRANCH   1   7
ATOM      6  C   UNL     1       2.407   7.561  18.435  0.00  0.00    +0.000 C 
ATOM      7  C   UNL     1       1.859   8.579  17.749  0.00  0.00    +0.000 C 
BRANCH   6  11
ATOM      8  C   UNL     1       5.288   4.716  16.916  0.00  0.00    +0.000 A 
ATOM      9  C   UNL     1       5.334   6.078  16.538  0.00  0.00    +0.000 A 
ATOM     10  C   UNL     1       4.408   7.020  16.999  0.00  0.00    +0.000 A 
ATOM     11  C   UNL     1       3.398   6.631  17.875  0.00  0.00    +0.000 A 
ATOM     12  C   UNL     1       3.369   5.291  18.275  0.00  0.00    +0.000 A 
ATOM     13  C   UNL     1       4.292   4.319  17.815  0.00  0.00    +0.000 A 
BRANCH  13  14
ATOM     14  O   UNL     1       3.960   3.115  18.362  0.00  0.00    +0.000 OA
ATOM     15  C   UNL     1       3.064   2.212  17.758  0.00  0.00    +0.000 C 
ENDBRANCH  13  14
BRANCH   8  16
ATOM     16  O   UNL     1       6.302   4.017  16.321  0.00  0.00    +0.000 OA
BRANCH  16  17
ATOM     17  C   UNL     1       6.789   4.458  15.064  0.00  0.00    +0.000 C 
BRANCH  17  18
ATOM     18  C   UNL     1       5.835   4.104  13.926  0.00  0.00    +0.000 C 
BRANCH  18  19
ATOM     19  C   UNL     1       6.605   3.674  12.674  0.00  0.00    +0.000 C 
BRANCH  19  21
ATOM     20  C   UNL     1       6.850   1.787  11.041  0.00  0.00    +0.000 C 
ATOM     21  C   UNL     1       5.884   2.555  11.929  0.00  0.00    +0.000 C 
ENDBRANCH  19  21
ENDBRANCH  18  19
ENDBRANCH  17  18
ENDBRANCH  16  17
ENDBRANCH   8  16
ENDBRANCH   6  11
ENDBRANCH   1   7
BRANCH   3  22
ATOM     22  C   UNL     1      -0.986  11.190  20.906  0.00  0.00    +0.000 C 
ATOM     23  C   UNL     1      -1.279  12.487  21.107  0.00  0.00    +0.000 C 
BRANCH  23  24
ATOM     24  C   UNL     1      -1.845  13.017  22.357  0.00  0.00    +0.000 A 
ATOM     25  C   UNL     1      -2.894  12.329  22.980  0.00  0.00    +0.000 A 
ATOM     26  C   UNL     1      -3.479  12.834  24.143  0.00  0.00    +0.000 A 
ATOM     27  C   UNL     1      -3.022  14.035  24.682  0.00  0.00    +0.000 A 
ATOM     28  C   UNL     1      -1.988  14.753  24.067  0.00  0.00    +0.000 A 
ATOM     29  C   UNL     1      -1.411  14.237  22.902  0.00  0.00    +0.000 A 
BRANCH  27  30
ATOM     30  O   UNL     1      -3.590  14.530  25.824  0.00  0.00    +0.000 OA
ATOM     31  H   UNL     1      -4.414  14.988  25.600  0.00  0.00    +0.000 HD
ENDBRANCH  27  30
BRANCH  28  32
ATOM     32  O   UNL     1      -1.620  15.931  24.663  0.00  0.00    +0.000 OA
ATOM     33  C   UNL     1      -0.780  15.848  25.807  0.00  0.00    +0.000 C 
ENDBRANCH  28  32
ENDBRANCH  23  24
ENDBRANCH   3  22
TORSDOF 12
ENDMDL
