MODEL 1
REMARK VINA RESULT:      -8.1      0.000      0.000
REMARK  Name = 
REMARK  5 active torsions:
REMARK  status: ('A' for Active; 'I' for Inactive)
REMARK    1  A    between atoms: C_1  and  C_2
REMARK    2  A    between atoms: C_2  and  C_3
REMARK    3  A    between atoms: C_7  and  C_8
REMARK    4  A    between atoms: N_16  and  C_17
REMARK    5  A    between atoms: C_17  and  C_18
REMARK                            x       y       z     vdW  Elec       q    Type
REMARK                         _______ _______ _______ _____ _____    ______ ____
ROOT
ATOM      1  C   UNL     1       2.650   4.394  20.228  0.00  0.00    +0.000 C 
ATOM      2  O   UNL     1       3.183   3.677  19.396  0.00  0.00    +0.000 OA
ATOM      3  N   UNL     1       2.350   5.753  19.949  0.00  0.00    +0.000 N 
ATOM      4  N   UNL     1       1.754   6.527  20.917  0.00  0.00    +0.000 NA
ATOM      5  C   UNL     1       1.591   7.709  20.313  0.00  0.00    +0.000 A 
ATOM      6  N   UNL     1       2.074   7.749  19.039  0.00  0.00    +0.000 NA
ATOM      7  C   UNL     1       2.532   6.544  18.800  0.00  0.00    +0.000 A 
ATOM      8  N   UNL     1       3.021   6.227  17.573  0.00  0.00    +0.000 N 
ATOM      9  H   UNL     1       3.079   7.033  16.950  0.00  0.00    +0.000 HD
ENDROOT
BRANCH   5  10
ATOM     10  C   UNL     1       0.907   8.860  20.890  0.00  0.00    +0.000 A 
ATOM     11  C   UNL     1       0.263   9.822  20.109  0.00  0.00    +0.000 A 
ATOM     12  C   UNL     1      -0.309  10.941  20.716  0.00  0.00    +0.000 A 
ATOM     13  C   UNL     1      -0.225  11.065  22.092  0.00  0.00    +0.000 A 
ATOM     14  N   UNL     1       0.367  10.149  22.888  0.00  0.00    +0.000 NA
ATOM     15  C   UNL     1       0.917   9.072  22.267  0.00  0.00    +0.000 A 
ENDBRANCH   5  10
BRANCH   1  17
ATOM     16  C   UNL     1       1.463   2.589  21.573  0.00  0.00    +0.000 C 
ATOM     17  C   UNL     1       2.222   3.912  21.607  0.00  0.00    +0.000 C 
ENDBRANCH   1  17
BRANCH   8  18
ATOM     18  C   UNL     1       4.064   5.255  17.344  0.00  0.00    +0.000 C 
BRANCH  18  19
ATOM     19  C   UNL     1       5.413   5.812  17.746  0.00  0.00    +0.000 A 
ATOM     20  C   UNL     1       5.966   6.907  17.062  0.00  0.00    +0.000 A 
ATOM     21  C   UNL     1       7.182   7.454  17.473  0.00  0.00    +0.000 A 
ATOM     22  C   UNL     1       7.854   6.898  18.556  0.00  0.00    +0.000 A 
ATOM     23  F   UNL     1       9.016   7.433  18.955  0.00  0.00    +0.000 F 
ATOM     24  C   UNL     1       7.337   5.800  19.232  0.00  0.00    +0.000 A 
ATOM     25  C   UNL     1       6.120   5.251  18.824  0.00  0.00    +0.000 A 
ENDBRANCH  18  19
ENDBRANCH   8  18
TORSDOF 4
ENDMDL
MODEL 2
REMARK VINA RESULT:      -7.8      2.953      6.988
REMARK  Name = 
REMARK  5 active torsions:
REMARK  status: ('A' for Active; 'I' for Inactive)
REMARK    1  A    between atoms: C_1  and  C_2
REMARK    2  A    between atoms: C_2  and  C_3
REMARK    3  A    between atoms: C_7  and  C_8
REMARK    4  A    between atoms: N_16  and  C_17
REMARK    5  A    between atoms: C_17  and  C_18
REMARK                            x       y       z     vdW  Elec       q    Type
REMARK                         _______ _______ _______ _____ _____    ______ ____
ROOT
ATOM      1  C   UNL     1       1.894   3.954  20.010  0.00  0.00    +0.000 C 
ATOM      2  O   UNL     1       1.252   4.422  20.936  0.00  0.00    +0.000 OA
ATOM      3  N   UNL     1       2.740   4.768  19.212  0.00  0.00    +0.000 N 
ATOM      4  N   UNL     1       3.442   4.202  18.174  0.00  0.00    +0.000 NA
ATOM      5  C   UNL     1       4.143   5.228  17.677  0.00  0.00    +0.000 A 
ATOM      6  N   UNL     1       3.907   6.413  18.306  0.00  0.00    +0.000 NA
ATOM      7  C   UNL     1       3.054   6.139  19.263  0.00  0.00    +0.000 A 
ATOM      8  N   UNL     1       2.667   7.106  20.135  0.00  0.00    +0.000 N 
ATOM      9  H   UNL     1       3.021   8.029  19.885  0.00  0.00    +0.000 HD
ENDROOT
BRANCH   5  10
ATOM     10  C   UNL     1       5.129   5.131  16.609  0.00  0.00    +0.000 A 
ATOM     11  C   UNL     1       4.978   4.269  15.521  0.00  0.00    +0.000 A 
ATOM     12  C   UNL     1       5.993   4.166  14.568  0.00  0.00    +0.000 A 
ATOM     13  C   UNL     1       7.133   4.934  14.728  0.00  0.00    +0.000 A 
ATOM     14  N   UNL     1       7.312   5.798  15.749  0.00  0.00    +0.000 NA
ATOM     15  C   UNL     1       6.308   5.874  16.662  0.00  0.00    +0.000 A 
ENDBRANCH   5  10
BRANCH   1  17
ATOM     16  C   UNL     1       0.680   2.069  18.807  0.00  0.00    +0.000 C 
ATOM     17  C   UNL     1       1.890   2.477  19.641  0.00  0.00    +0.000 C 
ENDBRANCH   1  17
BRANCH   8  18
ATOM     18  C   UNL     1       1.372   7.149  20.773  0.00  0.00    +0.000 C 
BRANCH  18  19
ATOM     19  C   UNL     1       0.889   8.577  20.912  0.00  0.00    +0.000 A 
ATOM     20  C   UNL     1       0.970   9.466  19.827  0.00  0.00    +0.000 A 
ATOM     21  C   UNL     1       0.472  10.764  19.940  0.00  0.00    +0.000 A 
ATOM     22  C   UNL     1      -0.093  11.180  21.140  0.00  0.00    +0.000 A 
ATOM     23  F   UNL     1      -0.582  12.424  21.242  0.00  0.00    +0.000 F 
ATOM     24  C   UNL     1      -0.162  10.325  22.234  0.00  0.00    +0.000 A 
ATOM     25  C   UNL     1       0.335   9.025  22.123  0.00  0.00    +0.000 A 
ENDBRANCH  18  19
ENDBRANCH   8  18
TORSDOF 4
ENDMDL
MODEL 3
REMARK VINA RESULT:      -7.6      2.005      2.391
REMARK  Name = 
REMARK  5 active torsions:
REMARK  status: ('A' for Active; 'I' for Inactive)
REMARK    1  A    between atoms: C_1  and  C_2
REMARK    2  A    between atoms: C_2  and  C_3
REMARK    3  A    between atoms: C_7  and  C_8
REMARK    4  A    between atoms: N_16  and  C_17
REMARK    5  A    between atoms: C_17  and  C_18
REMARK                            x       y       z     vdW  Elec       q    Type
REMARK                         _______ _______ _______ _____ _____    ______ ____
ROOT
ATOM      1  C   UNL     1       2.184   4.078  19.823  0.00  0.00    +0.000 C 
ATOM      2  O   UNL     1       2.911   3.408  19.106  0.00  0.00    +0.000 OA
ATOM      3  N   UNL     1       2.239   5.496  19.810  0.00  0.00    +0.000 N 
ATOM      4  N   UNL     1       1.407   6.213  20.637  0.00  0.00    +0.000 NA
ATOM      5  C   UNL     1       1.697   7.486  20.343  0.00  0.00    +0.000 A 
ATOM      6  N   UNL     1       2.681   7.626  19.411  0.00  0.00    +0.000 NA
ATOM      7  C   UNL     1       3.013   6.406  19.065  0.00  0.00    +0.000 A 
ATOM      8  N   UNL     1       3.929   6.196  18.085  0.00  0.00    +0.000 N 
ATOM      9  H   UNL     1       4.368   7.058  17.762  0.00  0.00    +0.000 HD
ENDROOT
BRANCH   5  10
ATOM     10  C   UNL     1       1.011   8.651  20.887  0.00  0.00    +0.000 A 
ATOM     11  C   UNL     1       0.310   9.554  20.085  0.00  0.00    +0.000 A 
ATOM     12  C   UNL     1      -0.263  10.692  20.656  0.00  0.00    +0.000 A 
ATOM     13  C   UNL     1      -0.123  10.893  22.018  0.00  0.00    +0.000 A 
ATOM     14  N   UNL     1       0.525  10.035  22.835  0.00  0.00    +0.000 NA
ATOM     15  C   UNL     1       1.075   8.939  22.249  0.00  0.00    +0.000 A 
ENDBRANCH   5  10
BRANCH   1  17
ATOM     16  C   UNL     1       1.739   2.606  21.850  0.00  0.00    +0.000 C 
ATOM     17  C   UNL     1       1.139   3.484  20.757  0.00  0.00    +0.000 C 
ENDBRANCH   1  17
BRANCH   8  18
ATOM     18  C   UNL     1       4.813   5.054  18.033  0.00  0.00    +0.000 C 
BRANCH  18  19
ATOM     19  C   UNL     1       5.471   4.947  16.674  0.00  0.00    +0.000 A 
ATOM     20  C   UNL     1       6.795   5.377  16.488  0.00  0.00    +0.000 A 
ATOM     21  C   UNL     1       7.419   5.224  15.249  0.00  0.00    +0.000 A 
ATOM     22  C   UNL     1       6.716   4.656  14.193  0.00  0.00    +0.000 A 
ATOM     23  F   UNL     1       7.321   4.499  13.007  0.00  0.00    +0.000 F 
ATOM     24  C   UNL     1       5.398   4.246  14.348  0.00  0.00    +0.000 A 
ATOM     25  C   UNL     1       4.771   4.397  15.587  0.00  0.00    +0.000 A 
ENDBRANCH  18  19
ENDBRANCH   8  18
TORSDOF 4
ENDMDL
MODEL 4
REMARK VINA RESULT:      -7.6      0.709      1.392
REMARK  Name = 
REMARK  5 active torsions:
REMARK  status: ('A' for Active; 'I' for Inactive)
REMARK    1  A    between atoms: C_1  and  C_2
REMARK    2  A    between atoms: C_2  and  C_3
REMARK    3  A    between atoms: C_7  and  C_8
REMARK    4  A    between atoms: N_16  and  C_17
REMARK    5  A    between atoms: C_17  and  C_18
REMARK                            x       y       z     vdW  Elec       q    Type
REMARK                         _______ _______ _______ _____ _____    ______ ____
ROOT
ATOM      1  C   UNL     1       2.163   4.471  20.059  0.00  0.00    +0.000 C 
ATOM      2  O   UNL     1       2.673   3.830  19.153  0.00  0.00    +0.000 OA
ATOM      3  N   UNL     1       2.008   5.878  19.971  0.00  0.00    +0.000 N 
ATOM      4  N   UNL     1       1.433   6.562  21.016  0.00  0.00    +0.000 NA
ATOM      5  C   UNL     1       1.414   7.830  20.586  0.00  0.00    +0.000 A 
ATOM      6  N   UNL     1       1.970   8.002  19.354  0.00  0.00    +0.000 NA
ATOM      7  C   UNL     1       2.327   6.804  18.959  0.00  0.00    +0.000 A 
ATOM      8  N   UNL     1       2.851   6.618  17.721  0.00  0.00    +0.000 N 
ATOM      9  H   UNL     1       3.019   7.494  17.226  0.00  0.00    +0.000 HD
ENDROOT
BRANCH   5  10
ATOM     10  C   UNL     1       0.810   8.949  21.298  0.00  0.00    +0.000 A 
ATOM     11  C   UNL     1      -0.056   8.773  22.379  0.00  0.00    +0.000 A 
ATOM     12  C   UNL     1      -0.663   9.881  22.972  0.00  0.00    +0.000 A 
ATOM     13  C   UNL     1      -0.382  11.140  22.468  0.00  0.00    +0.000 A 
ATOM     14  N   UNL     1       0.466  11.358  21.441  0.00  0.00    +0.000 NA
ATOM     15  C   UNL     1       1.039  10.259  20.883  0.00  0.00    +0.000 A 
ENDBRANCH   5  10
BRANCH   1  17
ATOM     16  C   UNL     1       2.135   2.429  21.576  0.00  0.00    +0.000 C 
ATOM     17  C   UNL     1       1.616   3.842  21.333  0.00  0.00    +0.000 C 
ENDBRANCH   1  17
BRANCH   8  18
ATOM     18  C   UNL     1       3.811   5.589  17.394  0.00  0.00    +0.000 C 
BRANCH  18  19
ATOM     19  C   UNL     1       5.197   5.981  17.859  0.00  0.00    +0.000 A 
ATOM     20  C   UNL     1       5.776   5.362  18.979  0.00  0.00    +0.000 A 
ATOM     21  C   UNL     1       7.075   5.684  19.370  0.00  0.00    +0.000 A 
ATOM     22  C   UNL     1       7.792   6.637  18.654  0.00  0.00    +0.000 A 
ATOM     23  F   UNL     1       9.044   6.936  19.025  0.00  0.00    +0.000 F 
ATOM     24  C   UNL     1       7.230   7.280  17.558  0.00  0.00    +0.000 A 
ATOM     25  C   UNL     1       5.929   6.958  17.164  0.00  0.00    +0.000 A 
ENDBRANCH  18  19
ENDBRANCH   8  18
TORSDOF 4
ENDMDL
MODEL 5
REMARK VINA RESULT:      -7.5      3.045      3.643
REMARK  Name = 
REMARK  5 active torsions:
REMARK  status: ('A' for Active; 'I' for Inactive)
REMARK    1  A    between atoms: C_1  and  C_2
REMARK    2  A    between atoms: C_2  and  C_3
REMARK    3  A    between atoms: C_7  and  C_8
REMARK    4  A    between atoms: N_16  and  C_17
REMARK    5  A    between atoms: C_17  and  C_18
REMARK                            x       y       z     vdW  Elec       q    Type
REMARK                         _______ _______ _______ _____ _____    ______ ____
ROOT
ATOM      1  C   UNL     1       3.100   3.459  18.539  0.00  0.00    +0.000 C 
ATOM      2  O   UNL     1       3.791   2.813  17.767  0.00  0.00    +0.000 OA
ATOM      3  N   UNL     1       3.096   4.878  18.514  0.00  0.00    +0.000 N 
ATOM      4  N   UNL     1       2.306   5.568  19.404  0.00  0.00    +0.000 NA
ATOM      5  C   UNL     1       2.520   6.849  19.081  0.00  0.00    +0.000 A 
ATOM      6  N   UNL     1       3.417   7.020  18.070  0.00  0.00    +0.000 NA
ATOM      7  C   UNL     1       3.769   5.812  17.704  0.00  0.00    +0.000 A 
ATOM      8  N   UNL     1       4.608   5.630  16.652  0.00  0.00    +0.000 N 
ATOM      9  H   UNL     1       4.985   6.507  16.290  0.00  0.00    +0.000 HD
ENDROOT
BRANCH   5  10
ATOM     10  C   UNL     1       1.834   7.990  19.674  0.00  0.00    +0.000 A 
ATOM     11  C   UNL     1       1.386   7.993  20.997  0.00  0.00    +0.000 A 
ATOM     12  C   UNL     1       0.669   9.087  21.486  0.00  0.00    +0.000 A 
ATOM     13  C   UNL     1       0.424  10.153  20.637  0.00  0.00    +0.000 A 
ATOM     14  N   UNL     1       0.859  10.203  19.360  0.00  0.00    +0.000 NA
ATOM     15  C   UNL     1       1.551   9.122  18.912  0.00  0.00    +0.000 A 
ENDBRANCH   5  10
BRANCH   1  17
ATOM     16  C   UNL     1       0.870   2.301  18.940  0.00  0.00    +0.000 C 
ATOM     17  C   UNL     1       2.159   2.831  19.558  0.00  0.00    +0.000 C 
ENDBRANCH   1  17
BRANCH   8  18
ATOM     18  C   UNL     1       5.530   4.525  16.533  0.00  0.00    +0.000 C 
BRANCH  18  19
ATOM     19  C   UNL     1       6.078   4.432  15.125  0.00  0.00    +0.000 A 
ATOM     20  C   UNL     1       5.412   3.673  14.149  0.00  0.00    +0.000 A 
ATOM     21  C   UNL     1       5.887   3.636  12.838  0.00  0.00    +0.000 A 
ATOM     22  C   UNL     1       7.036   4.345  12.504  0.00  0.00    +0.000 A 
ATOM     23  F   UNL     1       7.483   4.318  11.241  0.00  0.00    +0.000 F 
ATOM     24  C   UNL     1       7.724   5.084  13.459  0.00  0.00    +0.000 A 
ATOM     25  C   UNL     1       7.250   5.122  14.772  0.00  0.00    +0.000 A 
ENDBRANCH  18  19
ENDBRANCH   8  18
TORSDOF 4
ENDMDL
MODEL 6
REMARK VINA RESULT:      -7.5      3.342      7.278
REMARK  Name = 
REMARK  5 active torsions:
REMARK  status: ('A' for Active; 'I' for Inactive)
REMARK    1  A    between atoms: C_1  and  C_2
REMARK    2  A    between atoms: C_2  and  C_3
REMARK    3  A    between atoms: C_7  and  C_8
REMARK    4  A    between atoms: N_16  and  C_17
REMARK    5  A    between atoms: C_17  and  C_18
REMARK                            x       y       z     vdW  Elec       q    Type
REMARK                         _______ _______ _______ _____ _____    ______ ____
ROOT
ATOM      1  C   UNL     1       1.960   6.297  20.293  0.00  0.00    +0.000 C 
ATOM      2  O   UNL     1       1.235   7.139  20.799  0.00  0.00    +0.000 OA
ATOM      3  N   UNL     1       2.695   6.571  19.110  0.00  0.00    +0.000 N 
ATOM      4  N   UNL     1       3.496   5.593  18.570  0.00  0.00    +0.000 NA
ATOM      5  C   UNL     1       4.049   6.195  17.510  0.00  0.00    +0.000 A 
ATOM      6  N   UNL     1       3.627   7.476  17.321  0.00  0.00    +0.000 NA
ATOM      7  C   UNL     1       2.802   7.723  18.309  0.00  0.00    +0.000 A 
ATOM      8  N   UNL     1       2.257   8.958  18.455  0.00  0.00    +0.000 N 
ATOM      9  H   UNL     1       2.477   9.582  17.679  0.00  0.00    +0.000 HD
ENDROOT
BRANCH   5  10
ATOM     10  C   UNL     1       5.064   5.606  16.645  0.00  0.00    +0.000 A 
ATOM     11  C   UNL     1       4.890   4.371  16.014  0.00  0.00    +0.000 A 
ATOM     12  C   UNL     1       5.928   3.824  15.258  0.00  0.00    +0.000 A 
ATOM     13  C   UNL     1       7.113   4.532  15.149  0.00  0.00    +0.000 A 
ATOM     14  N   UNL     1       7.316   5.737  15.721  0.00  0.00    +0.000 NA
ATOM     15  C   UNL     1       6.288   6.242  16.453  0.00  0.00    +0.000 A 
ENDBRANCH   5  10
BRANCH   1  17
ATOM     16  C   UNL     1       1.070   3.926  20.536  0.00  0.00    +0.000 C 
ATOM     17  C   UNL     1       2.182   4.910  20.881  0.00  0.00    +0.000 C 
ENDBRANCH   1  17
BRANCH   8  18
ATOM     18  C   UNL     1       0.956   9.206  19.031  0.00  0.00    +0.000 C 
BRANCH  18  19
ATOM     19  C   UNL     1       0.561  10.657  18.861  0.00  0.00    +0.000 A 
ATOM     20  C   UNL     1       1.543  11.660  18.794  0.00  0.00    +0.000 A 
ATOM     21  C   UNL     1       1.179  12.990  18.579  0.00  0.00    +0.000 A 
ATOM     22  C   UNL     1      -0.164  13.321  18.446  0.00  0.00    +0.000 A 
ATOM     23  F   UNL     1      -0.510  14.598  18.229  0.00  0.00    +0.000 F 
ATOM     24  C   UNL     1      -1.154  12.349  18.534  0.00  0.00    +0.000 A 
ATOM     25  C   UNL     1      -0.793  11.018  18.748  0.00  0.00    +0.000 A 
ENDBRANCH  18  19
ENDBRANCH   8  18
TORSDOF 4
ENDMDL
MODEL 7
REMARK VINA RESULT:      -7.4      3.067      3.579
REMARK  Name = 
REMARK  5 active torsions:
REMARK  status: ('A' for Active; 'I' for Inactive)
REMARK    1  A    between atoms: C_1  and  C_2
REMARK    2  A    between atoms: C_2  and  C_3
REMARK    3  A    between atoms: C_7  and  C_8
REMARK    4  A    between atoms: N_16  and  C_17
REMARK    5  A    between atoms: C_17  and  C_18
REMARK                            x       y       z     vdW  Elec       q    Type
REMARK                         _______ _______ _______ _____ _____    ______ ____
ROOT
ATOM      1  C   UNL     1       3.148   3.646  18.429  0.00  0.00    +0.000 C 
ATOM      2  O   UNL     1       3.871   2.994  17.693  0.00  0.00    +0.000 OA
ATOM      3  N   UNL     1       3.127   5.064  18.376  0.00  0.00    +0.000 N 
ATOM      4  N   UNL     1       2.302   5.761  19.227  0.00  0.00    +0.000 NA
ATOM      5  C   UNL     1       2.509   7.038  18.885  0.00  0.00    +0.000 A 
ATOM      6  N   UNL     1       3.436   7.201  17.899  0.00  0.00    +0.000 NA
ATOM      7  C   UNL     1       3.814   5.990  17.569  0.00  0.00    +0.000 A 
ATOM      8  N   UNL     1       4.688   5.799  16.547  0.00  0.00    +0.000 N 
ATOM      9  H   UNL     1       5.064   6.673  16.180  0.00  0.00    +0.000 HD
ENDROOT
BRANCH   5  10
ATOM     10  C   UNL     1       1.792   8.182  19.434  0.00  0.00    +0.000 A 
ATOM     11  C   UNL     1       1.466   9.303  18.668  0.00  0.00    +0.000 A 
ATOM     12  C   UNL     1       0.844  10.399  19.270  0.00  0.00    +0.000 A 
ATOM     13  C   UNL     1       0.561  10.340  20.624  0.00  0.00    +0.000 A 
ATOM     14  N   UNL     1       0.835   9.268  21.396  0.00  0.00    +0.000 NA
ATOM     15  C   UNL     1       1.443   8.219  20.783  0.00  0.00    +0.000 A 
ENDBRANCH   5  10
BRANCH   1  17
ATOM     16  C   UNL     1       0.940   2.432  18.780  0.00  0.00    +0.000 C 
ATOM     17  C   UNL     1       2.184   3.026  19.431  0.00  0.00    +0.000 C 
ENDBRANCH   1  17
BRANCH   8  18
ATOM     18  C   UNL     1       5.626   4.704  16.479  0.00  0.00    +0.000 C 
BRANCH  18  19
ATOM     19  C   UNL     1       6.136   4.521  15.065  0.00  0.00    +0.000 A 
ATOM     20  C   UNL     1       5.446   3.699  14.159  0.00  0.00    +0.000 A 
ATOM     21  C   UNL     1       5.886   3.578  12.841  0.00  0.00    +0.000 A 
ATOM     22  C   UNL     1       7.022   4.266  12.430  0.00  0.00    +0.000 A 
ATOM     23  F   UNL     1       7.435   4.157  11.160  0.00  0.00    +0.000 F 
ATOM     24  C   UNL     1       7.734   5.066  13.316  0.00  0.00    +0.000 A 
ATOM     25  C   UNL     1       7.296   5.188  14.636  0.00  0.00    +0.000 A 
ENDBRANCH  18  19
ENDBRANCH   8  18
TORSDOF 4
ENDMDL
MODEL 8
REMARK VINA RESULT:      -7.4      3.550      7.381
REMARK  Name = 
REMARK  5 active torsions:
REMARK  status: ('A' for Active; 'I' for Inactive)
REMARK    1  A    between atoms: C_1  and  C_2
REMARK    2  A    between atoms: C_2  and  C_3
REMARK    3  A    between atoms: C_7  and  C_8
REMARK    4  A    between atoms: N_16  and  C_17
REMARK    5  A    between atoms: C_17  and  C_18
REMARK                            x       y       z     vdW  Elec       q    Type
REMARK                         _______ _______ _______ _____ _____    ______ ____
ROOT
ATOM      1  C   UNL     1       2.962   3.393  18.380  0.00  0.00    +0.000 C 
ATOM      2  O   UNL     1       2.440   3.822  19.397  0.00  0.00    +0.000 OA
ATOM      3  N   UNL     1       3.735   4.232  17.537  0.00  0.00    +0.000 N 
ATOM      4  N   UNL     1       4.302   3.710  16.398  0.00  0.00    +0.000 NA
ATOM      5  C   UNL     1       4.971   4.748  15.880  0.00  0.00    +0.000 A 
ATOM      6  N   UNL     1       4.838   5.901  16.593  0.00  0.00    +0.000 NA
ATOM      7  C   UNL     1       4.090   5.592  17.625  0.00  0.00    +0.000 A 
ATOM      8  N   UNL     1       3.829   6.516  18.584  0.00  0.00    +0.000 N 
ATOM      9  H   UNL     1       4.178   7.444  18.345  0.00  0.00    +0.000 HD
ENDROOT
BRANCH   5  10
ATOM     10  C   UNL     1       5.829   4.690  14.703  0.00  0.00    +0.000 A 
ATOM     11  C   UNL     1       5.552   3.865  13.611  0.00  0.00    +0.000 A 
ATOM     12  C   UNL     1       6.452   3.797  12.545  0.00  0.00    +0.000 A 
ATOM     13  C   UNL     1       7.605   4.562  12.601  0.00  0.00    +0.000 A 
ATOM     14  N   UNL     1       7.901   5.390  13.625  0.00  0.00    +0.000 NA
ATOM     15  C   UNL     1       7.007   5.432  14.648  0.00  0.00    +0.000 A 
ENDBRANCH   5  10
BRANCH   1  17
ATOM     16  C   UNL     1       3.851   1.027  18.677  0.00  0.00    +0.000 C 
ATOM     17  C   UNL     1       2.877   1.939  17.937  0.00  0.00    +0.000 C 
ENDBRANCH   1  17
BRANCH   8  18
ATOM     18  C   UNL     1       2.615   6.551  19.366  0.00  0.00    +0.000 C 
BRANCH  18  19
ATOM     19  C   UNL     1       1.980   7.924  19.310  0.00  0.00    +0.000 A 
ATOM     20  C   UNL     1       1.983   8.663  18.116  0.00  0.00    +0.000 A 
ATOM     21  C   UNL     1       1.346   9.903  18.053  0.00  0.00    +0.000 A 
ATOM     22  C   UNL     1       0.720  10.412  19.185  0.00  0.00    +0.000 A 
ATOM     23  F   UNL     1       0.100  11.598  19.117  0.00  0.00    +0.000 F 
ATOM     24  C   UNL     1       0.726   9.709  20.383  0.00  0.00    +0.000 A 
ATOM     25  C   UNL     1       1.362   8.467  20.449  0.00  0.00    +0.000 A 
ENDBRANCH  18  19
ENDBRANCH   8  18
TORSDOF 4
ENDMDL
MODEL 9
REMARK VINA RESULT:      -7.4      2.236      2.707
REMARK  Name = 
REMARK  5 active torsions:
REMARK  status: ('A' for Active; 'I' for Inactive)
REMARK    1  A    between atoms: C_1  and  C_2
REMARK    2  A    between atoms: C_2  and  C_3
REMARK    3  A    between atoms: C_7  and  C_8
REMARK    4  A    between atoms: N_16  and  C_17
REMARK    5  A    between atoms: C_17  and  C_18
REMARK                            x       y       z     vdW  Elec       q    Type
REMARK                         _______ _______ _______ _____ _____    ______ ____
ROOT
ATOM      1  C   UNL     1       2.891   4.277  20.289  0.00  0.00    +0.000 C 
ATOM      2  O   UNL     1       3.584   3.535  19.610  0.00  0.00    +0.000 OA
ATOM      3  N   UNL     1       2.667   5.627  19.912  0.00  0.00    +0.000 N 
ATOM      4  N   UNL     1       1.884   6.430  20.708  0.00  0.00    +0.000 NA
ATOM      5  C   UNL     1       1.861   7.594  20.048  0.00  0.00    +0.000 A 
ATOM      6  N   UNL     1       2.604   7.595  18.906  0.00  0.00    +0.000 NA
ATOM      7  C   UNL     1       3.094   6.383  18.805  0.00  0.00    +0.000 A 
ATOM      8  N   UNL     1       3.830   6.029  17.720  0.00  0.00    +0.000 N 
ATOM      9  H   UNL     1       4.025   6.816  17.100  0.00  0.00    +0.000 HD
ENDROOT
BRANCH   5  10
ATOM     10  C   UNL     1       1.078   8.762  20.433  0.00  0.00    +0.000 A 
ATOM     11  C   UNL     1       0.476   8.884  21.687  0.00  0.00    +0.000 A 
ATOM     12  C   UNL     1      -0.324   9.992  21.970  0.00  0.00    +0.000 A 
ATOM     13  C   UNL     1      -0.495  10.954  20.989  0.00  0.00    +0.000 A 
ATOM     14  N   UNL     1       0.086  10.889  19.773  0.00  0.00    +0.000 NA
ATOM     15  C   UNL     1       0.856   9.796  19.526  0.00  0.00    +0.000 A 
ENDBRANCH   5  10
BRANCH   1  17
ATOM     16  C   UNL     1       1.446   2.507  21.407  0.00  0.00    +0.000 C 
ATOM     17  C   UNL     1       2.177   3.837  21.559  0.00  0.00    +0.000 C 
ENDBRANCH   1  17
BRANCH   8  18
ATOM     18  C   UNL     1       4.892   5.050  17.746  0.00  0.00    +0.000 C 
BRANCH  18  19
ATOM     19  C   UNL     1       5.519   4.903  16.377  0.00  0.00    +0.000 A 
ATOM     20  C   UNL     1       6.823   5.365  16.136  0.00  0.00    +0.000 A 
ATOM     21  C   UNL     1       7.420   5.176  14.889  0.00  0.00    +0.000 A 
ATOM     22  C   UNL     1       6.709   4.540  13.878  0.00  0.00    +0.000 A 
ATOM     23  F   UNL     1       7.289   4.349  12.685  0.00  0.00    +0.000 F 
ATOM     24  C   UNL     1       5.409   4.096  14.086  0.00  0.00    +0.000 A 
ATOM     25  C   UNL     1       4.810   4.283  15.333  0.00  0.00    +0.000 A 
ENDBRANCH  18  19
ENDBRANCH   8  18
TORSDOF 4
ENDMDL
