MODEL 1
REMARK VINA RESULT:      -9.0      0.000      0.000
REMARK  Name = 
REMARK  8 active torsions:
REMARK  status: ('A' for Active; 'I' for Inactive)
REMARK    1  A    between atoms: N_2  and  C_4
REMARK    2  A    between atoms: C_10  and  S_11
REMARK    3  A    between atoms: S_11  and  C_12
REMARK    4  A    between atoms: C_12  and  C_13
REMARK    5  A    between atoms: C_16  and  C_17
REMARK    6  A    between atoms: C_17  and  S_18
REMARK    7  A    between atoms: S_18  and  C_19
REMARK    8  A    between atoms: C_22  and  N_23
REMARK                            x       y       z     vdW  Elec       q    Type
REMARK                         _______ _______ _______ _____ _____    ______ ____
ROOT
ATOM      1  C   UNL     1      -0.587  10.376  22.209  0.00  0.00    +0.000 A 
ATOM      2  C   UNL     1      -0.408   8.999  22.399  0.00  0.00    +0.000 A 
ATOM      3  C   UNL     1       0.403   8.254  21.537  0.00  0.00    +0.000 A 
ATOM      4  C   UNL     1       1.026   8.854  20.434  0.00  0.00    +0.000 A 
ATOM      5  C   UNL     1       0.831  10.228  20.229  0.00  0.00    +0.000 A 
ATOM      6  C   UNL     1       0.033  10.978  21.104  0.00  0.00    +0.000 A 
ENDROOT
BRANCH   1   7
ATOM      7  C   UNL     1      -1.450  11.186  23.156  0.00  0.00    +0.000 C 
BRANCH   7   8
ATOM      8  S   UNL     1      -1.753  12.877  22.543  0.00  0.00    +0.000 S 
BRANCH   8  15
ATOM      9  C   UNL     1      -6.886  12.438  22.130  0.00  0.00    +0.000 A 
ATOM     10  C   UNL     1      -7.782  12.387  21.054  0.00  0.00    +0.000 A 
ATOM     11  C   UNL     1      -7.284  12.463  19.749  0.00  0.00    +0.000 A 
ATOM     12  C   UNL     1      -5.907  12.582  19.499  0.00  0.00    +0.000 A 
ATOM     13  C   UNL     1      -5.072  12.624  20.616  0.00  0.00    +0.000 A 
ATOM     14  O   UNL     1      -3.712  12.738  20.640  0.00  0.00    +0.000 OA
ATOM     15  C   UNL     1      -3.393  12.732  21.977  0.00  0.00    +0.000 A 
ATOM     16  N   UNL     1      -4.433  12.612  22.778  0.00  0.00    +0.000 NA
ATOM     17  C   UNL     1      -5.510  12.555  21.930  0.00  0.00    +0.000 A 
BRANCH   9  19
ATOM     18  O   UNL     1      -7.522  13.426  24.082  0.00  0.00    +0.000 OA
ATOM     19  N   UNL     1      -7.351  12.355  23.485  0.00  0.00    +0.000 N 
ATOM     20  O   UNL     1      -7.496  11.227  23.973  0.00  0.00    +0.000 OA
ENDBRANCH   9  19
ENDBRANCH   8  15
ENDBRANCH   7   8
ENDBRANCH   1   7
BRANCH   4  21
ATOM     21  C   UNL     1       1.917   8.046  19.513  0.00  0.00    +0.000 C 
BRANCH  21  22
ATOM     22  S   UNL     1       2.005   6.290  20.000  0.00  0.00    +0.000 S 
BRANCH  22  23
ATOM     23  C   UNL     1       3.366   5.762  19.053  0.00  0.00    +0.000 A 
ATOM     24  N   UNL     1       4.620   5.957  19.407  0.00  0.00    +0.000 NA
ATOM     25  C   UNL     1       5.363   5.400  18.392  0.00  0.00    +0.000 A 
ATOM     26  C   UNL     1       6.739   5.272  18.156  0.00  0.00    +0.000 A 
ATOM     27  C   UNL     1       7.195   4.628  16.986  0.00  0.00    +0.000 A 
ATOM     28  C   UNL     1       6.279   4.117  16.061  0.00  0.00    +0.000 A 
ATOM     29  C   UNL     1       4.897   4.229  16.269  0.00  0.00    +0.000 A 
ATOM     30  C   UNL     1       4.499   4.874  17.439  0.00  0.00    +0.000 A 
ATOM     31  O   UNL     1       3.222   5.102  17.858  0.00  0.00    +0.000 OA
BRANCH  26  32
ATOM     32  N   UNL     1       7.687   5.806  19.123  0.00  0.00    +0.000 N 
ATOM     33  O   UNL     1       7.847   5.217  20.201  0.00  0.00    +0.000 OA
ATOM     34  O   UNL     1       8.290   6.841  18.807  0.00  0.00    +0.000 OA
ENDBRANCH  26  32
ENDBRANCH  22  23
ENDBRANCH  21  22
ENDBRANCH   4  21
TORSDOF 8
ENDMDL
MODEL 2
REMARK VINA RESULT:      -8.8      3.451     11.771
REMARK  Name = 
REMARK  8 active torsions:
REMARK  status: ('A' for Active; 'I' for Inactive)
REMARK    1  A    between atoms: N_2  and  C_4
REMARK    2  A    between atoms: C_10  and  S_11
REMARK    3  A    between atoms: S_11  and  C_12
REMARK    4  A    between atoms: C_12  and  C_13
REMARK    5  A    between atoms: C_16  and  C_17
REMARK    6  A    between atoms: C_17  and  S_18
REMARK    7  A    between atoms: S_18  and  C_19
REMARK    8  A    between atoms: C_22  and  N_23
REMARK                            x       y       z     vdW  Elec       q    Type
REMARK                         _______ _______ _______ _____ _____    ______ ____
ROOT
ATOM      1  C   UNL     1       2.013   3.789  18.676  0.00  0.00    +0.000 A 
ATOM      2  C   UNL     1       2.014   4.849  17.759  0.00  0.00    +0.000 A 
ATOM      3  C   UNL     1       2.020   6.177  18.197  0.00  0.00    +0.000 A 
ATOM      4  C   UNL     1       1.981   6.487  19.563  0.00  0.00    +0.000 A 
ATOM      5  C   UNL     1       1.959   5.429  20.483  0.00  0.00    +0.000 A 
ATOM      6  C   UNL     1       1.972   4.097  20.044  0.00  0.00    +0.000 A 
ENDROOT
BRANCH   1   7
ATOM      7  C   UNL     1       2.029   2.350  18.201  0.00  0.00    +0.000 C 
BRANCH   7   8
ATOM      8  S   UNL     1       3.653   1.556  18.448  0.00  0.00    +0.000 S 
BRANCH   8  15
ATOM      9  C   UNL     1       6.586   5.331  16.485  0.00  0.00    +0.000 A 
ATOM     10  C   UNL     1       7.372   6.349  17.039  0.00  0.00    +0.000 A 
ATOM     11  C   UNL     1       7.456   6.465  18.430  0.00  0.00    +0.000 A 
ATOM     12  C   UNL     1       6.775   5.577  19.279  0.00  0.00    +0.000 A 
ATOM     13  C   UNL     1       6.012   4.585  18.660  0.00  0.00    +0.000 A 
ATOM     14  O   UNL     1       5.262   3.613  19.257  0.00  0.00    +0.000 OA
ATOM     15  C   UNL     1       4.721   2.908  18.208  0.00  0.00    +0.000 A 
ATOM     16  N   UNL     1       5.082   3.351  17.019  0.00  0.00    +0.000 NA
ATOM     17  C   UNL     1       5.891   4.426  17.289  0.00  0.00    +0.000 A 
BRANCH   9  19
ATOM     18  O   UNL     1       7.533   5.212  14.416  0.00  0.00    +0.000 OA
ATOM     19  N   UNL     1       6.478   5.168  15.063  0.00  0.00    +0.000 N 
ATOM     20  O   UNL     1       5.343   5.050  14.584  0.00  0.00    +0.000 OA
ENDBRANCH   9  19
ENDBRANCH   8  15
ENDBRANCH   7   8
ENDBRANCH   1   7
BRANCH   4  21
ATOM     21  C   UNL     1       2.004   7.928  20.031  0.00  0.00    +0.000 C 
BRANCH  21  22
ATOM     22  S   UNL     1       1.855   9.109  18.649  0.00  0.00    +0.000 S 
BRANCH  22  23
ATOM     23  C   UNL     1       0.543  10.101  19.214  0.00  0.00    +0.000 A 
ATOM     24  N   UNL     1       0.407  10.486  20.466  0.00  0.00    +0.000 NA
ATOM     25  C   UNL     1      -0.746  11.236  20.482  0.00  0.00    +0.000 A 
ATOM     26  C   UNL     1      -1.442  11.924  21.486  0.00  0.00    +0.000 A 
ATOM     27  C   UNL     1      -2.629  12.618  21.170  0.00  0.00    +0.000 A 
ATOM     28  C   UNL     1      -3.115  12.622  19.858  0.00  0.00    +0.000 A 
ATOM     29  C   UNL     1      -2.441  11.945  18.832  0.00  0.00    +0.000 A 
ATOM     30  C   UNL     1      -1.275  11.274  19.197  0.00  0.00    +0.000 A 
ATOM     31  O   UNL     1      -0.454  10.551  18.384  0.00  0.00    +0.000 OA
BRANCH  26  32
ATOM     32  N   UNL     1      -0.931  11.916  22.849  0.00  0.00    +0.000 N 
ATOM     33  O   UNL     1      -0.860  10.842  23.462  0.00  0.00    +0.000 OA
ATOM     34  O   UNL     1      -0.589  13.007  23.327  0.00  0.00    +0.000 OA
ENDBRANCH  26  32
ENDBRANCH  22  23
ENDBRANCH  21  22
ENDBRANCH   4  21
TORSDOF 8
ENDMDL
MODEL 3
REMARK VINA RESULT:      -8.8      3.558     11.811
REMARK  Name = 
REMARK  8 active torsions:
REMARK  status: ('A' for Active; 'I' for Inactive)
REMARK    1  A    between atoms: N_2  and  C_4
REMARK    2  A    between atoms: C_10  and  S_11
REMARK    3  A    between atoms: S_11  and  C_12
REMARK    4  A    between atoms: C_12  and  C_13
REMARK    5  A    between atoms: C_16  and  C_17
REMARK    6  A    between atoms: C_17  and  S_18
REMARK    7  A    between atoms: S_18  and  C_19
REMARK    8  A    between atoms: C_22  and  N_23
REMARK                            x       y       z     vdW  Elec       q    Type
REMARK                         _______ _______ _______ _____ _____    ______ ____
ROOT
ATOM      1  C   UNL     1       1.931   4.354  18.742  0.00  0.00    +0.000 A 
ATOM      2  C   UNL     1       2.134   5.469  17.917  0.00  0.00    +0.000 A 
ATOM      3  C   UNL     1       2.115   6.764  18.442  0.00  0.00    +0.000 A 
ATOM      4  C   UNL     1       1.850   6.989  19.800  0.00  0.00    +0.000 A 
ATOM      5  C   UNL     1       1.626   5.877  20.624  0.00  0.00    +0.000 A 
ATOM      6  C   UNL     1       1.663   4.577  20.101  0.00  0.00    +0.000 A 
ENDROOT
BRANCH   1   7
ATOM      7  C   UNL     1       1.972   2.949  18.175  0.00  0.00    +0.000 C 
BRANCH   7   8
ATOM      8  S   UNL     1       3.516   2.075  18.600  0.00  0.00    +0.000 S 
BRANCH   8  15
ATOM      9  C   UNL     1       6.528   5.826  16.713  0.00  0.00    +0.000 A 
ATOM     10  C   UNL     1       7.508   6.665  17.261  0.00  0.00    +0.000 A 
ATOM     11  C   UNL     1       7.824   6.548  18.617  0.00  0.00    +0.000 A 
ATOM     12  C   UNL     1       7.186   5.602  19.437  0.00  0.00    +0.000 A 
ATOM     13  C   UNL     1       6.222   4.798  18.826  0.00  0.00    +0.000 A 
ATOM     14  O   UNL     1       5.466   3.817  19.400  0.00  0.00    +0.000 OA
ATOM     15  C   UNL     1       4.686   3.344  18.372  0.00  0.00    +0.000 A 
ATOM     16  N   UNL     1       4.903   3.936  17.214  0.00  0.00    +0.000 NA
ATOM     17  C   UNL     1       5.868   4.873  17.488  0.00  0.00    +0.000 A 
BRANCH   9  19
ATOM     18  O   UNL     1       5.208   6.619  15.034  0.00  0.00    +0.000 OA
ATOM     19  N   UNL     1       6.178   5.905  15.323  0.00  0.00    +0.000 N 
ATOM     20  O   UNL     1       6.831   5.219  14.528  0.00  0.00    +0.000 OA
ENDBRANCH   9  19
ENDBRANCH   8  15
ENDBRANCH   7   8
ENDBRANCH   1   7
BRANCH   4  21
ATOM     21  C   UNL     1       1.849   8.394  20.366  0.00  0.00    +0.000 C 
BRANCH  21  22
ATOM     22  S   UNL     1       1.023   8.486  21.991  0.00  0.00    +0.000 S 
BRANCH  22  23
ATOM     23  C   UNL     1       0.122   9.962  21.810  0.00  0.00    +0.000 A 
ATOM     24  N   UNL     1      -0.436  10.342  20.679  0.00  0.00    +0.000 NA
ATOM     25  C   UNL     1      -1.034  11.547  20.968  0.00  0.00    +0.000 A 
ATOM     26  C   UNL     1      -1.781  12.464  20.215  0.00  0.00    +0.000 A 
ATOM     27  C   UNL     1      -2.267  13.641  20.822  0.00  0.00    +0.000 A 
ATOM     28  C   UNL     1      -2.007  13.897  22.172  0.00  0.00    +0.000 A 
ATOM     29  C   UNL     1      -1.264  12.999  22.951  0.00  0.00    +0.000 A 
ATOM     30  C   UNL     1      -0.806  11.853  22.304  0.00  0.00    +0.000 A 
ATOM     31  O   UNL     1      -0.069  10.842  22.846  0.00  0.00    +0.000 OA
BRANCH  26  32
ATOM     32  N   UNL     1      -2.048  12.191  18.810  0.00  0.00    +0.000 N 
ATOM     33  O   UNL     1      -3.109  11.635  18.494  0.00  0.00    +0.000 OA
ATOM     34  O   UNL     1      -1.182  12.537  17.996  0.00  0.00    +0.000 OA
ENDBRANCH  26  32
ENDBRANCH  22  23
ENDBRANCH  21  22
ENDBRANCH   4  21
TORSDOF 8
ENDMDL
MODEL 4
REMARK VINA RESULT:      -8.7      3.319     11.693
REMARK  Name = 
REMARK  8 active torsions:
REMARK  status: ('A' for Active; 'I' for Inactive)
REMARK    1  A    between atoms: N_2  and  C_4
REMARK    2  A    between atoms: C_10  and  S_11
REMARK    3  A    between atoms: S_11  and  C_12
REMARK    4  A    between atoms: C_12  and  C_13
REMARK    5  A    between atoms: C_16  and  C_17
REMARK    6  A    between atoms: C_17  and  S_18
REMARK    7  A    between atoms: S_18  and  C_19
REMARK    8  A    between atoms: C_22  and  N_23
REMARK                            x       y       z     vdW  Elec       q    Type
REMARK                         _______ _______ _______ _____ _____    ______ ____
ROOT
ATOM      1  C   UNL     1       1.963   4.253  18.876  0.00  0.00    +0.000 A 
ATOM      2  C   UNL     1       2.055   5.238  17.884  0.00  0.00    +0.000 A 
ATOM      3  C   UNL     1       2.012   6.596  18.213  0.00  0.00    +0.000 A 
ATOM      4  C   UNL     1       1.831   7.012  19.540  0.00  0.00    +0.000 A 
ATOM      5  C   UNL     1       1.719   6.028  20.533  0.00  0.00    +0.000 A 
ATOM      6  C   UNL     1       1.781   4.666  20.205  0.00  0.00    +0.000 A 
ENDROOT
BRANCH   1   7
ATOM      7  C   UNL     1       2.032   2.781  18.520  0.00  0.00    +0.000 C 
BRANCH   7   8
ATOM      8  S   UNL     1       3.602   2.014  19.044  0.00  0.00    +0.000 S 
BRANCH   8  15
ATOM      9  C   UNL     1       6.452   5.647  16.723  0.00  0.00    +0.000 A 
ATOM     10  C   UNL     1       7.430   6.551  17.157  0.00  0.00    +0.000 A 
ATOM     11  C   UNL     1       7.798   6.561  18.506  0.00  0.00    +0.000 A 
ATOM     12  C   UNL     1       7.213   5.678  19.429  0.00  0.00    +0.000 A 
ATOM     13  C   UNL     1       6.248   4.803  18.928  0.00  0.00    +0.000 A 
ATOM     14  O   UNL     1       5.537   3.860  19.614  0.00  0.00    +0.000 OA
ATOM     15  C   UNL     1       4.732   3.282  18.661  0.00  0.00    +0.000 A 
ATOM     16  N   UNL     1       4.893   3.774  17.449  0.00  0.00    +0.000 NA
ATOM     17  C   UNL     1       5.843   4.752  17.603  0.00  0.00    +0.000 A 
BRANCH   9  19
ATOM     18  O   UNL     1       6.603   4.745  14.636  0.00  0.00    +0.000 OA
ATOM     19  N   UNL     1       6.050   5.596  15.346  0.00  0.00    +0.000 N 
ATOM     20  O   UNL     1       5.225   6.432  14.959  0.00  0.00    +0.000 OA
ENDBRANCH   9  19
ENDBRANCH   8  15
ENDBRANCH   7   8
ENDBRANCH   1   7
BRANCH   4  21
ATOM     21  C   UNL     1       1.802   8.485  19.892  0.00  0.00    +0.000 C 
BRANCH  21  22
ATOM     22  S   UNL     1       1.831   9.553  18.413  0.00  0.00    +0.000 S 
BRANCH  22  23
ATOM     23  C   UNL     1       0.178  10.093  18.376  0.00  0.00    +0.000 A 
ATOM     24  N   UNL     1      -0.309  11.007  19.190  0.00  0.00    +0.000 NA
ATOM     25  C   UNL     1      -1.632  11.130  18.832  0.00  0.00    +0.000 A 
ATOM     26  C   UNL     1      -2.694  11.918  19.298  0.00  0.00    +0.000 A 
ATOM     27  C   UNL     1      -3.967  11.807  18.700  0.00  0.00    +0.000 A 
ATOM     28  C   UNL     1      -4.174  10.913  17.645  0.00  0.00    +0.000 A 
ATOM     29  C   UNL     1      -3.133  10.112  17.156  0.00  0.00    +0.000 A 
ATOM     30  C   UNL     1      -1.895  10.259  17.782  0.00  0.00    +0.000 A 
ATOM     31  O   UNL     1      -0.741   9.595  17.486  0.00  0.00    +0.000 OA
BRANCH  26  32
ATOM     32  N   UNL     1      -2.470  12.847  20.396  0.00  0.00    +0.000 N 
ATOM     33  O   UNL     1      -1.869  13.908  20.178  0.00  0.00    +0.000 OA
ATOM     34  O   UNL     1      -2.902  12.516  21.509  0.00  0.00    +0.000 OA
ENDBRANCH  26  32
ENDBRANCH  22  23
ENDBRANCH  21  22
ENDBRANCH   4  21
TORSDOF 8
ENDMDL
MODEL 5
REMARK VINA RESULT:      -8.7      4.398      5.636
REMARK  Name = 
REMARK  8 active torsions:
REMARK  status: ('A' for Active; 'I' for Inactive)
REMARK    1  A    between atoms: N_2  and  C_4
REMARK    2  A    between atoms: C_10  and  S_11
REMARK    3  A    between atoms: S_11  and  C_12
REMARK    4  A    between atoms: C_12  and  C_13
REMARK    5  A    between atoms: C_16  and  C_17
REMARK    6  A    between atoms: C_17  and  S_18
REMARK    7  A    between atoms: S_18  and  C_19
REMARK    8  A    between atoms: C_22  and  N_23
REMARK                            x       y       z     vdW  Elec       q    Type
REMARK                         _______ _______ _______ _____ _____    ______ ____
ROOT
ATOM      1  C   UNL     1       1.837   6.780  20.179  0.00  0.00    +0.000 A 
ATOM      2  C   UNL     1       1.535   5.618  20.902  0.00  0.00    +0.000 A 
ATOM      3  C   UNL     1       1.505   4.369  20.274  0.00  0.00    +0.000 A 
ATOM      4  C   UNL     1       1.733   4.249  18.896  0.00  0.00    +0.000 A 
ATOM      5  C   UNL     1       2.017   5.413  18.167  0.00  0.00    +0.000 A 
ATOM      6  C   UNL     1       2.065   6.663  18.800  0.00  0.00    +0.000 A 
ENDROOT
BRANCH   1   7
ATOM      7  C   UNL     1       1.890   8.131  20.866  0.00  0.00    +0.000 C 
BRANCH   7   8
ATOM      8  S   UNL     1       0.237   8.721  21.364  0.00  0.00    +0.000 S 
BRANCH   8  15
ATOM      9  C   UNL     1       1.229  13.686  20.330  0.00  0.00    +0.000 A 
ATOM     10  C   UNL     1       0.738  14.610  19.398  0.00  0.00    +0.000 A 
ATOM     11  C   UNL     1      -0.246  14.206  18.492  0.00  0.00    +0.000 A 
ATOM     12  C   UNL     1      -0.757  12.897  18.504  0.00  0.00    +0.000 A 
ATOM     13  C   UNL     1      -0.226  12.030  19.460  0.00  0.00    +0.000 A 
ATOM     14  O   UNL     1      -0.549  10.721  19.672  0.00  0.00    +0.000 OA
ATOM     15  C   UNL     1       0.257  10.337  20.719  0.00  0.00    +0.000 A 
ATOM     16  N   UNL     1       1.036  11.297  21.178  0.00  0.00    +0.000 NA
ATOM     17  C   UNL     1       0.752  12.376  20.380  0.00  0.00    +0.000 A 
BRANCH   9  19
ATOM     18  O   UNL     1       1.840  14.627  22.314  0.00  0.00    +0.000 OA
ATOM     19  N   UNL     1       2.233  14.060  21.285  0.00  0.00    +0.000 N 
ATOM     20  O   UNL     1       3.414  13.837  20.992  0.00  0.00    +0.000 OA
ENDBRANCH   9  19
ENDBRANCH   8  15
ENDBRANCH   7   8
ENDBRANCH   1   7
BRANCH   4  21
ATOM     21  C   UNL     1       1.717   2.891  18.224  0.00  0.00    +0.000 C 
BRANCH  21  22
ATOM     22  S   UNL     1       3.243   1.942  18.540  0.00  0.00    +0.000 S 
BRANCH  22  23
ATOM     23  C   UNL     1       4.443   3.183  18.324  0.00  0.00    +0.000 A 
ATOM     24  N   UNL     1       4.773   3.681  17.150  0.00  0.00    +0.000 NA
ATOM     25  C   UNL     1       5.746   4.614  17.424  0.00  0.00    +0.000 A 
ATOM     26  C   UNL     1       6.505   5.486  16.630  0.00  0.00    +0.000 A 
ATOM     27  C   UNL     1       7.449   6.344  17.232  0.00  0.00    +0.000 A 
ATOM     28  C   UNL     1       7.630   6.329  18.619  0.00  0.00    +0.000 A 
ATOM     29  C   UNL     1       6.886   5.470  19.440  0.00  0.00    +0.000 A 
ATOM     30  C   UNL     1       5.968   4.642  18.795  0.00  0.00    +0.000 A 
ATOM     31  O   UNL     1       5.137   3.730  19.374  0.00  0.00    +0.000 OA
BRANCH  26  32
ATOM     32  N   UNL     1       6.310   5.497  15.187  0.00  0.00    +0.000 N 
ATOM     33  O   UNL     1       5.489   6.283  14.694  0.00  0.00    +0.000 OA
ATOM     34  O   UNL     1       6.989   4.702  14.523  0.00  0.00    +0.000 OA
ENDBRANCH  26  32
ENDBRANCH  22  23
ENDBRANCH  21  22
ENDBRANCH   4  21
TORSDOF 8
ENDMDL
MODEL 6
REMARK VINA RESULT:      -8.7      4.052      5.401
REMARK  Name = 
REMARK  8 active torsions:
REMARK  status: ('A' for Active; 'I' for Inactive)
REMARK    1  A    between atoms: N_2  and  C_4
REMARK    2  A    between atoms: C_10  and  S_11
REMARK    3  A    between atoms: S_11  and  C_12
REMARK    4  A    between atoms: C_12  and  C_13
REMARK    5  A    between atoms: C_16  and  C_17
REMARK    6  A    between atoms: C_17  and  S_18
REMARK    7  A    between atoms: S_18  and  C_19
REMARK    8  A    between atoms: C_22  and  N_23
REMARK                            x       y       z     vdW  Elec       q    Type
REMARK                         _______ _______ _______ _____ _____    ______ ____
ROOT
ATOM      1  C   UNL     1       1.729   6.627  20.055  0.00  0.00    +0.000 A 
ATOM      2  C   UNL     1       2.144   6.465  18.727  0.00  0.00    +0.000 A 
ATOM      3  C   UNL     1       2.173   5.200  18.132  0.00  0.00    +0.000 A 
ATOM      4  C   UNL     1       1.829   4.053  18.860  0.00  0.00    +0.000 A 
ATOM      5  C   UNL     1       1.433   4.209  20.196  0.00  0.00    +0.000 A 
ATOM      6  C   UNL     1       1.386   5.480  20.787  0.00  0.00    +0.000 A 
ENDROOT
BRANCH   1   7
ATOM      7  C   UNL     1       1.678   8.002  20.692  0.00  0.00    +0.000 C 
BRANCH   7   8
ATOM      8  S   UNL     1       1.244   9.306  19.493  0.00  0.00    +0.000 S 
BRANCH   8  15
ATOM      9  C   UNL     1      -0.014  13.611  22.060  0.00  0.00    +0.000 A 
ATOM     10  C   UNL     1      -0.987  13.934  23.015  0.00  0.00    +0.000 A 
ATOM     11  C   UNL     1      -1.875  12.943  23.445  0.00  0.00    +0.000 A 
ATOM     12  C   UNL     1      -1.803  11.632  22.945  0.00  0.00    +0.000 A 
ATOM     13  C   UNL     1      -0.808  11.379  21.999  0.00  0.00    +0.000 A 
ATOM     14  O   UNL     1      -0.537  10.201  21.365  0.00  0.00    +0.000 OA
ATOM     15  C   UNL     1       0.526  10.493  20.543  0.00  0.00    +0.000 A 
ATOM     16  N   UNL     1       0.941  11.742  20.625  0.00  0.00    +0.000 NA
ATOM     17  C   UNL     1       0.095  12.323  21.535  0.00  0.00    +0.000 A 
BRANCH   9  19
ATOM     18  O   UNL     1       1.922  14.789  22.303  0.00  0.00    +0.000 OA
ATOM     19  N   UNL     1       0.924  14.594  21.596  0.00  0.00    +0.000 N 
ATOM     20  O   UNL     1       0.644  15.209  20.560  0.00  0.00    +0.000 OA
ENDBRANCH   9  19
ENDBRANCH   8  15
ENDBRANCH   7   8
ENDBRANCH   1   7
BRANCH   4  21
ATOM     21  C   UNL     1       1.845   2.687  18.205  0.00  0.00    +0.000 C 
BRANCH  21  22
ATOM     22  S   UNL     1       3.403   1.788  18.514  0.00  0.00    +0.000 S 
BRANCH  22  23
ATOM     23  C   UNL     1       4.561   3.064  18.278  0.00  0.00    +0.000 A 
ATOM     24  N   UNL     1       4.961   3.477  17.092  0.00  0.00    +0.000 NA
ATOM     25  C   UNL     1       5.868   4.477  17.354  0.00  0.00    +0.000 A 
ATOM     26  C   UNL     1       6.649   5.315  16.545  0.00  0.00    +0.000 A 
ATOM     27  C   UNL     1       7.505   6.267  17.138  0.00  0.00    +0.000 A 
ATOM     28  C   UNL     1       7.577   6.379  18.530  0.00  0.00    +0.000 A 
ATOM     29  C   UNL     1       6.809   5.557  19.366  0.00  0.00    +0.000 A 
ATOM     30  C   UNL     1       5.981   4.633  18.731  0.00  0.00    +0.000 A 
ATOM     31  O   UNL     1       5.147   3.732  19.325  0.00  0.00    +0.000 OA
BRANCH  26  32
ATOM     32  N   UNL     1       6.567   5.193  15.096  0.00  0.00    +0.000 N 
ATOM     33  O   UNL     1       5.483   4.897  14.575  0.00  0.00    +0.000 OA
ATOM     34  O   UNL     1       7.608   5.396  14.456  0.00  0.00    +0.000 OA
ENDBRANCH  26  32
ENDBRANCH  22  23
ENDBRANCH  21  22
ENDBRANCH   4  21
TORSDOF 8
ENDMDL
MODEL 7
REMARK VINA RESULT:      -8.7      3.116      4.248
REMARK  Name = 
REMARK  8 active torsions:
REMARK  status: ('A' for Active; 'I' for Inactive)
REMARK    1  A    between atoms: N_2  and  C_4
REMARK    2  A    between atoms: C_10  and  S_11
REMARK    3  A    between atoms: S_11  and  C_12
REMARK    4  A    between atoms: C_12  and  C_13
REMARK    5  A    between atoms: C_16  and  C_17
REMARK    6  A    between atoms: C_17  and  S_18
REMARK    7  A    between atoms: S_18  and  C_19
REMARK    8  A    between atoms: C_22  and  N_23
REMARK                            x       y       z     vdW  Elec       q    Type
REMARK                         _______ _______ _______ _____ _____    ______ ____
ROOT
ATOM      1  C   UNL     1       1.852   7.223  19.576  0.00  0.00    +0.000 A 
ATOM      2  C   UNL     1       1.690   6.445  20.730  0.00  0.00    +0.000 A 
ATOM      3  C   UNL     1       1.716   5.048  20.664  0.00  0.00    +0.000 A 
ATOM      4  C   UNL     1       1.861   4.386  19.437  0.00  0.00    +0.000 A 
ATOM      5  C   UNL     1       2.002   5.162  18.278  0.00  0.00    +0.000 A 
ATOM      6  C   UNL     1       1.995   6.563  18.346  0.00  0.00    +0.000 A 
ENDROOT
BRANCH   1   7
ATOM      7  C   UNL     1       1.845   8.737  19.651  0.00  0.00    +0.000 C 
BRANCH   7   8
ATOM      8  S   UNL     1       1.625   9.512  18.015  0.00  0.00    +0.000 S 
BRANCH   8  15
ATOM      9  C   UNL     1      -2.736  11.965  19.308  0.00  0.00    +0.000 A 
ATOM     10  C   UNL     1      -4.057  11.928  18.841  0.00  0.00    +0.000 A 
ATOM     11  C   UNL     1      -4.383  11.067  17.790  0.00  0.00    +0.000 A 
ATOM     12  C   UNL     1      -3.417  10.235  17.199  0.00  0.00    +0.000 A 
ATOM     13  C   UNL     1      -2.123  10.321  17.715  0.00  0.00    +0.000 A 
ATOM     14  O   UNL     1      -1.017   9.628  17.316  0.00  0.00    +0.000 OA
ATOM     15  C   UNL     1      -0.014  10.084  18.139  0.00  0.00    +0.000 A 
ATOM     16  N   UNL     1      -0.408  10.985  19.018  0.00  0.00    +0.000 NA
ATOM     17  C   UNL     1      -1.743  11.158  18.752  0.00  0.00    +0.000 A 
BRANCH   9  19
ATOM     18  O   UNL     1      -1.748  13.864  20.091  0.00  0.00    +0.000 OA
ATOM     19  N   UNL     1      -2.357  12.827  20.391  0.00  0.00    +0.000 N 
ATOM     20  O   UNL     1      -2.617  12.451  21.540  0.00  0.00    +0.000 OA
ENDBRANCH   9  19
ENDBRANCH   8  15
ENDBRANCH   7   8
ENDBRANCH   1   7
BRANCH   4  21
ATOM     21  C   UNL     1       1.906   2.873  19.374  0.00  0.00    +0.000 C 
BRANCH  21  22
ATOM     22  S   UNL     1       3.563   2.212  19.756  0.00  0.00    +0.000 S 
BRANCH  22  23
ATOM     23  C   UNL     1       4.538   3.132  18.648  0.00  0.00    +0.000 A 
ATOM     24  N   UNL     1       5.487   3.963  19.028  0.00  0.00    +0.000 NA
ATOM     25  C   UNL     1       5.995   4.477  17.858  0.00  0.00    +0.000 A 
ATOM     26  C   UNL     1       7.009   5.401  17.563  0.00  0.00    +0.000 A 
ATOM     27  C   UNL     1       7.296   5.725  16.221  0.00  0.00    +0.000 A 
ATOM     28  C   UNL     1       6.575   5.128  15.181  0.00  0.00    +0.000 A 
ATOM     29  C   UNL     1       5.557   4.201  15.443  0.00  0.00    +0.000 A 
ATOM     30  C   UNL     1       5.311   3.916  16.786  0.00  0.00    +0.000 A 
ATOM     31  O   UNL     1       4.380   3.055  17.286  0.00  0.00    +0.000 OA
BRANCH  26  32
ATOM     32  N   UNL     1       7.756   6.017  18.650  0.00  0.00    +0.000 N 
ATOM     33  O   UNL     1       8.012   5.350  19.663  0.00  0.00    +0.000 OA
ATOM     34  O   UNL     1       8.100   7.197  18.497  0.00  0.00    +0.000 OA
ENDBRANCH  26  32
ENDBRANCH  22  23
ENDBRANCH  21  22
ENDBRANCH   4  21
TORSDOF 8
ENDMDL
MODEL 8
REMARK VINA RESULT:      -8.6      2.175      2.863
REMARK  Name = 
REMARK  8 active torsions:
REMARK  status: ('A' for Active; 'I' for Inactive)
REMARK    1  A    between atoms: N_2  and  C_4
REMARK    2  A    between atoms: C_10  and  S_11
REMARK    3  A    between atoms: S_11  and  C_12
REMARK    4  A    between atoms: C_12  and  C_13
REMARK    5  A    between atoms: C_16  and  C_17
REMARK    6  A    between atoms: C_17  and  S_18
REMARK    7  A    between atoms: S_18  and  C_19
REMARK    8  A    between atoms: C_22  and  N_23
REMARK                            x       y       z     vdW  Elec       q    Type
REMARK                         _______ _______ _______ _____ _____    ______ ____
ROOT
ATOM      1  C   UNL     1       1.408   9.350  19.002  0.00  0.00    +0.000 A 
ATOM      2  C   UNL     1       1.112   8.938  20.308  0.00  0.00    +0.000 A 
ATOM      3  C   UNL     1       1.473   7.664  20.759  0.00  0.00    +0.000 A 
ATOM      4  C   UNL     1       2.102   6.748  19.904  0.00  0.00    +0.000 A 
ATOM      5  C   UNL     1       2.381   7.151  18.590  0.00  0.00    +0.000 A 
ATOM      6  C   UNL     1       2.035   8.435  18.144  0.00  0.00    +0.000 A 
ENDROOT
BRANCH   1   7
ATOM      7  C   UNL     1       1.035  10.739  18.522  0.00  0.00    +0.000 C 
BRANCH   7   8
ATOM      8  S   UNL     1       0.292  11.753  19.843  0.00  0.00    +0.000 S 
BRANCH   8  15
ATOM      9  C   UNL     1      -4.824  12.399  19.504  0.00  0.00    +0.000 A 
ATOM     10  C   UNL     1      -5.786  12.107  18.527  0.00  0.00    +0.000 A 
ATOM     11  C   UNL     1      -5.383  11.504  17.333  0.00  0.00    +0.000 A 
ATOM     12  C   UNL     1      -4.037  11.178  17.097  0.00  0.00    +0.000 A 
ATOM     13  C   UNL     1      -3.133  11.493  18.113  0.00  0.00    +0.000 A 
ATOM     14  O   UNL     1      -1.784  11.283  18.126  0.00  0.00    +0.000 OA
ATOM     15  C   UNL     1      -1.376  11.771  19.345  0.00  0.00    +0.000 A 
ATOM     16  N   UNL     1      -2.354  12.250  20.088  0.00  0.00    +0.000 NA
ATOM     17  C   UNL     1      -3.476  12.093  19.314  0.00  0.00    +0.000 A 
BRANCH   9  19
ATOM     18  O   UNL     1      -5.209  14.248  20.778  0.00  0.00    +0.000 OA
ATOM     19  N   UNL     1      -5.194  13.010  20.749  0.00  0.00    +0.000 N 
ATOM     20  O   UNL     1      -5.418  12.263  21.709  0.00  0.00    +0.000 OA
ENDBRANCH   9  19
ENDBRANCH   8  15
ENDBRANCH   7   8
ENDBRANCH   1   7
BRANCH   4  21
ATOM     21  C   UNL     1       2.506   5.376  20.402  0.00  0.00    +0.000 C 
BRANCH  21  22
ATOM     22  S   UNL     1       2.195   4.070  19.167  0.00  0.00    +0.000 S 
BRANCH  22  23
ATOM     23  C   UNL     1       3.589   4.257  18.144  0.00  0.00    +0.000 A 
ATOM     24  N   UNL     1       4.743   4.733  18.564  0.00  0.00    +0.000 NA
ATOM     25  C   UNL     1       5.556   4.719  17.454  0.00  0.00    +0.000 A 
ATOM     26  C   UNL     1       6.888   5.092  17.222  0.00  0.00    +0.000 A 
ATOM     27  C   UNL     1       7.444   4.950  15.934  0.00  0.00    +0.000 A 
ATOM     28  C   UNL     1       6.672   4.438  14.886  0.00  0.00    +0.000 A 
ATOM     29  C   UNL     1       5.338   4.056  15.086  0.00  0.00    +0.000 A 
ATOM     30  C   UNL     1       4.836   4.218  16.377  0.00  0.00    +0.000 A 
ATOM     31  O   UNL     1       3.579   3.920  16.813  0.00  0.00    +0.000 OA
BRANCH  26  32
ATOM     32  N   UNL     1       7.686   5.623  18.318  0.00  0.00    +0.000 N 
ATOM     33  O   UNL     1       8.124   4.847  19.179  0.00  0.00    +0.000 OA
ATOM     34  O   UNL     1       7.884   6.846  18.327  0.00  0.00    +0.000 OA
ENDBRANCH  26  32
ENDBRANCH  22  23
ENDBRANCH  21  22
ENDBRANCH   4  21
TORSDOF 8
ENDMDL
MODEL 9
REMARK VINA RESULT:      -8.6      3.973     11.705
REMARK  Name = 
REMARK  8 active torsions:
REMARK  status: ('A' for Active; 'I' for Inactive)
REMARK    1  A    between atoms: N_2  and  C_4
REMARK    2  A    between atoms: C_10  and  S_11
REMARK    3  A    between atoms: S_11  and  C_12
REMARK    4  A    between atoms: C_12  and  C_13
REMARK    5  A    between atoms: C_16  and  C_17
REMARK    6  A    between atoms: C_17  and  S_18
REMARK    7  A    between atoms: S_18  and  C_19
REMARK    8  A    between atoms: C_22  and  N_23
REMARK                            x       y       z     vdW  Elec       q    Type
REMARK                         _______ _______ _______ _____ _____    ______ ____
ROOT
ATOM      1  C   UNL     1       1.920   4.437  18.855  0.00  0.00    +0.000 A 
ATOM      2  C   UNL     1       1.656   4.660  20.213  0.00  0.00    +0.000 A 
ATOM      3  C   UNL     1       1.617   5.956  20.735  0.00  0.00    +0.000 A 
ATOM      4  C   UNL     1       1.885   7.068  19.924  0.00  0.00    +0.000 A 
ATOM      5  C   UNL     1       2.171   6.847  18.569  0.00  0.00    +0.000 A 
ATOM      6  C   UNL     1       2.190   5.548  18.042  0.00  0.00    +0.000 A 
ENDROOT
BRANCH   1   7
ATOM      7  C   UNL     1       1.940   3.032  18.287  0.00  0.00    +0.000 C 
BRANCH   7   8
ATOM      8  S   UNL     1       3.483   2.144  18.687  0.00  0.00    +0.000 S 
BRANCH   8  15
ATOM      9  C   UNL     1       6.488   5.864  16.728  0.00  0.00    +0.000 A 
ATOM     10  C   UNL     1       7.492   6.689  17.250  0.00  0.00    +0.000 A 
ATOM     11  C   UNL     1       7.844   6.564  18.597  0.00  0.00    +0.000 A 
ATOM     12  C   UNL     1       7.217   5.624  19.432  0.00  0.00    +0.000 A 
ATOM     13  C   UNL     1       6.227   4.833  18.846  0.00  0.00    +0.000 A 
ATOM     14  O   UNL     1       5.476   3.860  19.438  0.00  0.00    +0.000 OA
ATOM     15  C   UNL     1       4.661   3.399  18.430  0.00  0.00    +0.000 A 
ATOM     16  N   UNL     1       4.854   3.992  17.268  0.00  0.00    +0.000 NA
ATOM     17  C   UNL     1       5.837   4.916  17.518  0.00  0.00    +0.000 A 
BRANCH   9  19
ATOM     18  O   UNL     1       6.743   5.261  14.545  0.00  0.00    +0.000 OA
ATOM     19  N   UNL     1       6.100   5.951  15.348  0.00  0.00    +0.000 N 
ATOM     20  O   UNL     1       5.194   6.741  15.056  0.00  0.00    +0.000 OA
ENDBRANCH   9  19
ENDBRANCH   8  15
ENDBRANCH   7   8
ENDBRANCH   1   7
BRANCH   4  21
ATOM     21  C   UNL     1       1.826   8.472  20.491  0.00  0.00    +0.000 C 
BRANCH  21  22
ATOM     22  S   UNL     1       0.755   8.580  21.964  0.00  0.00    +0.000 S 
BRANCH  22  23
ATOM     23  C   UNL     1       0.178  10.214  21.822  0.00  0.00    +0.000 A 
ATOM     24  N   UNL     1       0.175  10.892  20.692  0.00  0.00    +0.000 NA
ATOM     25  C   UNL     1      -0.348  12.122  21.019  0.00  0.00    +0.000 A 
ATOM     26  C   UNL     1      -0.615  13.288  20.288  0.00  0.00    +0.000 A 
ATOM     27  C   UNL     1      -1.169  14.412  20.935  0.00  0.00    +0.000 A 
ATOM     28  C   UNL     1      -1.453  14.369  22.304  0.00  0.00    +0.000 A 
ATOM     29  C   UNL     1      -1.198  13.218  23.062  0.00  0.00    +0.000 A 
ATOM     30  C   UNL     1      -0.649  12.135  22.376  0.00  0.00    +0.000 A 
ATOM     31  O   UNL     1      -0.316  10.918  22.893  0.00  0.00    +0.000 OA
BRANCH  26  32
ATOM     32  N   UNL     1      -0.318  13.325  18.863  0.00  0.00    +0.000 N 
ATOM     33  O   UNL     1       0.702  13.910  18.473  0.00  0.00    +0.000 OA
ATOM     34  O   UNL     1      -1.119  12.758  18.107  0.00  0.00    +0.000 OA
ENDBRANCH  26  32
ENDBRANCH  22  23
ENDBRANCH  21  22
ENDBRANCH   4  21
TORSDOF 8
ENDMDL
