MODEL 1
REMARK VINA RESULT:      -6.9      0.000      0.000
REMARK  Name = 
REMARK  7 active torsions:
REMARK  status: ('A' for Active; 'I' for Inactive)
REMARK    1  A    between atoms: C_1  and  C_2
REMARK    2  A    between atoms: C_2  and  C_3
REMARK    3  A    between atoms: C_3  and  C_5
REMARK    4  A    between atoms: C_9  and  C_10
REMARK    5  A    between atoms: C_9  and  C_11
REMARK    6  A    between atoms: C_16  and  C_17
REMARK    7  A    between atoms: C_16  and  C_18
REMARK                            x       y       z     vdW  Elec       q    Type
REMARK                         _______ _______ _______ _____ _____    ______ ____
ROOT
ATOM      1  C   UNL     1       5.925   4.634  17.037  0.00  0.00    +0.000 C 
ATOM      2  O   UNL     1       5.278   3.328  16.864  0.00  0.00    +0.000 OA
ATOM      3  C   UNL     1       3.928   3.693  17.157  0.00  0.00    +0.000 C 
ATOM      4  O   UNL     1       2.866   2.794  17.394  0.00  0.00    +0.000 OA
ATOM      5  C   UNL     1       1.973   3.637  18.185  0.00  0.00    +0.000 C 
ATOM      6  C   UNL     1       1.266   2.772  19.216  0.00  0.00    +0.000 C 
ATOM      7  C   UNL     1       0.955   4.365  17.301  0.00  0.00    +0.000 C 
ATOM      8  O   UNL     1       2.755   4.677  18.842  0.00  0.00    +0.000 OA
ATOM      9  C   UNL     1       4.082   4.322  18.504  0.00  0.00    +0.000 C 
ATOM     10  C   UNL     1       5.110   5.356  18.141  0.00  0.00    +0.000 C 
ATOM     11  O   UNL     1       6.055   5.584  19.206  0.00  0.00    +0.000 OA
ATOM     12  C   UNL     1       7.293   5.694  18.502  0.00  0.00    +0.000 C 
ATOM     13  C   UNL     1       8.513   5.460  19.378  0.00  0.00    +0.000 C 
ATOM     14  C   UNL     1       7.366   7.132  17.948  0.00  0.00    +0.000 C 
ATOM     15  O   UNL     1       7.272   4.674  17.491  0.00  0.00    +0.000 OA
ENDROOT
BRANCH   1  16
ATOM     16  C   UNL     1       5.962   5.239  15.621  0.00  0.00    +0.000 C 
ATOM     17  O   UNL     1       5.322   6.240  15.318  0.00  0.00    +0.000 OA
BRANCH  16  19
ATOM     18  C   UNL     1       6.030   3.857  13.470  0.00  0.00    +0.000 C 
ATOM     19  C   UNL     1       6.817   4.466  14.613  0.00  0.00    +0.000 C 
ENDBRANCH  16  19
ENDBRANCH   1  16
TORSDOF 2
ENDMDL
MODEL 2
REMARK VINA RESULT:      -6.8      2.021      5.252
REMARK  Name = 
REMARK  7 active torsions:
REMARK  status: ('A' for Active; 'I' for Inactive)
REMARK    1  A    between atoms: C_1  and  C_2
REMARK    2  A    between atoms: C_2  and  C_3
REMARK    3  A    between atoms: C_3  and  C_5
REMARK    4  A    between atoms: C_9  and  C_10
REMARK    5  A    between atoms: C_9  and  C_11
REMARK    6  A    between atoms: C_16  and  C_17
REMARK    7  A    between atoms: C_16  and  C_18
REMARK                            x       y       z     vdW  Elec       q    Type
REMARK                         _______ _______ _______ _____ _____    ______ ____
ROOT
ATOM      1  C   UNL     1       3.286   5.328  19.666  0.00  0.00    +0.000 C 
ATOM      2  O   UNL     1       4.662   5.831  19.578  0.00  0.00    +0.000 OA
ATOM      3  C   UNL     1       4.889   5.652  18.179  0.00  0.00    +0.000 C 
ATOM      4  O   UNL     1       6.142   5.732  17.533  0.00  0.00    +0.000 OA
ATOM      5  C   UNL     1       5.884   4.917  16.347  0.00  0.00    +0.000 C 
ATOM      6  C   UNL     1       7.157   4.172  15.978  0.00  0.00    +0.000 C 
ATOM      7  C   UNL     1       5.396   5.771  15.172  0.00  0.00    +0.000 C 
ATOM      8  O   UNL     1       4.809   3.977  16.640  0.00  0.00    +0.000 OA
ATOM      9  C   UNL     1       4.571   4.201  18.015  0.00  0.00    +0.000 C 
ATOM     10  C   UNL     1       3.180   4.222  18.585  0.00  0.00    +0.000 C 
ATOM     11  O   UNL     1       2.872   3.019  19.318  0.00  0.00    +0.000 OA
ATOM     12  C   UNL     1       2.163   3.522  20.451  0.00  0.00    +0.000 C 
ATOM     13  C   UNL     1       2.129   2.556  21.624  0.00  0.00    +0.000 C 
ATOM     14  C   UNL     1       0.711   3.775  19.994  0.00  0.00    +0.000 C 
ATOM     15  O   UNL     1       2.863   4.703  20.871  0.00  0.00    +0.000 OA
ENDROOT
BRANCH   1  16
ATOM     16  C   UNL     1       2.405   6.585  19.536  0.00  0.00    +0.000 C 
ATOM     17  O   UNL     1       1.899   7.135  20.509  0.00  0.00    +0.000 OA
BRANCH  16  19
ATOM     18  C   UNL     1       2.331   8.554  17.906  0.00  0.00    +0.000 C 
ATOM     19  C   UNL     1       2.169   7.060  18.100  0.00  0.00    +0.000 C 
ENDBRANCH  16  19
ENDBRANCH   1  16
TORSDOF 2
ENDMDL
MODEL 3
REMARK VINA RESULT:      -6.7      1.458      1.694
REMARK  Name = 
REMARK  7 active torsions:
REMARK  status: ('A' for Active; 'I' for Inactive)
REMARK    1  A    between atoms: C_1  and  C_2
REMARK    2  A    between atoms: C_2  and  C_3
REMARK    3  A    between atoms: C_3  and  C_5
REMARK    4  A    between atoms: C_9  and  C_10
REMARK    5  A    between atoms: C_9  and  C_11
REMARK    6  A    between atoms: C_16  and  C_17
REMARK    7  A    between atoms: C_16  and  C_18
REMARK                            x       y       z     vdW  Elec       q    Type
REMARK                         _______ _______ _______ _____ _____    ______ ____
ROOT
ATOM      1  C   UNL     1       5.287   3.977  18.030  0.00  0.00    +0.000 C 
ATOM      2  O   UNL     1       4.855   2.649  18.483  0.00  0.00    +0.000 OA
ATOM      3  C   UNL     1       3.541   2.973  18.944  0.00  0.00    +0.000 C 
ATOM      4  O   UNL     1       2.716   2.138  19.726  0.00  0.00    +0.000 OA
ATOM      5  C   UNL     1       1.855   3.132  20.364  0.00  0.00    +0.000 C 
ATOM      6  C   UNL     1       1.516   2.660  21.768  0.00  0.00    +0.000 C 
ATOM      7  C   UNL     1       0.579   3.376  19.552  0.00  0.00    +0.000 C 
ATOM      8  O   UNL     1       2.556   4.409  20.410  0.00  0.00    +0.000 OA
ATOM      9  C   UNL     1       3.836   4.075  19.910  0.00  0.00    +0.000 C 
ATOM     10  C   UNL     1       4.583   4.985  18.975  0.00  0.00    +0.000 C 
ATOM     11  O   UNL     1       5.658   5.683  19.635  0.00  0.00    +0.000 OA
ATOM     12  C   UNL     1       6.702   5.631  18.663  0.00  0.00    +0.000 C 
ATOM     13  C   UNL     1       8.088   5.858  19.246  0.00  0.00    +0.000 C 
ATOM     14  C   UNL     1       6.420   6.754  17.642  0.00  0.00    +0.000 C 
ATOM     15  O   UNL     1       6.668   4.308  18.106  0.00  0.00    +0.000 OA
ENDROOT
BRANCH   1  16
ATOM     16  C   UNL     1       4.951   4.003  16.527  0.00  0.00    +0.000 C 
ATOM     17  O   UNL     1       3.819   4.228  16.112  0.00  0.00    +0.000 OA
BRANCH  16  19
ATOM     18  C   UNL     1       5.943   4.161  14.176  0.00  0.00    +0.000 C 
ATOM     19  C   UNL     1       6.125   3.676  15.600  0.00  0.00    +0.000 C 
ENDBRANCH  16  19
ENDBRANCH   1  16
TORSDOF 2
ENDMDL
MODEL 4
REMARK VINA RESULT:      -6.7      1.467      3.414
REMARK  Name = 
REMARK  7 active torsions:
REMARK  status: ('A' for Active; 'I' for Inactive)
REMARK    1  A    between atoms: C_1  and  C_2
REMARK    2  A    between atoms: C_2  and  C_3
REMARK    3  A    between atoms: C_3  and  C_5
REMARK    4  A    between atoms: C_9  and  C_10
REMARK    5  A    between atoms: C_9  and  C_11
REMARK    6  A    between atoms: C_16  and  C_17
REMARK    7  A    between atoms: C_16  and  C_18
REMARK                            x       y       z     vdW  Elec       q    Type
REMARK                         _______ _______ _______ _____ _____    ______ ____
ROOT
ATOM      1  C   UNL     1       4.768   5.474  17.080  0.00  0.00    +0.000 C 
ATOM      2  O   UNL     1       3.453   5.986  17.485  0.00  0.00    +0.000 OA
ATOM      3  C   UNL     1       3.159   5.070  18.542  0.00  0.00    +0.000 C 
ATOM      4  O   UNL     1       1.902   4.907  19.162  0.00  0.00    +0.000 OA
ATOM      5  C   UNL     1       2.026   3.541  19.665  0.00  0.00    +0.000 C 
ATOM      6  C   UNL     1       0.667   2.864  19.590  0.00  0.00    +0.000 C 
ATOM      7  C   UNL     1       2.564   3.516  21.099  0.00  0.00    +0.000 C 
ATOM      8  O   UNL     1       3.000   2.821  18.854  0.00  0.00    +0.000 OA
ATOM      9  C   UNL     1       3.309   3.759  17.841  0.00  0.00    +0.000 C 
ATOM     10  C   UNL     1       4.713   3.945  17.337  0.00  0.00    +0.000 C 
ATOM     11  O   UNL     1       4.911   3.347  16.041  0.00  0.00    +0.000 OA
ATOM     12  C   UNL     1       5.710   4.322  15.370  0.00  0.00    +0.000 C 
ATOM     13  C   UNL     1       5.678   4.197  13.855  0.00  0.00    +0.000 C 
ATOM     14  C   UNL     1       7.165   4.108  15.839  0.00  0.00    +0.000 C 
ATOM     15  O   UNL     1       5.160   5.602  15.719  0.00  0.00    +0.000 OA
ENDROOT
BRANCH   1  16
ATOM     16  C   UNL     1       5.778   6.327  17.870  0.00  0.00    +0.000 C 
ATOM     17  O   UNL     1       6.088   7.463  17.526  0.00  0.00    +0.000 OA
BRANCH  16  19
ATOM     18  C   UNL     1       7.900   5.802  19.196  0.00  0.00    +0.000 C 
ATOM     19  C   UNL     1       6.399   5.630  19.084  0.00  0.00    +0.000 C 
ENDBRANCH  16  19
ENDBRANCH   1  16
TORSDOF 2
ENDMDL
MODEL 5
REMARK VINA RESULT:      -6.6      2.242      5.542
REMARK  Name = 
REMARK  7 active torsions:
REMARK  status: ('A' for Active; 'I' for Inactive)
REMARK    1  A    between atoms: C_1  and  C_2
REMARK    2  A    between atoms: C_2  and  C_3
REMARK    3  A    between atoms: C_3  and  C_5
REMARK    4  A    between atoms: C_9  and  C_10
REMARK    5  A    between atoms: C_9  and  C_11
REMARK    6  A    between atoms: C_16  and  C_17
REMARK    7  A    between atoms: C_16  and  C_18
REMARK                            x       y       z     vdW  Elec       q    Type
REMARK                         _______ _______ _______ _____ _____    ______ ____
ROOT
ATOM      1  C   UNL     1       3.224   5.323  19.655  0.00  0.00    +0.000 C 
ATOM      2  O   UNL     1       4.581   5.880  19.595  0.00  0.00    +0.000 OA
ATOM      3  C   UNL     1       4.839   5.720  18.198  0.00  0.00    +0.000 C 
ATOM      4  O   UNL     1       6.098   5.854  17.575  0.00  0.00    +0.000 OA
ATOM      5  C   UNL     1       5.894   5.039  16.380  0.00  0.00    +0.000 C 
ATOM      6  C   UNL     1       7.201   4.348  16.028  0.00  0.00    +0.000 C 
ATOM      7  C   UNL     1       5.393   5.881  15.202  0.00  0.00    +0.000 C 
ATOM      8  O   UNL     1       4.853   4.055  16.647  0.00  0.00    +0.000 OA
ATOM      9  C   UNL     1       4.582   4.259  18.020  0.00  0.00    +0.000 C 
ATOM     10  C   UNL     1       3.181   4.221  18.565  0.00  0.00    +0.000 C 
ATOM     11  O   UNL     1       2.909   3.001  19.284  0.00  0.00    +0.000 OA
ATOM     12  C   UNL     1       2.161   3.467  20.408  0.00  0.00    +0.000 C 
ATOM     13  C   UNL     1       2.145   2.493  21.574  0.00  0.00    +0.000 C 
ATOM     14  C   UNL     1       0.708   3.667  19.928  0.00  0.00    +0.000 C 
ATOM     15  O   UNL     1       2.806   4.673  20.848  0.00  0.00    +0.000 OA
ENDROOT
BRANCH   1  16
ATOM     16  C   UNL     1       2.296   6.544  19.518  0.00  0.00    +0.000 C 
ATOM     17  O   UNL     1       2.132   7.127  18.451  0.00  0.00    +0.000 OA
BRANCH  16  19
ATOM     18  C   UNL     1       1.247   8.467  20.838  0.00  0.00    +0.000 C 
ATOM     19  C   UNL     1       1.639   7.003  20.823  0.00  0.00    +0.000 C 
ENDBRANCH  16  19
ENDBRANCH   1  16
TORSDOF 2
ENDMDL
MODEL 6
REMARK VINA RESULT:      -6.4      3.322      5.374
REMARK  Name = 
REMARK  7 active torsions:
REMARK  status: ('A' for Active; 'I' for Inactive)
REMARK    1  A    between atoms: C_1  and  C_2
REMARK    2  A    between atoms: C_2  and  C_3
REMARK    3  A    between atoms: C_3  and  C_5
REMARK    4  A    between atoms: C_9  and  C_10
REMARK    5  A    between atoms: C_9  and  C_11
REMARK    6  A    between atoms: C_16  and  C_17
REMARK    7  A    between atoms: C_16  and  C_18
REMARK                            x       y       z     vdW  Elec       q    Type
REMARK                         _______ _______ _______ _____ _____    ______ ____
ROOT
ATOM      1  C   UNL     1       2.943   5.818  19.133  0.00  0.00    +0.000 C 
ATOM      2  O   UNL     1       2.574   6.830  20.130  0.00  0.00    +0.000 OA
ATOM      3  C   UNL     1       1.856   7.737  19.290  0.00  0.00    +0.000 C 
ATOM      4  O   UNL     1       1.462   9.046  19.642  0.00  0.00    +0.000 OA
ATOM      5  C   UNL     1       1.346   9.655  18.319  0.00  0.00    +0.000 C 
ATOM      6  C   UNL     1       1.770  11.112  18.411  0.00  0.00    +0.000 C 
ATOM      7  C   UNL     1      -0.079   9.540  17.769  0.00  0.00    +0.000 C 
ATOM      8  O   UNL     1       2.201   8.933  17.385  0.00  0.00    +0.000 OA
ATOM      9  C   UNL     1       2.869   8.015  18.228  0.00  0.00    +0.000 C 
ATOM     10  C   UNL     1       3.129   6.596  17.804  0.00  0.00    +0.000 C 
ATOM     11  O   UNL     1       4.506   6.379  17.439  0.00  0.00    +0.000 OA
ATOM     12  C   UNL     1       4.779   5.099  18.013  0.00  0.00    +0.000 C 
ATOM     13  C   UNL     1       6.261   4.823  18.205  0.00  0.00    +0.000 C 
ATOM     14  C   UNL     1       4.215   4.043  17.040  0.00  0.00    +0.000 C 
ATOM     15  O   UNL     1       4.157   5.099  19.307  0.00  0.00    +0.000 OA
ENDROOT
BRANCH   1  16
ATOM     16  C   UNL     1       1.832   4.756  19.227  0.00  0.00    +0.000 C 
ATOM     17  O   UNL     1       1.292   4.281  18.233  0.00  0.00    +0.000 OA
BRANCH  16  19
ATOM     18  C   UNL     1       1.339   2.889  20.903  0.00  0.00    +0.000 C 
ATOM     19  C   UNL     1       1.419   4.381  20.653  0.00  0.00    +0.000 C 
ENDBRANCH  16  19
ENDBRANCH   1  16
TORSDOF 2
ENDMDL
MODEL 7
REMARK VINA RESULT:      -6.1      1.135      1.316
REMARK  Name = 
REMARK  7 active torsions:
REMARK  status: ('A' for Active; 'I' for Inactive)
REMARK    1  A    between atoms: C_1  and  C_2
REMARK    2  A    between atoms: C_2  and  C_3
REMARK    3  A    between atoms: C_3  and  C_5
REMARK    4  A    between atoms: C_9  and  C_10
REMARK    5  A    between atoms: C_9  and  C_11
REMARK    6  A    between atoms: C_16  and  C_17
REMARK    7  A    between atoms: C_16  and  C_18
REMARK                            x       y       z     vdW  Elec       q    Type
REMARK                         _______ _______ _______ _____ _____    ______ ____
ROOT
ATOM      1  C   UNL     1       6.164   4.372  17.725  0.00  0.00    +0.000 C 
ATOM      2  O   UNL     1       5.430   3.101  17.715  0.00  0.00    +0.000 OA
ATOM      3  C   UNL     1       4.093   3.599  17.804  0.00  0.00    +0.000 C 
ATOM      4  O   UNL     1       2.946   2.827  18.085  0.00  0.00    +0.000 OA
ATOM      5  C   UNL     1       2.058   3.853  18.627  0.00  0.00    +0.000 C 
ATOM      6  C   UNL     1       1.197   3.234  19.715  0.00  0.00    +0.000 C 
ATOM      7  C   UNL     1       1.184   4.476  17.533  0.00  0.00    +0.000 C 
ATOM      8  O   UNL     1       2.863   4.940  19.170  0.00  0.00    +0.000 OA
ATOM      9  C   UNL     1       4.180   4.446  19.032  0.00  0.00    +0.000 C 
ATOM     10  C   UNL     1       5.317   5.330  18.602  0.00  0.00    +0.000 C 
ATOM     11  O   UNL     1       6.181   5.682  19.701  0.00  0.00    +0.000 OA
ATOM     12  C   UNL     1       7.480   5.585  19.116  0.00  0.00    +0.000 C 
ATOM     13  C   UNL     1       8.597   5.432  20.136  0.00  0.00    +0.000 C 
ATOM     14  C   UNL     1       7.718   6.894  18.334  0.00  0.00    +0.000 C 
ATOM     15  O   UNL     1       7.464   4.405  18.298  0.00  0.00    +0.000 OA
ENDROOT
BRANCH   1  16
ATOM     16  C   UNL     1       6.373   4.711  16.237  0.00  0.00    +0.000 C 
ATOM     17  O   UNL     1       7.451   4.558  15.674  0.00  0.00    +0.000 OA
BRANCH  16  19
ATOM     18  C   UNL     1       5.089   6.815  15.553  0.00  0.00    +0.000 C 
ATOM     19  C   UNL     1       5.147   5.301  15.533  0.00  0.00    +0.000 C 
ENDBRANCH  16  19
ENDBRANCH   1  16
TORSDOF 2
ENDMDL
MODEL 8
REMARK VINA RESULT:      -6.1      1.898      2.560
REMARK  Name = 
REMARK  7 active torsions:
REMARK  status: ('A' for Active; 'I' for Inactive)
REMARK    1  A    between atoms: C_1  and  C_2
REMARK    2  A    between atoms: C_2  and  C_3
REMARK    3  A    between atoms: C_3  and  C_5
REMARK    4  A    between atoms: C_9  and  C_10
REMARK    5  A    between atoms: C_9  and  C_11
REMARK    6  A    between atoms: C_16  and  C_17
REMARK    7  A    between atoms: C_16  and  C_18
REMARK                            x       y       z     vdW  Elec       q    Type
REMARK                         _______ _______ _______ _____ _____    ______ ____
ROOT
ATOM      1  C   UNL     1       4.830   5.277  17.481  0.00  0.00    +0.000 C 
ATOM      2  O   UNL     1       3.706   4.406  17.116  0.00  0.00    +0.000 OA
ATOM      3  C   UNL     1       2.908   4.545  18.294  0.00  0.00    +0.000 C 
ATOM      4  O   UNL     1       1.802   3.738  18.636  0.00  0.00    +0.000 OA
ATOM      5  C   UNL     1       1.784   3.909  20.087  0.00  0.00    +0.000 C 
ATOM      6  C   UNL     1       1.329   2.609  20.730  0.00  0.00    +0.000 C 
ATOM      7  C   UNL     1       0.874   5.068  20.507  0.00  0.00    +0.000 C 
ATOM      8  O   UNL     1       3.124   4.261  20.542  0.00  0.00    +0.000 OA
ATOM      9  C   UNL     1       3.887   4.160  19.355  0.00  0.00    +0.000 C 
ATOM     10  C   UNL     1       4.966   5.152  19.021  0.00  0.00    +0.000 C 
ATOM     11  O   UNL     1       6.286   4.613  19.232  0.00  0.00    +0.000 OA
ATOM     12  C   UNL     1       7.005   5.107  18.100  0.00  0.00    +0.000 C 
ATOM     13  C   UNL     1       8.273   4.326  17.797  0.00  0.00    +0.000 C 
ATOM     14  C   UNL     1       7.401   6.563  18.421  0.00  0.00    +0.000 C 
ATOM     15  O   UNL     1       6.123   4.971  16.974  0.00  0.00    +0.000 OA
ENDROOT
BRANCH   1  16
ATOM     16  C   UNL     1       4.474   6.646  16.872  0.00  0.00    +0.000 C 
ATOM     17  O   UNL     1       4.706   6.923  15.701  0.00  0.00    +0.000 OA
BRANCH  16  19
ATOM     18  C   UNL     1       2.413   7.994  17.561  0.00  0.00    +0.000 C 
ATOM     19  C   UNL     1       3.858   7.647  17.855  0.00  0.00    +0.000 C 
ENDBRANCH  16  19
ENDBRANCH   1  16
TORSDOF 2
ENDMDL
MODEL 9
REMARK VINA RESULT:      -6.1      1.904      5.525
REMARK  Name = 
REMARK  7 active torsions:
REMARK  status: ('A' for Active; 'I' for Inactive)
REMARK    1  A    between atoms: C_1  and  C_2
REMARK    2  A    between atoms: C_2  and  C_3
REMARK    3  A    between atoms: C_3  and  C_5
REMARK    4  A    between atoms: C_9  and  C_10
REMARK    5  A    between atoms: C_9  and  C_11
REMARK    6  A    between atoms: C_16  and  C_17
REMARK    7  A    between atoms: C_16  and  C_18
REMARK                            x       y       z     vdW  Elec       q    Type
REMARK                         _______ _______ _______ _____ _____    ______ ____
ROOT
ATOM      1  C   UNL     1       3.131   5.057  19.299  0.00  0.00    +0.000 C 
ATOM      2  O   UNL     1       4.269   5.134  20.222  0.00  0.00    +0.000 OA
ATOM      3  C   UNL     1       5.302   5.477  19.295  0.00  0.00    +0.000 C 
ATOM      4  O   UNL     1       6.687   5.447  19.561  0.00  0.00    +0.000 OA
ATOM      5  C   UNL     1       7.217   5.290  18.209  0.00  0.00    +0.000 C 
ATOM      6  C   UNL     1       8.466   4.426  18.267  0.00  0.00    +0.000 C 
ATOM      7  C   UNL     1       7.525   6.645  17.563  0.00  0.00    +0.000 C 
ATOM      8  O   UNL     1       6.202   4.663  17.370  0.00  0.00    +0.000 OA
ATOM      9  C   UNL     1       5.175   4.373  18.297  0.00  0.00    +0.000 C 
ATOM     10  C   UNL     1       3.723   4.560  17.954  0.00  0.00    +0.000 C 
ATOM     11  O   UNL     1       3.056   3.308  17.698  0.00  0.00    +0.000 OA
ATOM     12  C   UNL     1       1.796   3.492  18.344  0.00  0.00    +0.000 C 
ATOM     13  C   UNL     1       1.075   2.190  18.654  0.00  0.00    +0.000 C 
ATOM     14  C   UNL     1       0.914   4.313  17.380  0.00  0.00    +0.000 C 
ATOM     15  O   UNL     1       2.076   4.150  19.590  0.00  0.00    +0.000 OA
ENDROOT
BRANCH   1  16
ATOM     16  C   UNL     1       2.486   6.454  19.359  0.00  0.00    +0.000 C 
ATOM     17  O   UNL     1       1.842   6.838  20.329  0.00  0.00    +0.000 OA
BRANCH  16  19
ATOM     18  C   UNL     1       1.912   8.615  18.117  0.00  0.00    +0.000 C 
ATOM     19  C   UNL     1       2.667   7.302  18.096  0.00  0.00    +0.000 C 
ENDBRANCH  16  19
ENDBRANCH   1  16
TORSDOF 2
ENDMDL
