MODEL 1
REMARK VINA RESULT:      -7.2      0.000      0.000
REMARK  Name = 
REMARK  7 active torsions:
REMARK  status: ('A' for Active; 'I' for Inactive)
REMARK    1  A    between atoms: C_1  and  C_2
REMARK    2  A    between atoms: C_2  and  C_3
REMARK    3  A    between atoms: C_7  and  C_8
REMARK    4  A    between atoms: C_9  and  N_10
REMARK    5  A    between atoms: N_10  and  S_11
REMARK    6  A    between atoms: S_11  and  C_14
REMARK    7  A    between atoms: C_20  and  O_21
REMARK                            x       y       z     vdW  Elec       q    Type
REMARK                         _______ _______ _______ _____ _____    ______ ____
ROOT
ATOM      1  C   UNL     1       7.937   7.495  18.140  0.00  0.00    +0.000 A 
ATOM      2  N   UNL     1       7.631   7.441  16.808  0.00  0.00    +0.000 NA
ATOM      3  C   UNL     1       6.861   6.381  16.710  0.00  0.00    +0.000 A 
ATOM      4  N   UNL     1       6.290   5.826  15.600  0.00  0.00    +0.000 NA
ATOM      5  C   UNL     1       5.572   4.747  15.763  0.00  0.00    +0.000 A 
ATOM      6  C   UNL     1       4.984   4.139  14.512  0.00  0.00    +0.000 C 
ATOM      7  C   UNL     1       5.326   4.108  17.111  0.00  0.00    +0.000 A 
ATOM      8  C   UNL     1       5.938   4.655  18.168  0.00  0.00    +0.000 A 
ATOM      9  N   UNL     1       6.701   5.815  17.977  0.00  0.00    +0.000 N 
ATOM     10  N   UNL     1       7.401   6.532  18.889  0.00  0.00    +0.000 NA
ENDROOT
BRANCH   1  12
ATOM     11  C   UNL     1       8.474   9.924  18.161  0.00  0.00    +0.000 C 
ATOM     12  C   UNL     1       8.790   8.552  18.735  0.00  0.00    +0.000 C 
ENDBRANCH   1  12
BRANCH   7  13
ATOM     13  N   UNL     1       4.727   2.835  17.390  0.00  0.00    +0.000 N 
ATOM     14  H   UNL     1       4.923   2.101  16.709  0.00  0.00    +0.000 HD
BRANCH  13  15
ATOM     15  S   UNL     1       3.038   2.874  17.634  0.00  0.00    +0.000 S 
ATOM     16  O   UNL     1       2.434   3.444  16.453  0.00  0.00    +0.000 OA
ATOM     17  O   UNL     1       2.679   1.553  18.100  0.00  0.00    +0.000 OA
BRANCH  15  18
ATOM     18  C   UNL     1       2.650   4.012  18.946  0.00  0.00    +0.000 A 
ATOM     19  C   UNL     1       2.514   3.828  20.312  0.00  0.00    +0.000 A 
ATOM     20  C   UNL     1       2.153   5.030  20.991  0.00  0.00    +0.000 A 
ATOM     21  C   UNL     1       2.043   6.077  20.113  0.00  0.00    +0.000 A 
ATOM     22 BR   UNL     1       1.592   7.819  20.635  0.00  0.00    +0.000 Br
ATOM     23  S   UNL     1       2.355   5.642  18.505  0.00  0.00    +0.000 S 
ENDBRANCH  15  18
ENDBRANCH  13  15
ENDBRANCH   7  13
BRANCH   8  24
ATOM     24  O   UNL     1       5.890   4.092  19.436  0.00  0.00    +0.000 OA
ATOM     25  H   UNL     1       6.633   3.464  19.502  0.00  0.00    +0.000 HD
ENDBRANCH   8  24
TORSDOF 5
ENDMDL
MODEL 2
REMARK VINA RESULT:      -7.0      0.931      1.192
REMARK  Name = 
REMARK  7 active torsions:
REMARK  status: ('A' for Active; 'I' for Inactive)
REMARK    1  A    between atoms: C_1  and  C_2
REMARK    2  A    between atoms: C_2  and  C_3
REMARK    3  A    between atoms: C_7  and  C_8
REMARK    4  A    between atoms: C_9  and  N_10
REMARK    5  A    between atoms: N_10  and  S_11
REMARK    6  A    between atoms: S_11  and  C_14
REMARK    7  A    between atoms: C_20  and  O_21
REMARK                            x       y       z     vdW  Elec       q    Type
REMARK                         _______ _______ _______ _____ _____    ______ ____
ROOT
ATOM      1  C   UNL     1       8.134   7.774  18.220  0.00  0.00    +0.000 A 
ATOM      2  N   UNL     1       7.835   7.604  16.896  0.00  0.00    +0.000 NA
ATOM      3  C   UNL     1       7.045   6.554  16.889  0.00  0.00    +0.000 A 
ATOM      4  N   UNL     1       6.471   5.910  15.830  0.00  0.00    +0.000 NA
ATOM      5  C   UNL     1       5.732   4.864  16.086  0.00  0.00    +0.000 A 
ATOM      6  C   UNL     1       5.140   4.155  14.890  0.00  0.00    +0.000 C 
ATOM      7  C   UNL     1       5.465   4.355  17.484  0.00  0.00    +0.000 A 
ATOM      8  C   UNL     1       6.081   4.985  18.491  0.00  0.00    +0.000 A 
ATOM      9  N   UNL     1       6.867   6.108  18.201  0.00  0.00    +0.000 N 
ATOM     10  N   UNL     1       7.575   6.893  19.049  0.00  0.00    +0.000 NA
ENDROOT
BRANCH   1  12
ATOM     11  C   UNL     1       8.606  10.216  18.147  0.00  0.00    +0.000 C 
ATOM     12  C   UNL     1       9.003   8.866  18.722  0.00  0.00    +0.000 C 
ENDBRANCH   1  12
BRANCH   7  13
ATOM     13  N   UNL     1       4.841   3.124  17.874  0.00  0.00    +0.000 N 
ATOM     14  H   UNL     1       5.002   2.335  17.246  0.00  0.00    +0.000 HD
BRANCH  13  15
ATOM     15  S   UNL     1       3.160   3.228  18.151  0.00  0.00    +0.000 S 
ATOM     16  O   UNL     1       2.489   2.958  16.901  0.00  0.00    +0.000 OA
ATOM     17  O   UNL     1       2.907   2.429  19.328  0.00  0.00    +0.000 OA
BRANCH  15  18
ATOM     18  C   UNL     1       2.724   4.905  18.556  0.00  0.00    +0.000 A 
ATOM     19  C   UNL     1       2.716   6.062  17.794  0.00  0.00    +0.000 A 
ATOM     20  C   UNL     1       2.326   7.209  18.548  0.00  0.00    +0.000 A 
ATOM     21  C   UNL     1       2.042   6.870  19.846  0.00  0.00    +0.000 A 
ATOM     22 BR   UNL     1       1.487   8.109  21.138  0.00  0.00    +0.000 Br
ATOM     23  S   UNL     1       2.243   5.220  20.170  0.00  0.00    +0.000 S 
ENDBRANCH  15  18
ENDBRANCH  13  15
ENDBRANCH   7  13
BRANCH   8  24
ATOM     24  O   UNL     1       6.015   4.541  19.805  0.00  0.00    +0.000 OA
ATOM     25  H   UNL     1       6.510   5.179  20.351  0.00  0.00    +0.000 HD
ENDBRANCH   8  24
TORSDOF 5
ENDMDL
MODEL 3
REMARK VINA RESULT:      -6.6      0.989      1.090
REMARK  Name = 
REMARK  7 active torsions:
REMARK  status: ('A' for Active; 'I' for Inactive)
REMARK    1  A    between atoms: C_1  and  C_2
REMARK    2  A    between atoms: C_2  and  C_3
REMARK    3  A    between atoms: C_7  and  C_8
REMARK    4  A    between atoms: C_9  and  N_10
REMARK    5  A    between atoms: N_10  and  S_11
REMARK    6  A    between atoms: S_11  and  C_14
REMARK    7  A    between atoms: C_20  and  O_21
REMARK                            x       y       z     vdW  Elec       q    Type
REMARK                         _______ _______ _______ _____ _____    ______ ____
ROOT
ATOM      1  C   UNL     1       8.207   8.047  18.239  0.00  0.00    +0.000 A 
ATOM      2  N   UNL     1       7.835   7.880  16.934  0.00  0.00    +0.000 NA
ATOM      3  C   UNL     1       7.091   6.797  16.960  0.00  0.00    +0.000 A 
ATOM      4  N   UNL     1       6.480   6.141  15.929  0.00  0.00    +0.000 NA
ATOM      5  C   UNL     1       5.804   5.061  16.215  0.00  0.00    +0.000 A 
ATOM      6  C   UNL     1       5.169   4.342  15.048  0.00  0.00    +0.000 C 
ATOM      7  C   UNL     1       5.646   4.526  17.619  0.00  0.00    +0.000 A 
ATOM      8  C   UNL     1       6.295   5.169  18.595  0.00  0.00    +0.000 A 
ATOM      9  N   UNL     1       7.013   6.329  18.274  0.00  0.00    +0.000 N 
ATOM     10  N   UNL     1       7.739   7.133  19.088  0.00  0.00    +0.000 NA
ENDROOT
BRANCH   1  12
ATOM     11  C   UNL     1       8.662  10.486  18.055  0.00  0.00    +0.000 C 
ATOM     12  C   UNL     1       9.059   9.169  18.703  0.00  0.00    +0.000 C 
ENDBRANCH   1  12
BRANCH   7  13
ATOM     13  N   UNL     1       5.099   3.264  18.029  0.00  0.00    +0.000 N 
ATOM     14  H   UNL     1       5.291   2.481  17.403  0.00  0.00    +0.000 HD
BRANCH  13  15
ATOM     15  S   UNL     1       3.421   3.276  18.340  0.00  0.00    +0.000 S 
ATOM     16  O   UNL     1       2.737   3.097  17.081  0.00  0.00    +0.000 OA
ATOM     17  O   UNL     1       3.220   2.361  19.441  0.00  0.00    +0.000 OA
BRANCH  15  18
ATOM     18  C   UNL     1       2.930   4.890  18.907  0.00  0.00    +0.000 A 
ATOM     19  C   UNL     1       2.695   5.384  20.180  0.00  0.00    +0.000 A 
ATOM     20  C   UNL     1       2.277   6.748  20.166  0.00  0.00    +0.000 A 
ATOM     21  C   UNL     1       2.225   7.234  18.884  0.00  0.00    +0.000 A 
ATOM     22 BR   UNL     1       1.725   8.991  18.465  0.00  0.00    +0.000 Br
ATOM     23  S   UNL     1       2.657   6.088  17.713  0.00  0.00    +0.000 S 
ENDBRANCH  15  18
ENDBRANCH  13  15
ENDBRANCH   7  13
BRANCH   8  24
ATOM     24  O   UNL     1       6.329   4.708  19.904  0.00  0.00    +0.000 OA
ATOM     25  H   UNL     1       6.975   3.978  19.937  0.00  0.00    +0.000 HD
ENDBRANCH   8  24
TORSDOF 5
ENDMDL
MODEL 4
REMARK VINA RESULT:      -6.6      4.170      6.431
REMARK  Name = 
REMARK  7 active torsions:
REMARK  status: ('A' for Active; 'I' for Inactive)
REMARK    1  A    between atoms: C_1  and  C_2
REMARK    2  A    between atoms: C_2  and  C_3
REMARK    3  A    between atoms: C_7  and  C_8
REMARK    4  A    between atoms: C_9  and  N_10
REMARK    5  A    between atoms: N_10  and  S_11
REMARK    6  A    between atoms: S_11  and  C_14
REMARK    7  A    between atoms: C_20  and  O_21
REMARK                            x       y       z     vdW  Elec       q    Type
REMARK                         _______ _______ _______ _____ _____    ______ ____
ROOT
ATOM      1  C   UNL     1       0.877   9.591  20.390  0.00  0.00    +0.000 A 
ATOM      2  N   UNL     1       0.611   8.600  21.295  0.00  0.00    +0.000 NA
ATOM      3  C   UNL     1       1.240   7.556  20.804  0.00  0.00    +0.000 A 
ATOM      4  N   UNL     1       1.291   6.275  21.277  0.00  0.00    +0.000 NA
ATOM      5  C   UNL     1       1.978   5.403  20.590  0.00  0.00    +0.000 A 
ATOM      6  C   UNL     1       1.985   3.989  21.121  0.00  0.00    +0.000 C 
ATOM      7  C   UNL     1       2.733   5.747  19.327  0.00  0.00    +0.000 A 
ATOM      8  C   UNL     1       2.623   7.000  18.872  0.00  0.00    +0.000 A 
ATOM      9  N   UNL     1       1.886   7.926  19.622  0.00  0.00    +0.000 N 
ATOM     10  N   UNL     1       1.642   9.233  19.359  0.00  0.00    +0.000 NA
ENDROOT
BRANCH   1  12
ATOM     11  C   UNL     1      -0.461  11.150  21.794  0.00  0.00    +0.000 C 
ATOM     12  C   UNL     1       0.375  10.978  20.536  0.00  0.00    +0.000 C 
ENDBRANCH   1  12
BRANCH   7  13
ATOM     13  N   UNL     1       3.354   4.851  18.395  0.00  0.00    +0.000 N 
ATOM     14  H   UNL     1       2.919   3.931  18.318  0.00  0.00    +0.000 HD
BRANCH  13  15
ATOM     15  S   UNL     1       5.027   4.613  18.632  0.00  0.00    +0.000 S 
ATOM     16  O   UNL     1       5.552   5.787  19.287  0.00  0.00    +0.000 OA
ATOM     17  O   UNL     1       5.156   3.300  19.225  0.00  0.00    +0.000 OA
BRANCH  15  18
ATOM     18  C   UNL     1       5.851   4.556  17.056  0.00  0.00    +0.000 A 
ATOM     19  C   UNL     1       7.089   5.027  16.649  0.00  0.00    +0.000 A 
ATOM     20  C   UNL     1       7.332   4.793  15.263  0.00  0.00    +0.000 A 
ATOM     21  C   UNL     1       6.274   4.143  14.680  0.00  0.00    +0.000 A 
ATOM     22 BR   UNL     1       6.229   3.659  12.871  0.00  0.00    +0.000 Br
ATOM     23  S   UNL     1       5.006   3.822  15.758  0.00  0.00    +0.000 S 
ENDBRANCH  15  18
ENDBRANCH  13  15
ENDBRANCH   7  13
BRANCH   8  24
ATOM     24  O   UNL     1       3.167   7.409  17.661  0.00  0.00    +0.000 OA
ATOM     25  H   UNL     1       3.885   6.788  17.442  0.00  0.00    +0.000 HD
ENDBRANCH   8  24
TORSDOF 5
ENDMDL
MODEL 5
REMARK VINA RESULT:      -6.5      2.899      4.280
REMARK  Name = 
REMARK  7 active torsions:
REMARK  status: ('A' for Active; 'I' for Inactive)
REMARK    1  A    between atoms: C_1  and  C_2
REMARK    2  A    between atoms: C_2  and  C_3
REMARK    3  A    between atoms: C_7  and  C_8
REMARK    4  A    between atoms: C_9  and  N_10
REMARK    5  A    between atoms: N_10  and  S_11
REMARK    6  A    between atoms: S_11  and  C_14
REMARK    7  A    between atoms: C_20  and  O_21
REMARK                            x       y       z     vdW  Elec       q    Type
REMARK                         _______ _______ _______ _____ _____    ______ ____
ROOT
ATOM      1  C   UNL     1       6.370   4.732  14.451  0.00  0.00    +0.000 A 
ATOM      2  N   UNL     1       6.061   3.517  14.999  0.00  0.00    +0.000 NA
ATOM      3  C   UNL     1       5.484   3.830  16.138  0.00  0.00    +0.000 A 
ATOM      4  N   UNL     1       5.004   3.008  17.119  0.00  0.00    +0.000 NA
ATOM      5  C   UNL     1       4.486   3.569  18.178  0.00  0.00    +0.000 A 
ATOM      6  C   UNL     1       3.996   2.634  19.258  0.00  0.00    +0.000 C 
ATOM      7  C   UNL     1       4.370   5.066  18.355  0.00  0.00    +0.000 A 
ATOM      8  C   UNL     1       4.892   5.837  17.394  0.00  0.00    +0.000 A 
ATOM      9  N   UNL     1       5.440   5.220  16.261  0.00  0.00    +0.000 N 
ATOM     10  N   UNL     1       6.018   5.792  15.177  0.00  0.00    +0.000 NA
ENDROOT
BRANCH   1  12
ATOM     11  C   UNL     1       6.736   3.710  12.212  0.00  0.00    +0.000 C 
ATOM     12  C   UNL     1       7.034   4.882  13.134  0.00  0.00    +0.000 C 
ENDBRANCH   1  12
BRANCH   7  13
ATOM     13  N   UNL     1       4.004   5.792  19.536  0.00  0.00    +0.000 N 
ATOM     14  H   UNL     1       4.513   5.534  20.383  0.00  0.00    +0.000 HD
BRANCH  13  15
ATOM     15  S   UNL     1       2.339   5.764  19.909  0.00  0.00    +0.000 S 
ATOM     16  O   UNL     1       1.635   5.260  18.753  0.00  0.00    +0.000 OA
ATOM     17  O   UNL     1       2.235   5.113  21.195  0.00  0.00    +0.000 OA
BRANCH  15  18
ATOM     18  C   UNL     1       1.746   7.429  20.119  0.00  0.00    +0.000 A 
ATOM     19  C   UNL     1       1.153   8.064  21.198  0.00  0.00    +0.000 A 
ATOM     20  C   UNL     1       0.798   9.415  20.908  0.00  0.00    +0.000 A 
ATOM     21  C   UNL     1       1.149   9.752  19.625  0.00  0.00    +0.000 A 
ATOM     22 BR   UNL     1       0.849  11.446  18.883  0.00  0.00    +0.000 Br
ATOM     23  S   UNL     1       1.881   8.482  18.773  0.00  0.00    +0.000 S 
ENDBRANCH  15  18
ENDBRANCH  13  15
ENDBRANCH   7  13
BRANCH   8  24
ATOM     24  O   UNL     1       4.958   7.220  17.495  0.00  0.00    +0.000 OA
ATOM     25  H   UNL     1       5.620   7.429  18.179  0.00  0.00    +0.000 HD
ENDBRANCH   8  24
TORSDOF 5
ENDMDL
MODEL 6
REMARK VINA RESULT:      -6.5      2.924      4.423
REMARK  Name = 
REMARK  7 active torsions:
REMARK  status: ('A' for Active; 'I' for Inactive)
REMARK    1  A    between atoms: C_1  and  C_2
REMARK    2  A    between atoms: C_2  and  C_3
REMARK    3  A    between atoms: C_7  and  C_8
REMARK    4  A    between atoms: C_9  and  N_10
REMARK    5  A    between atoms: N_10  and  S_11
REMARK    6  A    between atoms: S_11  and  C_14
REMARK    7  A    between atoms: C_20  and  O_21
REMARK                            x       y       z     vdW  Elec       q    Type
REMARK                         _______ _______ _______ _____ _____    ______ ____
ROOT
ATOM      1  C   UNL     1       6.571   4.748  14.348  0.00  0.00    +0.000 A 
ATOM      2  N   UNL     1       6.210   3.548  14.897  0.00  0.00    +0.000 NA
ATOM      3  C   UNL     1       5.585   3.890  16.002  0.00  0.00    +0.000 A 
ATOM      4  N   UNL     1       5.040   3.093  16.969  0.00  0.00    +0.000 NA
ATOM      5  C   UNL     1       4.483   3.681  17.994  0.00  0.00    +0.000 A 
ATOM      6  C   UNL     1       3.921   2.772  19.061  0.00  0.00    +0.000 C 
ATOM      7  C   UNL     1       4.392   5.183  18.144  0.00  0.00    +0.000 A 
ATOM      8  C   UNL     1       4.976   5.928  17.199  0.00  0.00    +0.000 A 
ATOM      9  N   UNL     1       5.566   5.283  16.103  0.00  0.00    +0.000 N 
ATOM     10  N   UNL     1       6.207   5.826  15.040  0.00  0.00    +0.000 NA
ENDROOT
BRANCH   1  12
ATOM     11  C   UNL     1       6.779   3.886  12.023  0.00  0.00    +0.000 C 
ATOM     12  C   UNL     1       7.302   4.864  13.063  0.00  0.00    +0.000 C 
ENDBRANCH   1  12
BRANCH   7  13
ATOM     13  N   UNL     1       3.984   5.933  19.296  0.00  0.00    +0.000 N 
ATOM     14  H   UNL     1       4.355   5.601  20.187  0.00  0.00    +0.000 HD
BRANCH  13  15
ATOM     15  S   UNL     1       2.297   6.114  19.475  0.00  0.00    +0.000 S 
ATOM     16  O   UNL     1       1.659   5.406  18.391  0.00  0.00    +0.000 OA
ATOM     17  O   UNL     1       2.013   5.792  20.855  0.00  0.00    +0.000 OA
BRANCH  15  18
ATOM     18  C   UNL     1       1.851   7.821  19.236  0.00  0.00    +0.000 A 
ATOM     19  C   UNL     1       1.922   8.642  18.122  0.00  0.00    +0.000 A 
ATOM     20  C   UNL     1       1.486   9.972  18.397  0.00  0.00    +0.000 A 
ATOM     21  C   UNL     1       1.090  10.100  19.704  0.00  0.00    +0.000 A 
ATOM     22 BR   UNL     1       0.447  11.701  20.435  0.00  0.00    +0.000 Br
ATOM     23  S   UNL     1       1.242   8.668  20.596  0.00  0.00    +0.000 S 
ENDBRANCH  15  18
ENDBRANCH  13  15
ENDBRANCH   7  13
BRANCH   8  24
ATOM     24  O   UNL     1       5.068   7.310  17.284  0.00  0.00    +0.000 OA
ATOM     25  H   UNL     1       5.943   7.520  17.659  0.00  0.00    +0.000 HD
ENDBRANCH   8  24
TORSDOF 5
ENDMDL
MODEL 7
REMARK VINA RESULT:      -6.5      6.320      8.008
REMARK  Name = 
REMARK  7 active torsions:
REMARK  status: ('A' for Active; 'I' for Inactive)
REMARK    1  A    between atoms: C_1  and  C_2
REMARK    2  A    between atoms: C_2  and  C_3
REMARK    3  A    between atoms: C_7  and  C_8
REMARK    4  A    between atoms: C_9  and  N_10
REMARK    5  A    between atoms: N_10  and  S_11
REMARK    6  A    between atoms: S_11  and  C_14
REMARK    7  A    between atoms: C_20  and  O_21
REMARK                            x       y       z     vdW  Elec       q    Type
REMARK                         _______ _______ _______ _____ _____    ______ ____
ROOT
ATOM      1  C   UNL     1       3.440   6.474  17.969  0.00  0.00    +0.000 A 
ATOM      2  N   UNL     1       2.940   6.223  19.218  0.00  0.00    +0.000 NA
ATOM      3  C   UNL     1       2.270   7.316  19.507  0.00  0.00    +0.000 A 
ATOM      4  N   UNL     1       1.592   7.639  20.649  0.00  0.00    +0.000 NA
ATOM      5  C   UNL     1       1.015   8.809  20.700  0.00  0.00    +0.000 A 
ATOM      6  C   UNL     1       0.304   9.148  21.989  0.00  0.00    +0.000 C 
ATOM      7  C   UNL     1       1.041   9.800  19.559  0.00  0.00    +0.000 A 
ATOM      8  C   UNL     1       1.752   9.467  18.476  0.00  0.00    +0.000 A 
ATOM      9  N   UNL     1       2.361   8.205  18.434  0.00  0.00    +0.000 N 
ATOM     10  N   UNL     1       3.120   7.660  17.453  0.00  0.00    +0.000 NA
ENDROOT
BRANCH   1  12
ATOM     11  C   UNL     1       3.694   4.094  17.289  0.00  0.00    +0.000 C 
ATOM     12  C   UNL     1       4.268   5.500  17.217  0.00  0.00    +0.000 C 
ENDBRANCH   1  12
BRANCH   7  13
ATOM     13  N   UNL     1       0.617  11.170  19.568  0.00  0.00    +0.000 N 
ATOM     14  H   UNL     1       0.771  11.670  20.445  0.00  0.00    +0.000 HD
BRANCH  13  15
ATOM     15  S   UNL     1      -1.007  11.423  19.108  0.00  0.00    +0.000 S 
ATOM     16  O   UNL     1      -1.032  12.499  18.146  0.00  0.00    +0.000 OA
ATOM     17  O   UNL     1      -1.532  10.115  18.788  0.00  0.00    +0.000 OA
BRANCH  15  18
ATOM     18  C   UNL     1      -1.934  12.029  20.502  0.00  0.00    +0.000 A 
ATOM     19  C   UNL     1      -1.624  12.099  21.851  0.00  0.00    +0.000 A 
ATOM     20  C   UNL     1      -2.696  12.631  22.629  0.00  0.00    +0.000 A 
ATOM     21  C   UNL     1      -3.767  12.954  21.835  0.00  0.00    +0.000 A 
ATOM     22 BR   UNL     1      -5.359  13.686  22.498  0.00  0.00    +0.000 Br
ATOM     23  S   UNL     1      -3.511  12.623  20.193  0.00  0.00    +0.000 S 
ENDBRANCH  15  18
ENDBRANCH  13  15
ENDBRANCH   7  13
BRANCH   8  24
ATOM     24  O   UNL     1       1.953  10.338  17.414  0.00  0.00    +0.000 OA
ATOM     25  H   UNL     1       2.035  11.235  17.787  0.00  0.00    +0.000 HD
ENDBRANCH   8  24
TORSDOF 5
ENDMDL
MODEL 8
REMARK VINA RESULT:      -6.4      4.079      6.044
REMARK  Name = 
REMARK  7 active torsions:
REMARK  status: ('A' for Active; 'I' for Inactive)
REMARK    1  A    between atoms: C_1  and  C_2
REMARK    2  A    between atoms: C_2  and  C_3
REMARK    3  A    between atoms: C_7  and  C_8
REMARK    4  A    between atoms: C_9  and  N_10
REMARK    5  A    between atoms: N_10  and  S_11
REMARK    6  A    between atoms: S_11  and  C_14
REMARK    7  A    between atoms: C_20  and  O_21
REMARK                            x       y       z     vdW  Elec       q    Type
REMARK                         _______ _______ _______ _____ _____    ______ ____
ROOT
ATOM      1  C   UNL     1       0.845   9.209  21.038  0.00  0.00    +0.000 A 
ATOM      2  N   UNL     1       1.415   9.608  19.860  0.00  0.00    +0.000 NA
ATOM      3  C   UNL     1       1.930   8.500  19.375  0.00  0.00    +0.000 A 
ATOM      4  N   UNL     1       2.653   8.310  18.231  0.00  0.00    +0.000 NA
ATOM      5  C   UNL     1       3.074   7.101  17.976  0.00  0.00    +0.000 A 
ATOM      6  C   UNL     1       3.899   6.931  16.722  0.00  0.00    +0.000 C 
ATOM      7  C   UNL     1       2.780   5.912  18.863  0.00  0.00    +0.000 A 
ATOM      8  C   UNL     1       2.109   6.146  19.995  0.00  0.00    +0.000 A 
ATOM      9  N   UNL     1       1.659   7.448  20.253  0.00  0.00    +0.000 N 
ATOM     10  N   UNL     1       0.968   7.913  21.322  0.00  0.00    +0.000 NA
ENDROOT
BRANCH   1  12
ATOM     11  C   UNL     1      -0.134   9.511  23.306  0.00  0.00    +0.000 C 
ATOM     12  C   UNL     1       0.122  10.135  21.943  0.00  0.00    +0.000 C 
ENDBRANCH   1  12
BRANCH   7  13
ATOM     13  N   UNL     1       3.342   4.594  18.791  0.00  0.00    +0.000 N 
ATOM     14  H   UNL     1       2.916   3.903  19.410  0.00  0.00    +0.000 HD
BRANCH  13  15
ATOM     15  S   UNL     1       5.032   4.520  19.021  0.00  0.00    +0.000 S 
ATOM     16  O   UNL     1       5.449   5.758  19.636  0.00  0.00    +0.000 OA
ATOM     17  O   UNL     1       5.286   3.245  19.652  0.00  0.00    +0.000 OA
BRANCH  15  18
ATOM     18  C   UNL     1       5.849   4.491  17.440  0.00  0.00    +0.000 A 
ATOM     19  C   UNL     1       7.091   4.955  17.040  0.00  0.00    +0.000 A 
ATOM     20  C   UNL     1       7.325   4.753  15.647  0.00  0.00    +0.000 A 
ATOM     21  C   UNL     1       6.256   4.132  15.053  0.00  0.00    +0.000 A 
ATOM     22 BR   UNL     1       6.198   3.693  13.233  0.00  0.00    +0.000 Br
ATOM     23  S   UNL     1       4.989   3.801  16.128  0.00  0.00    +0.000 S 
ENDBRANCH  15  18
ENDBRANCH  13  15
ENDBRANCH   7  13
BRANCH   8  24
ATOM     24  O   UNL     1       1.883   5.164  20.950  0.00  0.00    +0.000 OA
ATOM     25  H   UNL     1       2.248   5.490  21.793  0.00  0.00    +0.000 HD
ENDBRANCH   8  24
TORSDOF 5
ENDMDL
MODEL 9
REMARK VINA RESULT:      -6.4      6.467      8.123
REMARK  Name = 
REMARK  7 active torsions:
REMARK  status: ('A' for Active; 'I' for Inactive)
REMARK    1  A    between atoms: C_1  and  C_2
REMARK    2  A    between atoms: C_2  and  C_3
REMARK    3  A    between atoms: C_7  and  C_8
REMARK    4  A    between atoms: C_9  and  N_10
REMARK    5  A    between atoms: N_10  and  S_11
REMARK    6  A    between atoms: S_11  and  C_14
REMARK    7  A    between atoms: C_20  and  O_21
REMARK                            x       y       z     vdW  Elec       q    Type
REMARK                         _______ _______ _______ _____ _____    ______ ____
ROOT
ATOM      1  C   UNL     1       3.264   6.571  18.205  0.00  0.00    +0.000 A 
ATOM      2  N   UNL     1       2.759   6.369  19.460  0.00  0.00    +0.000 NA
ATOM      3  C   UNL     1       2.082   7.470  19.702  0.00  0.00    +0.000 A 
ATOM      4  N   UNL     1       1.397   7.835  20.826  0.00  0.00    +0.000 NA
ATOM      5  C   UNL     1       0.816   9.004  20.828  0.00  0.00    +0.000 A 
ATOM      6  C   UNL     1       0.096   9.391  22.098  0.00  0.00    +0.000 C 
ATOM      7  C   UNL     1       0.844   9.949  19.648  0.00  0.00    +0.000 A 
ATOM      8  C   UNL     1       1.561   9.575  18.583  0.00  0.00    +0.000 A 
ATOM      9  N   UNL     1       2.176   8.316  18.594  0.00  0.00    +0.000 N 
ATOM     10  N   UNL     1       2.942   7.735  17.640  0.00  0.00    +0.000 NA
ENDROOT
BRANCH   1  12
ATOM     11  C   UNL     1       5.003   6.221  16.460  0.00  0.00    +0.000 C 
ATOM     12  C   UNL     1       4.099   5.572  17.496  0.00  0.00    +0.000 C 
ENDBRANCH   1  12
BRANCH   7  13
ATOM     13  N   UNL     1       0.415  11.317  19.599  0.00  0.00    +0.000 N 
ATOM     14  H   UNL     1       0.470  11.823  20.484  0.00  0.00    +0.000 HD
BRANCH  13  15
ATOM     15  S   UNL     1      -1.151  11.556  18.965  0.00  0.00    +0.000 S 
ATOM     16  O   UNL     1      -1.058  12.550  17.921  0.00  0.00    +0.000 OA
ATOM     17  O   UNL     1      -1.674  10.235  18.701  0.00  0.00    +0.000 OA
BRANCH  15  18
ATOM     18  C   UNL     1      -2.193  12.290  20.208  0.00  0.00    +0.000 A 
ATOM     19  C   UNL     1      -3.539  12.616  20.203  0.00  0.00    +0.000 A 
ATOM     20  C   UNL     1      -3.956  13.231  21.421  0.00  0.00    +0.000 A 
ATOM     21  C   UNL     1      -2.910  13.333  22.303  0.00  0.00    +0.000 A 
ATOM     22 BR   UNL     1      -3.072  14.081  24.014  0.00  0.00    +0.000 Br
ATOM     23  S   UNL     1      -1.454  12.718  21.694  0.00  0.00    +0.000 S 
ENDBRANCH  15  18
ENDBRANCH  13  15
ENDBRANCH   7  13
BRANCH   8  24
ATOM     24  O   UNL     1       1.766  10.404  17.488  0.00  0.00    +0.000 OA
ATOM     25  H   UNL     1       1.708   9.848  16.689  0.00  0.00    +0.000 HD
ENDBRANCH   8  24
TORSDOF 5
ENDMDL
