MODEL 1
REMARK VINA RESULT:      -8.3      0.000      0.000
REMARK  Name = 
REMARK  7 active torsions:
REMARK  status: ('A' for Active; 'I' for Inactive)
REMARK    1  A    between atoms: C_2  and  C_3
REMARK    2  A    between atoms: C_3  and  C_4
REMARK    3  A    between atoms: C_4  and  S_5
REMARK    4  A    between atoms: S_5  and  C_6
REMARK    5  A    between atoms: C_10  and  C_11
REMARK    6  A    between atoms: C_12  and  C_13
REMARK    7  A    between atoms: N_23  and  C_24
REMARK                            x       y       z     vdW  Elec       q    Type
REMARK                         _______ _______ _______ _____ _____    ______ ____
ROOT
ATOM      1  C   UNL     1       2.333   7.096  19.827  0.00  0.00    +0.000 A 
ATOM      2  C   UNL     1       2.784   7.503  18.567  0.00  0.00    +0.000 A 
ATOM      3  C   UNL     1       3.437   6.611  17.704  0.00  0.00    +0.000 A 
ATOM      4  C   UNL     1       3.641   5.277  18.111  0.00  0.00    +0.000 A 
ATOM      5  C   UNL     1       4.225   4.091  17.559  0.00  0.00    +0.000 A 
ATOM      6  N   UNL     1       4.072   3.049  18.390  0.00  0.00    +0.000 NA
ATOM      7  N   UNL     1       3.451   3.562  19.460  0.00  0.00    +0.000 N 
ATOM      8  C   UNL     1       3.161   4.894  19.362  0.00  0.00    +0.000 A 
ATOM      9  C   UNL     1       2.512   5.771  20.243  0.00  0.00    +0.000 A 
ATOM     10  H   UNL     1       3.238   2.940  20.230  0.00  0.00    +0.000 HD
ENDROOT
BRANCH   5  11
ATOM     11  C   UNL     1       4.873   3.935  16.291  0.00  0.00    +0.000 C 
ATOM     12  C   UNL     1       5.561   4.873  15.616  0.00  0.00    +0.000 C 
BRANCH  12  13
ATOM     13  C   UNL     1       6.229   4.636  14.328  0.00  0.00    +0.000 A 
ATOM     14  C   UNL     1       5.692   3.728  13.421  0.00  0.00    +0.000 A 
ATOM     15  C   UNL     1       6.335   3.533  12.200  0.00  0.00    +0.000 A 
ATOM     16  C   UNL     1       7.491   4.250  11.919  0.00  0.00    +0.000 A 
ATOM     17  C   UNL     1       7.960   5.131  12.878  0.00  0.00    +0.000 A 
ATOM     18  N   UNL     1       7.359   5.335  14.071  0.00  0.00    +0.000 NA
ENDBRANCH  12  13
ENDBRANCH   5  11
BRANCH   1  19
ATOM     19  S   UNL     1       1.429   8.272  20.827  0.00  0.00    +0.000 S 
BRANCH  19  20
ATOM     20  C   UNL     1       0.877   9.456  19.549  0.00  0.00    +0.000 C 
BRANCH  20  21
ATOM     21  C   UNL     1       0.459  10.761  20.225  0.00  0.00    +0.000 C 
BRANCH  21  23
ATOM     22  O   UNL     1      -0.870  12.630  19.525  0.00  0.00    +0.000 OA
ATOM     23  C   UNL     1      -0.686  11.419  19.474  0.00  0.00    +0.000 C 
ATOM     24  N   UNL     1      -1.460  10.501  18.778  0.00  0.00    +0.000 N 
ATOM     25  H   UNL     1      -1.308   9.519  18.977  0.00  0.00    +0.000 HD
BRANCH  24  26
ATOM     26  C   UNL     1      -2.512  10.803  17.886  0.00  0.00    +0.000 A 
ATOM     27  C   UNL     1      -3.733  11.340  18.301  0.00  0.00    +0.000 A 
ATOM     28  C   UNL     1      -4.736  11.633  17.372  0.00  0.00    +0.000 A 
ATOM     29  C   UNL     1      -4.528  11.389  16.019  0.00  0.00    +0.000 A 
ATOM     30  C   UNL     1      -3.314  10.860  15.590  0.00  0.00    +0.000 A 
ATOM     31  C   UNL     1      -2.305  10.578  16.518  0.00  0.00    +0.000 A 
ENDBRANCH  24  26
ENDBRANCH  21  23
ENDBRANCH  20  21
ENDBRANCH  19  20
ENDBRANCH   1  19
TORSDOF 7
ENDMDL
MODEL 2
REMARK VINA RESULT:      -8.2      5.147      7.142
REMARK  Name = 
REMARK  7 active torsions:
REMARK  status: ('A' for Active; 'I' for Inactive)
REMARK    1  A    between atoms: C_2  and  C_3
REMARK    2  A    between atoms: C_3  and  C_4
REMARK    3  A    between atoms: C_4  and  S_5
REMARK    4  A    between atoms: S_5  and  C_6
REMARK    5  A    between atoms: C_10  and  C_11
REMARK    6  A    between atoms: C_12  and  C_13
REMARK    7  A    between atoms: N_23  and  C_24
REMARK                            x       y       z     vdW  Elec       q    Type
REMARK                         _______ _______ _______ _____ _____    ______ ____
ROOT
ATOM      1  C   UNL     1       5.129   4.719  17.212  0.00  0.00    +0.000 A 
ATOM      2  C   UNL     1       5.174   5.864  16.411  0.00  0.00    +0.000 A 
ATOM      3  C   UNL     1       6.087   6.898  16.669  0.00  0.00    +0.000 A 
ATOM      4  C   UNL     1       6.981   6.780  17.753  0.00  0.00    +0.000 A 
ATOM      5  C   UNL     1       8.033   7.559  18.333  0.00  0.00    +0.000 A 
ATOM      6  N   UNL     1       8.613   6.902  19.350  0.00  0.00    +0.000 NA
ATOM      7  N   UNL     1       7.922   5.759  19.446  0.00  0.00    +0.000 N 
ATOM      8  C   UNL     1       6.928   5.617  18.519  0.00  0.00    +0.000 A 
ATOM      9  C   UNL     1       6.019   4.575  18.285  0.00  0.00    +0.000 A 
ATOM     10  H   UNL     1       8.192   5.100  20.167  0.00  0.00    +0.000 HD
ENDROOT
BRANCH   5  11
ATOM     11  C   UNL     1       8.496   8.854  17.931  0.00  0.00    +0.000 C 
ATOM     12  C   UNL     1       8.873   9.862  18.739  0.00  0.00    +0.000 C 
BRANCH  12  13
ATOM     13  C   UNL     1       9.367  11.160  18.258  0.00  0.00    +0.000 A 
ATOM     14  C   UNL     1      10.704  11.307  17.898  0.00  0.00    +0.000 A 
ATOM     15  C   UNL     1      11.145  12.543  17.431  0.00  0.00    +0.000 A 
ATOM     16  C   UNL     1      10.242  13.594  17.334  0.00  0.00    +0.000 A 
ATOM     17  C   UNL     1       8.932  13.365  17.717  0.00  0.00    +0.000 A 
ATOM     18  N   UNL     1       8.480  12.178  18.177  0.00  0.00    +0.000 NA
ENDBRANCH  12  13
ENDBRANCH   5  11
BRANCH   1  19
ATOM     19  S   UNL     1       3.998   3.409  16.760  0.00  0.00    +0.000 S 
BRANCH  19  20
ATOM     20  C   UNL     1       3.736   2.608  18.382  0.00  0.00    +0.000 C 
BRANCH  20  21
ATOM     21  C   UNL     1       2.310   2.889  18.853  0.00  0.00    +0.000 C 
BRANCH  21  23
ATOM     22  O   UNL     1       1.078   4.453  17.517  0.00  0.00    +0.000 OA
ATOM     23  C   UNL     1       1.866   4.282  18.440  0.00  0.00    +0.000 C 
ATOM     24  N   UNL     1       2.461   5.277  19.205  0.00  0.00    +0.000 N 
ATOM     25  H   UNL     1       3.232   5.003  19.804  0.00  0.00    +0.000 HD
BRANCH  24  26
ATOM     26  C   UNL     1       2.163   6.656  19.158  0.00  0.00    +0.000 A 
ATOM     27  C   UNL     1       2.317   7.430  18.006  0.00  0.00    +0.000 A 
ATOM     28  C   UNL     1       1.994   8.790  18.011  0.00  0.00    +0.000 A 
ATOM     29  C   UNL     1       1.515   9.389  19.171  0.00  0.00    +0.000 A 
ATOM     30  C   UNL     1       1.350   8.628  20.325  0.00  0.00    +0.000 A 
ATOM     31  C   UNL     1       1.662   7.264  20.316  0.00  0.00    +0.000 A 
ENDBRANCH  24  26
ENDBRANCH  21  23
ENDBRANCH  20  21
ENDBRANCH  19  20
ENDBRANCH   1  19
TORSDOF 7
ENDMDL
MODEL 3
REMARK VINA RESULT:      -8.2      4.677      7.099
REMARK  Name = 
REMARK  7 active torsions:
REMARK  status: ('A' for Active; 'I' for Inactive)
REMARK    1  A    between atoms: C_2  and  C_3
REMARK    2  A    between atoms: C_3  and  C_4
REMARK    3  A    between atoms: C_4  and  S_5
REMARK    4  A    between atoms: S_5  and  C_6
REMARK    5  A    between atoms: C_10  and  C_11
REMARK    6  A    between atoms: C_12  and  C_13
REMARK    7  A    between atoms: N_23  and  C_24
REMARK                            x       y       z     vdW  Elec       q    Type
REMARK                         _______ _______ _______ _____ _____    ______ ____
ROOT
ATOM      1  C   UNL     1       4.814   3.579  18.080  0.00  0.00    +0.000 A 
ATOM      2  C   UNL     1       5.180   4.288  19.228  0.00  0.00    +0.000 A 
ATOM      3  C   UNL     1       6.043   5.393  19.158  0.00  0.00    +0.000 A 
ATOM      4  C   UNL     1       6.548   5.800  17.907  0.00  0.00    +0.000 A 
ATOM      5  C   UNL     1       7.406   6.833  17.409  0.00  0.00    +0.000 A 
ATOM      6  N   UNL     1       7.487   6.787  16.071  0.00  0.00    +0.000 NA
ATOM      7  N   UNL     1       6.742   5.729  15.727  0.00  0.00    +0.000 N 
ATOM      8  C   UNL     1       6.148   5.088  16.778  0.00  0.00    +0.000 A 
ATOM      9  C   UNL     1       5.292   3.977  16.825  0.00  0.00    +0.000 A 
ATOM     10  H   UNL     1       6.666   5.500  14.743  0.00  0.00    +0.000 HD
ENDROOT
BRANCH   5  11
ATOM     11  C   UNL     1       8.097   7.842  18.156  0.00  0.00    +0.000 C 
ATOM     12  C   UNL     1       8.330   9.110  17.775  0.00  0.00    +0.000 C 
BRANCH  12  13
ATOM     13  C   UNL     1       9.022  10.105  18.605  0.00  0.00    +0.000 A 
ATOM     14  C   UNL     1       9.771  11.114  18.006  0.00  0.00    +0.000 A 
ATOM     15  C   UNL     1      10.405  12.055  18.815  0.00  0.00    +0.000 A 
ATOM     16  C   UNL     1      10.273  11.964  20.194  0.00  0.00    +0.000 A 
ATOM     17  C   UNL     1       9.514  10.928  20.709  0.00  0.00    +0.000 A 
ATOM     18  N   UNL     1       8.893  10.000  19.948  0.00  0.00    +0.000 NA
ENDBRANCH  12  13
ENDBRANCH   5  11
BRANCH   1  19
ATOM     19  S   UNL     1       3.639   2.241  18.246  0.00  0.00    +0.000 S 
BRANCH  19  20
ATOM     20  C   UNL     1       3.503   2.128  20.065  0.00  0.00    +0.000 C 
BRANCH  20  21
ATOM     21  C   UNL     1       2.122   2.622  20.494  0.00  0.00    +0.000 C 
BRANCH  21  23
ATOM     22  O   UNL     1       2.407   4.589  21.836  0.00  0.00    +0.000 OA
ATOM     23  C   UNL     1       2.134   4.122  20.736  0.00  0.00    +0.000 C 
ATOM     24  N   UNL     1       1.791   4.845  19.601  0.00  0.00    +0.000 N 
ATOM     25  H   UNL     1       1.406   4.327  18.819  0.00  0.00    +0.000 HD
BRANCH  24  26
ATOM     26  C   UNL     1       1.834   6.249  19.462  0.00  0.00    +0.000 A 
ATOM     27  C   UNL     1       1.386   7.127  20.452  0.00  0.00    +0.000 A 
ATOM     28  C   UNL     1       1.464   8.510  20.267  0.00  0.00    +0.000 A 
ATOM     29  C   UNL     1       1.989   9.029  19.088  0.00  0.00    +0.000 A 
ATOM     30  C   UNL     1       2.445   8.166  18.096  0.00  0.00    +0.000 A 
ATOM     31  C   UNL     1       2.378   6.781  18.286  0.00  0.00    +0.000 A 
ENDBRANCH  24  26
ENDBRANCH  21  23
ENDBRANCH  20  21
ENDBRANCH  19  20
ENDBRANCH   1  19
TORSDOF 7
ENDMDL
MODEL 4
REMARK VINA RESULT:      -8.1      2.870      5.123
REMARK  Name = 
REMARK  7 active torsions:
REMARK  status: ('A' for Active; 'I' for Inactive)
REMARK    1  A    between atoms: C_2  and  C_3
REMARK    2  A    between atoms: C_3  and  C_4
REMARK    3  A    between atoms: C_4  and  S_5
REMARK    4  A    between atoms: S_5  and  C_6
REMARK    5  A    between atoms: C_10  and  C_11
REMARK    6  A    between atoms: C_12  and  C_13
REMARK    7  A    between atoms: N_23  and  C_24
REMARK                            x       y       z     vdW  Elec       q    Type
REMARK                         _______ _______ _______ _____ _____    ______ ____
ROOT
ATOM      1  C   UNL     1      -0.656  11.754  20.980  0.00  0.00    +0.000 A 
ATOM      2  C   UNL     1      -0.709  10.377  21.213  0.00  0.00    +0.000 A 
ATOM      3  C   UNL     1       0.043   9.478  20.440  0.00  0.00    +0.000 A 
ATOM      4  C   UNL     1       0.871   9.972  19.412  0.00  0.00    +0.000 A 
ATOM      5  C   UNL     1       1.773   9.429  18.441  0.00  0.00    +0.000 A 
ATOM      6  N   UNL     1       2.365  10.406  17.737  0.00  0.00    +0.000 NA
ATOM      7  N   UNL     1       1.825  11.535  18.211  0.00  0.00    +0.000 N 
ATOM      8  C   UNL     1       0.920  11.351  19.219  0.00  0.00    +0.000 A 
ATOM      9  C   UNL     1       0.172  12.267  19.974  0.00  0.00    +0.000 A 
ATOM     10  H   UNL     1       2.130  12.413  17.809  0.00  0.00    +0.000 HD
ENDROOT
BRANCH   5  11
ATOM     11  C   UNL     1       2.088   8.052  18.203  0.00  0.00    +0.000 C 
ATOM     12  C   UNL     1       3.266   7.555  17.788  0.00  0.00    +0.000 C 
BRANCH  12  13
ATOM     13  C   UNL     1       3.532   6.122  17.592  0.00  0.00    +0.000 A 
ATOM     14  C   UNL     1       4.744   5.706  17.048  0.00  0.00    +0.000 A 
ATOM     15  C   UNL     1       4.978   4.342  16.886  0.00  0.00    +0.000 A 
ATOM     16  C   UNL     1       4.001   3.435  17.273  0.00  0.00    +0.000 A 
ATOM     17  C   UNL     1       2.823   3.932  17.802  0.00  0.00    +0.000 A 
ATOM     18  N   UNL     1       2.568   5.249  17.965  0.00  0.00    +0.000 NA
ENDBRANCH  12  13
ENDBRANCH   5  11
BRANCH   1  19
ATOM     19  S   UNL     1      -1.575  12.836  22.069  0.00  0.00    +0.000 S 
BRANCH  19  20
ATOM     20  C   UNL     1      -2.453  13.880  20.853  0.00  0.00    +0.000 C 
BRANCH  20  21
ATOM     21  C   UNL     1      -3.933  13.501  20.845  0.00  0.00    +0.000 C 
BRANCH  21  23
ATOM     22  O   UNL     1      -5.253  11.781  19.820  0.00  0.00    +0.000 OA
ATOM     23  C   UNL     1      -4.215  12.432  19.803  0.00  0.00    +0.000 C 
ATOM     24  N   UNL     1      -3.177  12.294  18.891  0.00  0.00    +0.000 N 
ATOM     25  H   UNL     1      -2.303  12.761  19.108  0.00  0.00    +0.000 HD
BRANCH  24  26
ATOM     26  C   UNL     1      -3.184  11.484  17.735  0.00  0.00    +0.000 A 
ATOM     27  C   UNL     1      -4.129  11.619  16.716  0.00  0.00    +0.000 A 
ATOM     28  C   UNL     1      -4.081  10.799  15.585  0.00  0.00    +0.000 A 
ATOM     29  C   UNL     1      -3.088   9.833  15.464  0.00  0.00    +0.000 A 
ATOM     30  C   UNL     1      -2.135   9.692  16.468  0.00  0.00    +0.000 A 
ATOM     31  C   UNL     1      -2.175  10.521  17.595  0.00  0.00    +0.000 A 
ENDBRANCH  24  26
ENDBRANCH  21  23
ENDBRANCH  20  21
ENDBRANCH  19  20
ENDBRANCH   1  19
TORSDOF 7
ENDMDL
MODEL 5
REMARK VINA RESULT:      -8.0      4.795      6.777
REMARK  Name = 
REMARK  7 active torsions:
REMARK  status: ('A' for Active; 'I' for Inactive)
REMARK    1  A    between atoms: C_2  and  C_3
REMARK    2  A    between atoms: C_3  and  C_4
REMARK    3  A    between atoms: C_4  and  S_5
REMARK    4  A    between atoms: S_5  and  C_6
REMARK    5  A    between atoms: C_10  and  C_11
REMARK    6  A    between atoms: C_12  and  C_13
REMARK    7  A    between atoms: N_23  and  C_24
REMARK                            x       y       z     vdW  Elec       q    Type
REMARK                         _______ _______ _______ _____ _____    ______ ____
ROOT
ATOM      1  C   UNL     1       5.094   3.913  18.575  0.00  0.00    +0.000 A 
ATOM      2  C   UNL     1       5.998   4.366  19.540  0.00  0.00    +0.000 A 
ATOM      3  C   UNL     1       6.768   5.521  19.332  0.00  0.00    +0.000 A 
ATOM      4  C   UNL     1       6.626   6.241  18.129  0.00  0.00    +0.000 A 
ATOM      5  C   UNL     1       7.183   7.424  17.544  0.00  0.00    +0.000 A 
ATOM      6  N   UNL     1       6.609   7.691  16.361  0.00  0.00    +0.000 NA
ATOM      7  N   UNL     1       5.745   6.686  16.174  0.00  0.00    +0.000 N 
ATOM      8  C   UNL     1       5.702   5.778  17.195  0.00  0.00    +0.000 A 
ATOM      9  C   UNL     1       4.927   4.623  17.379  0.00  0.00    +0.000 A 
ATOM     10  H   UNL     1       5.196   6.683  15.323  0.00  0.00    +0.000 HD
ENDROOT
BRANCH   5  11
ATOM     11  C   UNL     1       8.192   8.285  18.086  0.00  0.00    +0.000 C 
ATOM     12  C   UNL     1       8.239   9.626  17.999  0.00  0.00    +0.000 C 
BRANCH  12  13
ATOM     13  C   UNL     1       9.291  10.454  18.606  0.00  0.00    +0.000 A 
ATOM     14  C   UNL     1       9.330  10.630  19.986  0.00  0.00    +0.000 A 
ATOM     15  C   UNL     1      10.347  11.407  20.539  0.00  0.00    +0.000 A 
ATOM     16  C   UNL     1      11.294  11.981  19.701  0.00  0.00    +0.000 A 
ATOM     17  C   UNL     1      11.181  11.759  18.340  0.00  0.00    +0.000 A 
ATOM     18  N   UNL     1      10.203  11.015  17.778  0.00  0.00    +0.000 NA
ENDBRANCH  12  13
ENDBRANCH   5  11
BRANCH   1  19
ATOM     19  S   UNL     1       4.086   2.486  18.957  0.00  0.00    +0.000 S 
BRANCH  19  20
ATOM     20  C   UNL     1       2.527   3.293  19.463  0.00  0.00    +0.000 C 
BRANCH  20  21
ATOM     21  C   UNL     1       2.837   4.378  20.494  0.00  0.00    +0.000 C 
BRANCH  21  23
ATOM     22  O   UNL     1       0.607   5.257  20.503  0.00  0.00    +0.000 OA
ATOM     23  C   UNL     1       1.808   5.493  20.436  0.00  0.00    +0.000 C 
ATOM     24  N   UNL     1       2.390   6.745  20.286  0.00  0.00    +0.000 N 
ATOM     25  H   UNL     1       3.377   6.773  20.054  0.00  0.00    +0.000 HD
BRANCH  24  26
ATOM     26  C   UNL     1       1.720   7.987  20.327  0.00  0.00    +0.000 A 
ATOM     27  C   UNL     1       1.474   8.758  19.189  0.00  0.00    +0.000 A 
ATOM     28  C   UNL     1       0.794   9.975  19.285  0.00  0.00    +0.000 A 
ATOM     29  C   UNL     1       0.356  10.434  20.523  0.00  0.00    +0.000 A 
ATOM     30  C   UNL     1       0.588   9.673  21.665  0.00  0.00    +0.000 A 
ATOM     31  C   UNL     1       1.259   8.449  21.567  0.00  0.00    +0.000 A 
ENDBRANCH  24  26
ENDBRANCH  21  23
ENDBRANCH  20  21
ENDBRANCH  19  20
ENDBRANCH   1  19
TORSDOF 7
ENDMDL
MODEL 6
REMARK VINA RESULT:      -7.9      3.621      5.406
REMARK  Name = 
REMARK  7 active torsions:
REMARK  status: ('A' for Active; 'I' for Inactive)
REMARK    1  A    between atoms: C_2  and  C_3
REMARK    2  A    between atoms: C_3  and  C_4
REMARK    3  A    between atoms: C_4  and  S_5
REMARK    4  A    between atoms: S_5  and  C_6
REMARK    5  A    between atoms: C_10  and  C_11
REMARK    6  A    between atoms: C_12  and  C_13
REMARK    7  A    between atoms: N_23  and  C_24
REMARK                            x       y       z     vdW  Elec       q    Type
REMARK                         _______ _______ _______ _____ _____    ______ ____
ROOT
ATOM      1  C   UNL     1      -0.263  12.055  20.643  0.00  0.00    +0.000 A 
ATOM      2  C   UNL     1      -0.514  10.744  21.059  0.00  0.00    +0.000 A 
ATOM      3  C   UNL     1       0.070   9.648  20.406  0.00  0.00    +0.000 A 
ATOM      4  C   UNL     1       0.931   9.872  19.312  0.00  0.00    +0.000 A 
ATOM      5  C   UNL     1       1.710   9.075  18.412  0.00  0.00    +0.000 A 
ATOM      6  N   UNL     1       2.420   9.849  17.577  0.00  0.00    +0.000 NA
ATOM      7  N   UNL     1       2.070  11.099  17.902  0.00  0.00    +0.000 N 
ATOM      8  C   UNL     1       1.180  11.189  18.935  0.00  0.00    +0.000 A 
ATOM      9  C   UNL     1       0.602  12.299  19.569  0.00  0.00    +0.000 A 
ATOM     10  H   UNL     1       2.491  11.861  17.382  0.00  0.00    +0.000 HD
ENDROOT
BRANCH   5  11
ATOM     11  C   UNL     1       1.808   7.646  18.358  0.00  0.00    +0.000 C 
ATOM     12  C   UNL     1       2.782   6.884  18.886  0.00  0.00    +0.000 C 
BRANCH  12  13
ATOM     13  C   UNL     1       2.805   5.416  18.819  0.00  0.00    +0.000 A 
ATOM     14  C   UNL     1       2.208   4.757  17.748  0.00  0.00    +0.000 A 
ATOM     15  C   UNL     1       2.257   3.365  17.700  0.00  0.00    +0.000 A 
ATOM     16  C   UNL     1       2.902   2.673  18.716  0.00  0.00    +0.000 A 
ATOM     17  C   UNL     1       3.467   3.404  19.747  0.00  0.00    +0.000 A 
ATOM     18  N   UNL     1       3.429   4.753  19.821  0.00  0.00    +0.000 NA
ENDBRANCH  12  13
ENDBRANCH   5  11
BRANCH   1  19
ATOM     19  S   UNL     1      -0.975  13.398  21.587  0.00  0.00    +0.000 S 
BRANCH  19  20
ATOM     20  C   UNL     1      -2.676  12.778  21.834  0.00  0.00    +0.000 C 
BRANCH  20  21
ATOM     21  C   UNL     1      -3.597  13.423  20.799  0.00  0.00    +0.000 C 
BRANCH  21  23
ATOM     22  O   UNL     1      -5.107  11.959  19.646  0.00  0.00    +0.000 OA
ATOM     23  C   UNL     1      -3.976  12.428  19.715  0.00  0.00    +0.000 C 
ATOM     24  N   UNL     1      -2.912  12.130  18.874  0.00  0.00    +0.000 N 
ATOM     25  H   UNL     1      -1.991  12.441  19.162  0.00  0.00    +0.000 HD
BRANCH  24  26
ATOM     26  C   UNL     1      -2.970  11.346  17.701  0.00  0.00    +0.000 A 
ATOM     27  C   UNL     1      -2.065  10.319  17.426  0.00  0.00    +0.000 A 
ATOM     28  C   UNL     1      -2.177   9.564  16.255  0.00  0.00    +0.000 A 
ATOM     29  C   UNL     1      -3.195   9.834  15.345  0.00  0.00    +0.000 A 
ATOM     30  C   UNL     1      -4.107  10.850  15.610  0.00  0.00    +0.000 A 
ATOM     31  C   UNL     1      -4.003  11.598  16.788  0.00  0.00    +0.000 A 
ENDBRANCH  24  26
ENDBRANCH  21  23
ENDBRANCH  20  21
ENDBRANCH  19  20
ENDBRANCH   1  19
TORSDOF 7
ENDMDL
MODEL 7
REMARK VINA RESULT:      -7.9      0.615      1.299
REMARK  Name = 
REMARK  7 active torsions:
REMARK  status: ('A' for Active; 'I' for Inactive)
REMARK    1  A    between atoms: C_2  and  C_3
REMARK    2  A    between atoms: C_3  and  C_4
REMARK    3  A    between atoms: C_4  and  S_5
REMARK    4  A    between atoms: S_5  and  C_6
REMARK    5  A    between atoms: C_10  and  C_11
REMARK    6  A    between atoms: C_12  and  C_13
REMARK    7  A    between atoms: N_23  and  C_24
REMARK                            x       y       z     vdW  Elec       q    Type
REMARK                         _______ _______ _______ _____ _____    ______ ____
ROOT
ATOM      1  C   UNL     1       2.120   7.189  20.001  0.00  0.00    +0.000 A 
ATOM      2  C   UNL     1       2.483   7.609  18.718  0.00  0.00    +0.000 A 
ATOM      3  C   UNL     1       3.103   6.733  17.814  0.00  0.00    +0.000 A 
ATOM      4  C   UNL     1       3.361   5.403  18.203  0.00  0.00    +0.000 A 
ATOM      5  C   UNL     1       3.937   4.232  17.614  0.00  0.00    +0.000 A 
ATOM      6  N   UNL     1       3.859   3.185  18.449  0.00  0.00    +0.000 NA
ATOM      7  N   UNL     1       3.293   3.683  19.556  0.00  0.00    +0.000 N 
ATOM      8  C   UNL     1       2.968   5.008  19.480  0.00  0.00    +0.000 A 
ATOM      9  C   UNL     1       2.353   5.868  20.403  0.00  0.00    +0.000 A 
ATOM     10  H   UNL     1       3.141   3.054  20.336  0.00  0.00    +0.000 HD
ENDROOT
BRANCH   5  11
ATOM     11  C   UNL     1       4.510   4.092  16.307  0.00  0.00    +0.000 C 
ATOM     12  C   UNL     1       5.581   4.745  15.823  0.00  0.00    +0.000 C 
BRANCH  12  13
ATOM     13  C   UNL     1       6.136   4.532  14.479  0.00  0.00    +0.000 A 
ATOM     14  C   UNL     1       7.282   5.215  14.082  0.00  0.00    +0.000 A 
ATOM     15  C   UNL     1       7.798   4.984  12.808  0.00  0.00    +0.000 A 
ATOM     16  C   UNL     1       7.159   4.079  11.970  0.00  0.00    +0.000 A 
ATOM     17  C   UNL     1       6.022   3.445  12.442  0.00  0.00    +0.000 A 
ATOM     18  N   UNL     1       5.499   3.655  13.669  0.00  0.00    +0.000 NA
ENDBRANCH  12  13
ENDBRANCH   5  11
BRANCH   1  19
ATOM     19  S   UNL     1       1.252   8.342  21.059  0.00  0.00    +0.000 S 
BRANCH  19  20
ATOM     20  C   UNL     1       0.897   9.691  19.877  0.00  0.00    +0.000 C 
BRANCH  20  21
ATOM     21  C   UNL     1       0.233  10.847  20.623  0.00  0.00    +0.000 C 
BRANCH  21  23
ATOM     22  O   UNL     1      -1.468  12.460  20.120  0.00  0.00    +0.000 OA
ATOM     23  C   UNL     1      -0.963  11.377  19.850  0.00  0.00    +0.000 C 
ATOM     24  N   UNL     1      -1.387  10.498  18.862  0.00  0.00    +0.000 N 
ATOM     25  H   UNL     1      -0.999   9.561  18.876  0.00  0.00    +0.000 HD
BRANCH  24  26
ATOM     26  C   UNL     1      -2.383  10.749  17.894  0.00  0.00    +0.000 A 
ATOM     27  C   UNL     1      -2.235  10.420  16.545  0.00  0.00    +0.000 A 
ATOM     28  C   UNL     1      -3.260  10.679  15.631  0.00  0.00    +0.000 A 
ATOM     29  C   UNL     1      -4.443  11.272  16.057  0.00  0.00    +0.000 A 
ATOM     30  C   UNL     1      -4.608  11.599  17.400  0.00  0.00    +0.000 A 
ATOM     31  C   UNL     1      -3.586  11.330  18.318  0.00  0.00    +0.000 A 
ENDBRANCH  24  26
ENDBRANCH  21  23
ENDBRANCH  20  21
ENDBRANCH  19  20
ENDBRANCH   1  19
TORSDOF 7
ENDMDL
MODEL 8
REMARK VINA RESULT:      -7.9      3.215      5.061
REMARK  Name = 
REMARK  7 active torsions:
REMARK  status: ('A' for Active; 'I' for Inactive)
REMARK    1  A    between atoms: C_2  and  C_3
REMARK    2  A    between atoms: C_3  and  C_4
REMARK    3  A    between atoms: C_4  and  S_5
REMARK    4  A    between atoms: S_5  and  C_6
REMARK    5  A    between atoms: C_10  and  C_11
REMARK    6  A    between atoms: C_12  and  C_13
REMARK    7  A    between atoms: N_23  and  C_24
REMARK                            x       y       z     vdW  Elec       q    Type
REMARK                         _______ _______ _______ _____ _____    ______ ____
ROOT
ATOM      1  C   UNL     1       0.141  11.299  21.224  0.00  0.00    +0.000 A 
ATOM      2  C   UNL     1       0.175   9.951  21.594  0.00  0.00    +0.000 A 
ATOM      3  C   UNL     1       0.716   8.975  20.743  0.00  0.00    +0.000 A 
ATOM      4  C   UNL     1       1.240   9.360  19.492  0.00  0.00    +0.000 A 
ATOM      5  C   UNL     1       1.867   8.717  18.377  0.00  0.00    +0.000 A 
ATOM      6  N   UNL     1       2.239   9.615  17.452  0.00  0.00    +0.000 NA
ATOM      7  N   UNL     1       1.821  10.790  17.939  0.00  0.00    +0.000 N 
ATOM      8  C   UNL     1       1.213  10.713  19.161  0.00  0.00    +0.000 A 
ATOM      9  C   UNL     1       0.670  11.704  19.992  0.00  0.00    +0.000 A 
ATOM     10  H   UNL     1       1.996  11.622  17.389  0.00  0.00    +0.000 HD
ENDROOT
BRANCH   5  11
ATOM     11  C   UNL     1       2.134   7.320  18.200  0.00  0.00    +0.000 C 
ATOM     12  C   UNL     1       2.641   6.474  19.114  0.00  0.00    +0.000 C 
BRANCH  12  13
ATOM     13  C   UNL     1       2.863   5.041  18.874  0.00  0.00    +0.000 A 
ATOM     14  C   UNL     1       2.944   4.556  17.572  0.00  0.00    +0.000 A 
ATOM     15  C   UNL     1       3.171   3.196  17.371  0.00  0.00    +0.000 A 
ATOM     16  C   UNL     1       3.313   2.361  18.472  0.00  0.00    +0.000 A 
ATOM     17  C   UNL     1       3.215   2.924  19.733  0.00  0.00    +0.000 A 
ATOM     18  N   UNL     1       2.991   4.237  19.955  0.00  0.00    +0.000 NA
ENDBRANCH  12  13
ENDBRANCH   5  11
BRANCH   1  19
ATOM     19  S   UNL     1      -0.483  12.489  22.405  0.00  0.00    +0.000 S 
BRANCH  19  20
ATOM     20  C   UNL     1      -2.258  12.054  22.426  0.00  0.00    +0.000 C 
BRANCH  20  21
ATOM     21  C   UNL     1      -3.027  13.052  21.563  0.00  0.00    +0.000 C 
BRANCH  21  23
ATOM     22  O   UNL     1      -1.981  13.634  19.485  0.00  0.00    +0.000 OA
ATOM     23  C   UNL     1      -2.709  12.855  20.090  0.00  0.00    +0.000 C 
ATOM     24  N   UNL     1      -3.340  11.739  19.556  0.00  0.00    +0.000 N 
ATOM     25  H   UNL     1      -4.059  11.298  20.119  0.00  0.00    +0.000 HD
BRANCH  24  26
ATOM     26  C   UNL     1      -3.148  11.213  18.260  0.00  0.00    +0.000 A 
ATOM     27  C   UNL     1      -2.121  10.322  17.944  0.00  0.00    +0.000 A 
ATOM     28  C   UNL     1      -1.985   9.821  16.646  0.00  0.00    +0.000 A 
ATOM     29  C   UNL     1      -2.876  10.210  15.651  0.00  0.00    +0.000 A 
ATOM     30  C   UNL     1      -3.909  11.092  15.953  0.00  0.00    +0.000 A 
ATOM     31  C   UNL     1      -4.052  11.584  17.256  0.00  0.00    +0.000 A 
ENDBRANCH  24  26
ENDBRANCH  21  23
ENDBRANCH  20  21
ENDBRANCH  19  20
ENDBRANCH   1  19
TORSDOF 7
ENDMDL
MODEL 9
REMARK VINA RESULT:      -7.9      2.759      3.781
REMARK  Name = 
REMARK  7 active torsions:
REMARK  status: ('A' for Active; 'I' for Inactive)
REMARK    1  A    between atoms: C_2  and  C_3
REMARK    2  A    between atoms: C_3  and  C_4
REMARK    3  A    between atoms: C_4  and  S_5
REMARK    4  A    between atoms: S_5  and  C_6
REMARK    5  A    between atoms: C_10  and  C_11
REMARK    6  A    between atoms: C_12  and  C_13
REMARK    7  A    between atoms: N_23  and  C_24
REMARK                            x       y       z     vdW  Elec       q    Type
REMARK                         _______ _______ _______ _____ _____    ______ ____
ROOT
ATOM      1  C   UNL     1       1.952   7.658  19.981  0.00  0.00    +0.000 A 
ATOM      2  C   UNL     1       2.255   8.120  18.697  0.00  0.00    +0.000 A 
ATOM      3  C   UNL     1       2.950   7.317  17.780  0.00  0.00    +0.000 A 
ATOM      4  C   UNL     1       3.347   6.018  18.158  0.00  0.00    +0.000 A 
ATOM      5  C   UNL     1       4.032   4.915  17.553  0.00  0.00    +0.000 A 
ATOM      6  N   UNL     1       4.071   3.861  18.383  0.00  0.00    +0.000 NA
ATOM      7  N   UNL     1       3.471   4.292  19.499  0.00  0.00    +0.000 N 
ATOM      8  C   UNL     1       3.011   5.577  19.436  0.00  0.00    +0.000 A 
ATOM      9  C   UNL     1       2.324   6.365  20.371  0.00  0.00    +0.000 A 
ATOM     10  H   UNL     1       3.393   3.647  20.277  0.00  0.00    +0.000 HD
ENDROOT
BRANCH   5  11
ATOM     11  C   UNL     1       4.601   4.842  16.240  0.00  0.00    +0.000 C 
ATOM     12  C   UNL     1       5.893   4.633  15.931  0.00  0.00    +0.000 C 
BRANCH  12  13
ATOM     13  C   UNL     1       6.406   4.539  14.557  0.00  0.00    +0.000 A 
ATOM     14  C   UNL     1       5.785   3.700  13.637  0.00  0.00    +0.000 A 
ATOM     15  C   UNL     1       6.281   3.640  12.335  0.00  0.00    +0.000 A 
ATOM     16  C   UNL     1       7.377   4.421  11.990  0.00  0.00    +0.000 A 
ATOM     17  C   UNL     1       7.937   5.226  12.967  0.00  0.00    +0.000 A 
ATOM     18  N   UNL     1       7.479   5.298  14.236  0.00  0.00    +0.000 NA
ENDBRANCH  12  13
ENDBRANCH   5  11
BRANCH   1  19
ATOM     19  S   UNL     1       0.984   8.711  21.057  0.00  0.00    +0.000 S 
BRANCH  19  20
ATOM     20  C   UNL     1       0.411   9.978  19.870  0.00  0.00    +0.000 C 
BRANCH  20  21
ATOM     21  C   UNL     1       0.428  11.345  20.552  0.00  0.00    +0.000 C 
BRANCH  21  23
ATOM     22  O   UNL     1       0.050  12.599  18.544  0.00  0.00    +0.000 OA
ATOM     23  C   UNL     1       0.731  12.447  19.552  0.00  0.00    +0.000 C 
ATOM     24  N   UNL     1       1.839  13.202  19.915  0.00  0.00    +0.000 N 
ATOM     25  H   UNL     1       2.416  12.847  20.669  0.00  0.00    +0.000 HD
BRANCH  24  26
ATOM     26  C   UNL     1       2.300  14.369  19.270  0.00  0.00    +0.000 A 
ATOM     27  C   UNL     1       2.038  15.656  19.745  0.00  0.00    +0.000 A 
ATOM     28  C   UNL     1       2.532  16.779  19.074  0.00  0.00    +0.000 A 
ATOM     29  C   UNL     1       3.290  16.625  17.918  0.00  0.00    +0.000 A 
ATOM     30  C   UNL     1       3.564  15.348  17.437  0.00  0.00    +0.000 A 
ATOM     31  C   UNL     1       3.080  14.223  18.115  0.00  0.00    +0.000 A 
ENDBRANCH  24  26
ENDBRANCH  21  23
ENDBRANCH  20  21
ENDBRANCH  19  20
ENDBRANCH   1  19
TORSDOF 7
ENDMDL
