MODEL 1
REMARK VINA RESULT:      -7.9      0.000      0.000
REMARK  Name = 
REMARK  6 active torsions:
REMARK  status: ('A' for Active; 'I' for Inactive)
REMARK    1  A    between atoms: C_1  and  C_2
REMARK    2  A    between atoms: C_3  and  C_4
REMARK    3  A    between atoms: C_4  and  N_5
REMARK    4  A    between atoms: N_5  and  C_6
REMARK    5  A    between atoms: N_12  and  C_13
REMARK    6  A    between atoms: C_21  and  C_22
REMARK                            x       y       z     vdW  Elec       q    Type
REMARK                         _______ _______ _______ _____ _____    ______ ____
ROOT
ATOM      1  C   UNL     1       4.532   3.790  17.250  0.00  0.00    +0.000 C 
ATOM      2  C   UNL     1       3.915   5.100  17.592  0.00  0.00    +0.000 A 
ATOM      3  C   UNL     1       4.095   6.330  16.901  0.00  0.00    +0.000 A 
ATOM      4  N   UNL     1       3.320   7.294  17.411  0.00  0.00    +0.000 NA
ATOM      5  N   UNL     1       2.798   6.766  18.550  0.00  0.00    +0.000 N 
ATOM      6  C   UNL     1       3.008   5.384  18.615  0.00  0.00    +0.000 A 
ENDROOT
BRANCH   5   7
ATOM      7  C   UNL     1       2.088   7.641  19.426  0.00  0.00    +0.000 A 
ATOM      8  C   UNL     1       1.803   7.166  20.723  0.00  0.00    +0.000 A 
ATOM      9  C   UNL     1       1.161   7.983  21.656  0.00  0.00    +0.000 A 
ATOM     10  C   UNL     1       0.797   9.278  21.302  0.00  0.00    +0.000 A 
ATOM     11 CL   UNL     1      -0.001  10.286  22.445  0.00  0.00    +0.000 Cl
ATOM     12  C   UNL     1       1.038   9.749  20.014  0.00  0.00    +0.000 A 
ATOM     13  C   UNL     1       1.650   8.922  19.062  0.00  0.00    +0.000 A 
ATOM     14 CL   UNL     1       1.609   9.507  17.434  0.00  0.00    +0.000 Cl
ENDBRANCH   5   7
BRANCH   6  15
ATOM     15  C   UNL     1       2.351   4.453  19.561  0.00  0.00    +0.000 A 
ATOM     16  C   UNL     1       2.915   4.144  20.802  0.00  0.00    +0.000 A 
ATOM     17  C   UNL     1       2.299   3.193  21.603  0.00  0.00    +0.000 A 
ATOM     18  N   UNL     1       1.144   2.575  21.278  0.00  0.00    +0.000 NA
ATOM     19  C   UNL     1       0.590   2.908  20.098  0.00  0.00    +0.000 A 
ATOM     20  C   UNL     1       1.150   3.824  19.219  0.00  0.00    +0.000 A 
ENDBRANCH   6  15
BRANCH   3  21
ATOM     21  C   UNL     1       4.988   6.623  15.721  0.00  0.00    +0.000 C 
BRANCH  21  22
ATOM     22  N   UNL     1       6.400   6.315  16.003  0.00  0.00    +0.000 NA
ATOM     23  H   UNL     1       6.950   6.902  15.373  0.00  0.00    +0.000 HD
BRANCH  22  24
ATOM     24  C   UNL     1       6.811   6.606  17.373  0.00  0.00    +0.000 C 
ATOM     25  C   UNL     1       7.613   5.519  18.086  0.00  0.00    +0.000 C 
ATOM     26  C   UNL     1       8.169   6.259  19.300  0.00  0.00    +0.000 C 
ATOM     27  C   UNL     1       8.368   7.707  18.843  0.00  0.00    +0.000 C 
ATOM     28  C   UNL     1       7.790   7.782  17.430  0.00  0.00    +0.000 C 
ENDBRANCH  22  24
ENDBRANCH  21  22
ENDBRANCH   3  21
TORSDOF 5
ENDMDL
MODEL 2
REMARK VINA RESULT:      -7.8      3.217      6.772
REMARK  Name = 
REMARK  6 active torsions:
REMARK  status: ('A' for Active; 'I' for Inactive)
REMARK    1  A    between atoms: C_1  and  C_2
REMARK    2  A    between atoms: C_3  and  C_4
REMARK    3  A    between atoms: C_4  and  N_5
REMARK    4  A    between atoms: N_5  and  C_6
REMARK    5  A    between atoms: N_12  and  C_13
REMARK    6  A    between atoms: C_21  and  C_22
REMARK                            x       y       z     vdW  Elec       q    Type
REMARK                         _______ _______ _______ _____ _____    ______ ____
ROOT
ATOM      1  C   UNL     1       1.901   6.067  19.797  0.00  0.00    +0.000 C 
ATOM      2  C   UNL     1       2.868   6.220  18.677  0.00  0.00    +0.000 A 
ATOM      3  C   UNL     1       3.206   7.427  18.006  0.00  0.00    +0.000 A 
ATOM      4  N   UNL     1       4.181   7.232  17.111  0.00  0.00    +0.000 NA
ATOM      5  N   UNL     1       4.336   5.883  17.042  0.00  0.00    +0.000 N 
ATOM      6  C   UNL     1       3.668   5.238  18.090  0.00  0.00    +0.000 A 
ENDROOT
BRANCH   5   7
ATOM      7  C   UNL     1       5.170   5.360  16.010  0.00  0.00    +0.000 A 
ATOM      8  C   UNL     1       4.542   4.640  14.972  0.00  0.00    +0.000 A 
ATOM      9  C   UNL     1       5.284   4.144  13.898  0.00  0.00    +0.000 A 
ATOM     10  C   UNL     1       6.657   4.360  13.851  0.00  0.00    +0.000 A 
ATOM     11 CL   UNL     1       7.577   3.745  12.535  0.00  0.00    +0.000 Cl
ATOM     12  C   UNL     1       7.298   5.036  14.886  0.00  0.00    +0.000 A 
ATOM     13  C   UNL     1       6.565   5.506  15.985  0.00  0.00    +0.000 A 
ATOM     14 CL   UNL     1       7.507   6.044  17.332  0.00  0.00    +0.000 Cl
ENDBRANCH   5   7
BRANCH   6  15
ATOM     15  C   UNL     1       3.841   3.821  18.482  0.00  0.00    +0.000 A 
ATOM     16  C   UNL     1       3.263   2.779  17.750  0.00  0.00    +0.000 A 
ATOM     17  C   UNL     1       3.382   1.479  18.221  0.00  0.00    +0.000 A 
ATOM     18  N   UNL     1       4.074   1.145  19.331  0.00  0.00    +0.000 NA
ATOM     19  C   UNL     1       4.657   2.152  20.007  0.00  0.00    +0.000 A 
ATOM     20  C   UNL     1       4.566   3.485  19.628  0.00  0.00    +0.000 A 
ENDBRANCH   6  15
BRANCH   3  21
ATOM     21  C   UNL     1       2.633   8.808  18.209  0.00  0.00    +0.000 C 
BRANCH  21  22
ATOM     22  N   UNL     1       1.281   8.938  17.639  0.00  0.00    +0.000 NA
ATOM     23  H   UNL     1       0.812   8.046  17.815  0.00  0.00    +0.000 HD
BRANCH  22  24
ATOM     24  C   UNL     1       0.481  10.000  18.241  0.00  0.00    +0.000 C 
ATOM     25  C   UNL     1      -1.008  10.004  17.899  0.00  0.00    +0.000 C 
ATOM     26  C   UNL     1      -1.584  10.968  18.933  0.00  0.00    +0.000 C 
ATOM     27  C   UNL     1      -0.701  10.815  20.174  0.00  0.00    +0.000 C 
ATOM     28  C   UNL     1       0.434   9.875  19.766  0.00  0.00    +0.000 C 
ENDBRANCH  22  24
ENDBRANCH  21  22
ENDBRANCH   3  21
TORSDOF 5
ENDMDL
MODEL 3
REMARK VINA RESULT:      -7.8      2.855      6.574
REMARK  Name = 
REMARK  6 active torsions:
REMARK  status: ('A' for Active; 'I' for Inactive)
REMARK    1  A    between atoms: C_1  and  C_2
REMARK    2  A    between atoms: C_3  and  C_4
REMARK    3  A    between atoms: C_4  and  N_5
REMARK    4  A    between atoms: N_5  and  C_6
REMARK    5  A    between atoms: N_12  and  C_13
REMARK    6  A    between atoms: C_21  and  C_22
REMARK                            x       y       z     vdW  Elec       q    Type
REMARK                         _______ _______ _______ _____ _____    ______ ____
ROOT
ATOM      1  C   UNL     1       1.279   5.042  20.660  0.00  0.00    +0.000 C 
ATOM      2  C   UNL     1       2.313   5.552  19.720  0.00  0.00    +0.000 A 
ATOM      3  C   UNL     1       2.533   6.908  19.353  0.00  0.00    +0.000 A 
ATOM      4  N   UNL     1       3.605   7.033  18.563  0.00  0.00    +0.000 NA
ATOM      5  N   UNL     1       3.961   5.761  18.242  0.00  0.00    +0.000 N 
ATOM      6  C   UNL     1       3.300   4.827  19.048  0.00  0.00    +0.000 A 
ENDROOT
BRANCH   5   7
ATOM      7  C   UNL     1       4.955   5.581  17.235  0.00  0.00    +0.000 A 
ATOM      8  C   UNL     1       4.513   5.209  15.948  0.00  0.00    +0.000 A 
ATOM      9  C   UNL     1       5.421   5.067  14.896  0.00  0.00    +0.000 A 
ATOM     10  C   UNL     1       6.775   5.293  15.119  0.00  0.00    +0.000 A 
ATOM     11 CL   UNL     1       7.898   5.113  13.830  0.00  0.00    +0.000 Cl
ATOM     12  C   UNL     1       7.232   5.625  16.393  0.00  0.00    +0.000 A 
ATOM     13  C   UNL     1       6.331   5.734  17.461  0.00  0.00    +0.000 A 
ATOM     14 CL   UNL     1       7.049   5.841  19.031  0.00  0.00    +0.000 Cl
ENDBRANCH   5   7
BRANCH   6  15
ATOM     15  C   UNL     1       3.640   3.391  19.164  0.00  0.00    +0.000 A 
ATOM     16  C   UNL     1       4.369   2.892  20.249  0.00  0.00    +0.000 A 
ATOM     17  C   UNL     1       4.738   1.554  20.253  0.00  0.00    +0.000 A 
ATOM     18  N   UNL     1       4.388   0.678  19.288  0.00  0.00    +0.000 NA
ATOM     19  C   UNL     1       3.656   1.161  18.268  0.00  0.00    +0.000 A 
ATOM     20  C   UNL     1       3.267   2.489  18.163  0.00  0.00    +0.000 A 
ENDBRANCH   6  15
BRANCH   3  21
ATOM     21  C   UNL     1       1.747   8.131  19.760  0.00  0.00    +0.000 C 
BRANCH  21  22
ATOM     22  N   UNL     1       1.624   8.251  21.223  0.00  0.00    +0.000 NA
ATOM     23  H   UNL     1       2.579   8.248  21.589  0.00  0.00    +0.000 HD
BRANCH  22  24
ATOM     24  C   UNL     1       0.970   9.479  21.665  0.00  0.00    +0.000 C 
ATOM     25  C   UNL     1      -0.034  10.099  20.694  0.00  0.00    +0.000 C 
ATOM     26  C   UNL     1      -0.768  11.107  21.575  0.00  0.00    +0.000 C 
ATOM     27  C   UNL     1      -0.770  10.499  22.981  0.00  0.00    +0.000 C 
ATOM     28  C   UNL     1       0.084   9.234  22.890  0.00  0.00    +0.000 C 
ENDBRANCH  22  24
ENDBRANCH  21  22
ENDBRANCH   3  21
TORSDOF 5
ENDMDL
MODEL 4
REMARK VINA RESULT:      -7.7      2.979      5.066
REMARK  Name = 
REMARK  6 active torsions:
REMARK  status: ('A' for Active; 'I' for Inactive)
REMARK    1  A    between atoms: C_1  and  C_2
REMARK    2  A    between atoms: C_3  and  C_4
REMARK    3  A    between atoms: C_4  and  N_5
REMARK    4  A    between atoms: N_5  and  C_6
REMARK    5  A    between atoms: N_12  and  C_13
REMARK    6  A    between atoms: C_21  and  C_22
REMARK                            x       y       z     vdW  Elec       q    Type
REMARK                         _______ _______ _______ _____ _____    ______ ____
ROOT
ATOM      1  C   UNL     1       5.340   7.327  16.283  0.00  0.00    +0.000 C 
ATOM      2  C   UNL     1       5.012   6.193  17.188  0.00  0.00    +0.000 A 
ATOM      3  C   UNL     1       5.752   4.988  17.343  0.00  0.00    +0.000 A 
ATOM      4  N   UNL     1       5.237   4.219  18.309  0.00  0.00    +0.000 NA
ATOM      5  N   UNL     1       4.056   4.806  18.639  0.00  0.00    +0.000 N 
ATOM      6  C   UNL     1       3.954   6.092  18.094  0.00  0.00    +0.000 A 
ENDROOT
BRANCH   5   7
ATOM      7  C   UNL     1       3.176   4.092  19.505  0.00  0.00    +0.000 A 
ATOM      8  C   UNL     1       3.713   3.603  20.715  0.00  0.00    +0.000 A 
ATOM      9  C   UNL     1       2.901   2.942  21.639  0.00  0.00    +0.000 A 
ATOM     10  C   UNL     1       1.550   2.762  21.365  0.00  0.00    +0.000 A 
ATOM     11 CL   UNL     1       0.547   1.943  22.496  0.00  0.00    +0.000 Cl
ATOM     12  C   UNL     1       1.012   3.207  20.159  0.00  0.00    +0.000 A 
ATOM     13  C   UNL     1       1.828   3.839  19.211  0.00  0.00    +0.000 A 
ATOM     14 CL   UNL     1       1.119   4.059  17.649  0.00  0.00    +0.000 Cl
ENDBRANCH   5   7
BRANCH   6  15
ATOM     15  C   UNL     1       2.947   7.111  18.465  0.00  0.00    +0.000 A 
ATOM     16  C   UNL     1       2.475   8.049  17.542  0.00  0.00    +0.000 A 
ATOM     17  C   UNL     1       1.601   9.038  17.974  0.00  0.00    +0.000 A 
ATOM     18  N   UNL     1       1.131   9.121  19.236  0.00  0.00    +0.000 NA
ATOM     19  C   UNL     1       1.563   8.191  20.106  0.00  0.00    +0.000 A 
ATOM     20  C   UNL     1       2.459   7.185  19.773  0.00  0.00    +0.000 A 
ENDBRANCH   6  15
BRANCH   3  21
ATOM     21  C   UNL     1       6.985   4.540  16.597  0.00  0.00    +0.000 C 
BRANCH  21  22
ATOM     22  N   UNL     1       7.128   5.222  15.299  0.00  0.00    +0.000 NA
ATOM     23  H   UNL     1       8.060   5.642  15.301  0.00  0.00    +0.000 HD
BRANCH  22  24
ATOM     24  C   UNL     1       7.029   4.333  14.146  0.00  0.00    +0.000 C 
ATOM     25  C   UNL     1       5.617   3.953  13.702  0.00  0.00    +0.000 C 
ATOM     26  C   UNL     1       5.854   3.350  12.321  0.00  0.00    +0.000 C 
ATOM     27  C   UNL     1       7.066   4.092  11.750  0.00  0.00    +0.000 C 
ATOM     28  C   UNL     1       7.570   4.996  12.876  0.00  0.00    +0.000 C 
ENDBRANCH  22  24
ENDBRANCH  21  22
ENDBRANCH   3  21
TORSDOF 5
ENDMDL
MODEL 5
REMARK VINA RESULT:      -7.6      2.797      6.584
REMARK  Name = 
REMARK  6 active torsions:
REMARK  status: ('A' for Active; 'I' for Inactive)
REMARK    1  A    between atoms: C_1  and  C_2
REMARK    2  A    between atoms: C_3  and  C_4
REMARK    3  A    between atoms: C_4  and  N_5
REMARK    4  A    between atoms: N_5  and  C_6
REMARK    5  A    between atoms: N_12  and  C_13
REMARK    6  A    between atoms: C_21  and  C_22
REMARK                            x       y       z     vdW  Elec       q    Type
REMARK                         _______ _______ _______ _____ _____    ______ ____
ROOT
ATOM      1  C   UNL     1       0.598   7.716  21.141  0.00  0.00    +0.000 C 
ATOM      2  C   UNL     1       1.544   7.577  20.002  0.00  0.00    +0.000 A 
ATOM      3  C   UNL     1       1.958   8.606  19.112  0.00  0.00    +0.000 A 
ATOM      4  N   UNL     1       2.891   8.168  18.258  0.00  0.00    +0.000 NA
ATOM      5  N   UNL     1       2.939   6.821  18.444  0.00  0.00    +0.000 N 
ATOM      6  C   UNL     1       2.251   6.440  19.602  0.00  0.00    +0.000 A 
ENDROOT
BRANCH   5   7
ATOM      7  C   UNL     1       3.703   6.048  17.520  0.00  0.00    +0.000 A 
ATOM      8  C   UNL     1       4.864   6.642  16.982  0.00  0.00    +0.000 A 
ATOM      9  C   UNL     1       5.693   5.929  16.114  0.00  0.00    +0.000 A 
ATOM     10  C   UNL     1       5.370   4.620  15.774  0.00  0.00    +0.000 A 
ATOM     11 CL   UNL     1       6.384   3.739  14.700  0.00  0.00    +0.000 Cl
ATOM     12  C   UNL     1       4.208   4.031  16.267  0.00  0.00    +0.000 A 
ATOM     13  C   UNL     1       3.353   4.753  17.111  0.00  0.00    +0.000 A 
ATOM     14 CL   UNL     1       1.808   4.030  17.397  0.00  0.00    +0.000 Cl
ENDBRANCH   5   7
BRANCH   6  15
ATOM     15  C   UNL     1       2.322   5.113  20.253  0.00  0.00    +0.000 A 
ATOM     16  C   UNL     1       3.543   4.469  20.479  0.00  0.00    +0.000 A 
ATOM     17  C   UNL     1       3.538   3.185  21.007  0.00  0.00    +0.000 A 
ATOM     18  N   UNL     1       2.417   2.529  21.370  0.00  0.00    +0.000 NA
ATOM     19  C   UNL     1       1.251   3.172  21.182  0.00  0.00    +0.000 A 
ATOM     20  C   UNL     1       1.155   4.444  20.633  0.00  0.00    +0.000 A 
ENDBRANCH   6  15
BRANCH   3  21
ATOM     21  C   UNL     1       1.499  10.042  19.057  0.00  0.00    +0.000 C 
BRANCH  21  22
ATOM     22  N   UNL     1       0.614  10.299  17.908  0.00  0.00    +0.000 NA
ATOM     23  H   UNL     1       0.782   9.539  17.245  0.00  0.00    +0.000 HD
BRANCH  22  24
ATOM     24  C   UNL     1      -0.807  10.308  18.241  0.00  0.00    +0.000 C 
ATOM     25  C   UNL     1      -1.434  11.678  18.496  0.00  0.00    +0.000 C 
ATOM     26  C   UNL     1      -2.929  11.372  18.453  0.00  0.00    +0.000 C 
ATOM     27  C   UNL     1      -3.083  10.214  17.462  0.00  0.00    +0.000 C 
ATOM     28  C   UNL     1      -1.662   9.803  17.077  0.00  0.00    +0.000 C 
ENDBRANCH  22  24
ENDBRANCH  21  22
ENDBRANCH   3  21
TORSDOF 5
ENDMDL
MODEL 6
REMARK VINA RESULT:      -7.6      1.627      2.556
REMARK  Name = 
REMARK  6 active torsions:
REMARK  status: ('A' for Active; 'I' for Inactive)
REMARK    1  A    between atoms: C_1  and  C_2
REMARK    2  A    between atoms: C_3  and  C_4
REMARK    3  A    between atoms: C_4  and  N_5
REMARK    4  A    between atoms: N_5  and  C_6
REMARK    5  A    between atoms: N_12  and  C_13
REMARK    6  A    between atoms: C_21  and  C_22
REMARK                            x       y       z     vdW  Elec       q    Type
REMARK                         _______ _______ _______ _____ _____    ______ ____
ROOT
ATOM      1  C   UNL     1       4.792   3.953  17.574  0.00  0.00    +0.000 C 
ATOM      2  C   UNL     1       4.119   5.249  17.852  0.00  0.00    +0.000 A 
ATOM      3  C   UNL     1       4.336   6.482  17.177  0.00  0.00    +0.000 A 
ATOM      4  N   UNL     1       3.498   7.431  17.610  0.00  0.00    +0.000 NA
ATOM      5  N   UNL     1       2.883   6.894  18.697  0.00  0.00    +0.000 N 
ATOM      6  C   UNL     1       3.115   5.516  18.786  0.00  0.00    +0.000 A 
ENDROOT
BRANCH   5   7
ATOM      7  C   UNL     1       2.077   7.754  19.500  0.00  0.00    +0.000 A 
ATOM      8  C   UNL     1       1.766   7.318  20.805  0.00  0.00    +0.000 A 
ATOM      9  C   UNL     1       1.029   8.129  21.670  0.00  0.00    +0.000 A 
ATOM     10  C   UNL     1       0.594   9.378  21.241  0.00  0.00    +0.000 A 
ATOM     11 CL   UNL     1      -0.320  10.378  22.300  0.00  0.00    +0.000 Cl
ATOM     12  C   UNL     1       0.861   9.808  19.943  0.00  0.00    +0.000 A 
ATOM     13  C   UNL     1       1.571   8.985  19.058  0.00  0.00    +0.000 A 
ATOM     14 CL   UNL     1       1.565   9.493  17.404  0.00  0.00    +0.000 Cl
ENDBRANCH   5   7
BRANCH   6  15
ATOM     15  C   UNL     1       2.392   4.573  19.669  0.00  0.00    +0.000 A 
ATOM     16  C   UNL     1       2.837   4.288  20.964  0.00  0.00    +0.000 A 
ATOM     17  C   UNL     1       2.170   3.325  21.708  0.00  0.00    +0.000 A 
ATOM     18  N   UNL     1       1.071   2.673  21.275  0.00  0.00    +0.000 NA
ATOM     19  C   UNL     1       0.629   2.982  20.043  0.00  0.00    +0.000 A 
ATOM     20  C   UNL     1       1.249   3.909  19.215  0.00  0.00    +0.000 A 
ENDBRANCH   6  15
BRANCH   3  21
ATOM     21  C   UNL     1       5.330   6.792  16.084  0.00  0.00    +0.000 C 
BRANCH  21  22
ATOM     22  N   UNL     1       6.184   5.636  15.766  0.00  0.00    +0.000 NA
ATOM     23  H   UNL     1       5.807   4.849  16.298  0.00  0.00    +0.000 HD
BRANCH  22  24
ATOM     24  C   UNL     1       6.189   5.271  14.352  0.00  0.00    +0.000 C 
ATOM     25  C   UNL     1       7.558   5.177  13.681  0.00  0.00    +0.000 C 
ATOM     26  C   UNL     1       7.239   4.451  12.376  0.00  0.00    +0.000 C 
ATOM     27  C   UNL     1       6.062   3.526  12.698  0.00  0.00    +0.000 C 
ATOM     28  C   UNL     1       5.655   3.853  14.135  0.00  0.00    +0.000 C 
ENDBRANCH  22  24
ENDBRANCH  21  22
ENDBRANCH   3  21
TORSDOF 5
ENDMDL
MODEL 7
REMARK VINA RESULT:      -7.6      2.960      6.550
REMARK  Name = 
REMARK  6 active torsions:
REMARK  status: ('A' for Active; 'I' for Inactive)
REMARK    1  A    between atoms: C_1  and  C_2
REMARK    2  A    between atoms: C_3  and  C_4
REMARK    3  A    between atoms: C_4  and  N_5
REMARK    4  A    between atoms: N_5  and  C_6
REMARK    5  A    between atoms: N_12  and  C_13
REMARK    6  A    between atoms: C_21  and  C_22
REMARK                            x       y       z     vdW  Elec       q    Type
REMARK                         _______ _______ _______ _____ _____    ______ ____
ROOT
ATOM      1  C   UNL     1       1.423   5.380  20.400  0.00  0.00    +0.000 C 
ATOM      2  C   UNL     1       2.430   5.773  19.378  0.00  0.00    +0.000 A 
ATOM      3  C   UNL     1       2.664   7.083  18.876  0.00  0.00    +0.000 A 
ATOM      4  N   UNL     1       3.707   7.106  18.038  0.00  0.00    +0.000 NA
ATOM      5  N   UNL     1       4.022   5.800  17.826  0.00  0.00    +0.000 N 
ATOM      6  C   UNL     1       3.373   4.963  18.742  0.00  0.00    +0.000 A 
ENDROOT
BRANCH   5   7
ATOM      7  C   UNL     1       4.971   5.500  16.804  0.00  0.00    +0.000 A 
ATOM      8  C   UNL     1       4.493   4.853  15.646  0.00  0.00    +0.000 A 
ATOM      9  C   UNL     1       5.351   4.576  14.579  0.00  0.00    +0.000 A 
ATOM     10  C   UNL     1       6.690   4.940  14.660  0.00  0.00    +0.000 A 
ATOM     11 CL   UNL     1       7.752   4.595  13.352  0.00  0.00    +0.000 Cl
ATOM     12  C   UNL     1       7.186   5.546  15.812  0.00  0.00    +0.000 A 
ATOM     13  C   UNL     1       6.339   5.795  16.900  0.00  0.00    +0.000 A 
ATOM     14 CL   UNL     1       7.131   6.258  18.367  0.00  0.00    +0.000 Cl
ENDBRANCH   5   7
BRANCH   6  15
ATOM     15  C   UNL     1       3.686   3.536  18.981  0.00  0.00    +0.000 A 
ATOM     16  C   UNL     1       4.439   3.122  20.084  0.00  0.00    +0.000 A 
ATOM     17  C   UNL     1       4.779   1.781  20.202  0.00  0.00    +0.000 A 
ATOM     18  N   UNL     1       4.379   0.829  19.334  0.00  0.00    +0.000 NA
ATOM     19  C   UNL     1       3.625   1.233  18.297  0.00  0.00    +0.000 A 
ATOM     20  C   UNL     1       3.261   2.555  18.080  0.00  0.00    +0.000 A 
ENDBRANCH   6  15
BRANCH   3  21
ATOM     21  C   UNL     1       1.922   8.357  19.194  0.00  0.00    +0.000 C 
BRANCH  21  22
ATOM     22  N   UNL     1       1.373   8.997  17.986  0.00  0.00    +0.000 NA
ATOM     23  H   UNL     1       0.876   8.263  17.478  0.00  0.00    +0.000 HD
BRANCH  22  24
ATOM     24  C   UNL     1       0.433  10.079  18.261  0.00  0.00    +0.000 C 
ATOM     25  C   UNL     1      -0.972   9.920  17.682  0.00  0.00    +0.000 C 
ATOM     26  C   UNL     1      -1.762  10.990  18.430  0.00  0.00    +0.000 C 
ATOM     27  C   UNL     1      -1.104  11.099  19.808  0.00  0.00    +0.000 C 
ATOM     28  C   UNL     1       0.126  10.192  19.756  0.00  0.00    +0.000 C 
ENDBRANCH  22  24
ENDBRANCH  21  22
ENDBRANCH   3  21
TORSDOF 5
ENDMDL
MODEL 8
REMARK VINA RESULT:      -7.5      1.580      2.563
REMARK  Name = 
REMARK  6 active torsions:
REMARK  status: ('A' for Active; 'I' for Inactive)
REMARK    1  A    between atoms: C_1  and  C_2
REMARK    2  A    between atoms: C_3  and  C_4
REMARK    3  A    between atoms: C_4  and  N_5
REMARK    4  A    between atoms: N_5  and  C_6
REMARK    5  A    between atoms: N_12  and  C_13
REMARK    6  A    between atoms: C_21  and  C_22
REMARK                            x       y       z     vdW  Elec       q    Type
REMARK                         _______ _______ _______ _____ _____    ______ ____
ROOT
ATOM      1  C   UNL     1       4.844   3.686  17.427  0.00  0.00    +0.000 C 
ATOM      2  C   UNL     1       4.189   4.992  17.704  0.00  0.00    +0.000 A 
ATOM      3  C   UNL     1       4.406   6.215  17.012  0.00  0.00    +0.000 A 
ATOM      4  N   UNL     1       3.586   7.177  17.450  0.00  0.00    +0.000 NA
ATOM      5  N   UNL     1       2.985   6.658  18.553  0.00  0.00    +0.000 N 
ATOM      6  C   UNL     1       3.205   5.278  18.653  0.00  0.00    +0.000 A 
ENDROOT
BRANCH   5   7
ATOM      7  C   UNL     1       2.203   7.535  19.362  0.00  0.00    +0.000 A 
ATOM      8  C   UNL     1       1.842   7.081  20.648  0.00  0.00    +0.000 A 
ATOM      9  C   UNL     1       1.124   7.903  21.518  0.00  0.00    +0.000 A 
ATOM     10  C   UNL     1       0.759   9.183  21.114  0.00  0.00    +0.000 A 
ATOM     11 CL   UNL     1      -0.131  10.197  22.179  0.00  0.00    +0.000 Cl
ATOM     12  C   UNL     1       1.076   9.632  19.834  0.00  0.00    +0.000 A 
ATOM     13  C   UNL     1       1.765   8.799  18.942  0.00  0.00    +0.000 A 
ATOM     14 CL   UNL     1       1.820   9.350  17.303  0.00  0.00    +0.000 Cl
ENDBRANCH   5   7
BRANCH   6  15
ATOM     15  C   UNL     1       2.489   4.352  19.559  0.00  0.00    +0.000 A 
ATOM     16  C   UNL     1       1.252   3.797  19.217  0.00  0.00    +0.000 A 
ATOM     17  C   UNL     1       0.586   3.011  20.147  0.00  0.00    +0.000 A 
ATOM     18  N   UNL     1       1.088   2.702  21.361  0.00  0.00    +0.000 NA
ATOM     19  C   UNL     1       2.295   3.211  21.665  0.00  0.00    +0.000 A 
ATOM     20  C   UNL     1       3.020   4.031  20.811  0.00  0.00    +0.000 A 
ENDBRANCH   6  15
BRANCH   3  21
ATOM     21  C   UNL     1       5.382   6.504  15.898  0.00  0.00    +0.000 C 
BRANCH  21  22
ATOM     22  N   UNL     1       6.598   5.679  15.997  0.00  0.00    +0.000 NA
ATOM     23  H   UNL     1       6.500   5.129  16.853  0.00  0.00    +0.000 HD
BRANCH  22  24
ATOM     24  C   UNL     1       6.783   4.756  14.881  0.00  0.00    +0.000 C 
ATOM     25  C   UNL     1       5.515   4.298  14.163  0.00  0.00    +0.000 C 
ATOM     26  C   UNL     1       6.065   3.670  12.885  0.00  0.00    +0.000 C 
ATOM     27  C   UNL     1       7.339   4.454  12.558  0.00  0.00    +0.000 C 
ATOM     28  C   UNL     1       7.554   5.410  13.731  0.00  0.00    +0.000 C 
ENDBRANCH  22  24
ENDBRANCH  21  22
ENDBRANCH   3  21
TORSDOF 5
ENDMDL
MODEL 9
REMARK VINA RESULT:      -7.5      3.380      5.409
REMARK  Name = 
REMARK  6 active torsions:
REMARK  status: ('A' for Active; 'I' for Inactive)
REMARK    1  A    between atoms: C_1  and  C_2
REMARK    2  A    between atoms: C_3  and  C_4
REMARK    3  A    between atoms: C_4  and  N_5
REMARK    4  A    between atoms: N_5  and  C_6
REMARK    5  A    between atoms: N_12  and  C_13
REMARK    6  A    between atoms: C_21  and  C_22
REMARK                            x       y       z     vdW  Elec       q    Type
REMARK                         _______ _______ _______ _____ _____    ______ ____
ROOT
ATOM      1  C   UNL     1       4.957   7.210  15.698  0.00  0.00    +0.000 C 
ATOM      2  C   UNL     1       4.686   6.044  16.580  0.00  0.00    +0.000 A 
ATOM      3  C   UNL     1       5.303   4.764  16.511  0.00  0.00    +0.000 A 
ATOM      4  N   UNL     1       4.901   3.973  17.513  0.00  0.00    +0.000 NA
ATOM      5  N   UNL     1       3.880   4.644  18.109  0.00  0.00    +0.000 N 
ATOM      6  C   UNL     1       3.819   5.973  17.674  0.00  0.00    +0.000 A 
ENDROOT
BRANCH   5   7
ATOM      7  C   UNL     1       3.110   3.952  19.090  0.00  0.00    +0.000 A 
ATOM      8  C   UNL     1       3.801   3.423  20.201  0.00  0.00    +0.000 A 
ATOM      9  C   UNL     1       3.110   2.780  21.230  0.00  0.00    +0.000 A 
ATOM     10  C   UNL     1       1.727   2.657  21.159  0.00  0.00    +0.000 A 
ATOM     11 CL   UNL     1       0.871   1.860  22.420  0.00  0.00    +0.000 Cl
ATOM     12  C   UNL     1       1.034   3.141  20.051  0.00  0.00    +0.000 A 
ATOM     13  C   UNL     1       1.725   3.756  18.998  0.00  0.00    +0.000 A 
ATOM     14 CL   UNL     1       0.800   4.027  17.561  0.00  0.00    +0.000 Cl
ENDBRANCH   5   7
BRANCH   6  15
ATOM     15  C   UNL     1       3.022   7.052  18.300  0.00  0.00    +0.000 A 
ATOM     16  C   UNL     1       2.651   7.006  19.647  0.00  0.00    +0.000 A 
ATOM     17  C   UNL     1       1.825   8.001  20.152  0.00  0.00    +0.000 A 
ATOM     18  N   UNL     1       1.392   9.054  19.427  0.00  0.00    +0.000 NA
ATOM     19  C   UNL     1       1.786   9.107  18.142  0.00  0.00    +0.000 A 
ATOM     20  C   UNL     1       2.586   8.144  17.543  0.00  0.00    +0.000 A 
ENDBRANCH   6  15
BRANCH   3  21
ATOM     21  C   UNL     1       6.309   4.260  15.507  0.00  0.00    +0.000 C 
BRANCH  21  22
ATOM     22  N   UNL     1       5.870   4.484  14.119  0.00  0.00    +0.000 NA
ATOM     23  H   UNL     1       6.418   5.274  13.772  0.00  0.00    +0.000 HD
BRANCH  22  24
ATOM     24  C   UNL     1       6.097   3.346  13.233  0.00  0.00    +0.000 C 
ATOM     25  C   UNL     1       4.964   3.004  12.266  0.00  0.00    +0.000 C 
ATOM     26  C   UNL     1       5.641   2.052  11.284  0.00  0.00    +0.000 C 
ATOM     27  C   UNL     1       7.102   2.507  11.212  0.00  0.00    +0.000 C 
ATOM     28  C   UNL     1       7.247   3.612  12.258  0.00  0.00    +0.000 C 
ENDBRANCH  22  24
ENDBRANCH  21  22
ENDBRANCH   3  21
TORSDOF 5
ENDMDL
