MODEL 1
REMARK VINA RESULT:      -7.6      0.000      0.000
REMARK  Name = 
REMARK  5 active torsions:
REMARK  status: ('A' for Active; 'I' for Inactive)
REMARK    1  A    between atoms: C_2  and  C_4
REMARK    2  A    between atoms: C_4  and  O_5
REMARK    3  A    between atoms: O_5  and  C_6
REMARK    4  A    between atoms: C_10  and  C_11
REMARK    5  A    between atoms: C_17  and  N_18
REMARK                            x       y       z     vdW  Elec       q    Type
REMARK                         _______ _______ _______ _____ _____    ______ ____
ROOT
ATOM      1  C   UNL     1       5.650   4.452  15.282  0.00  0.00    +0.000 A 
ATOM      2  C   UNL     1       6.961   4.838  15.569  0.00  0.00    +0.000 A 
ATOM      3  C   UNL     1       7.410   4.905  16.888  0.00  0.00    +0.000 A 
ATOM      4  C   UNL     1       6.561   4.531  17.927  0.00  0.00    +0.000 A 
ATOM      5  C   UNL     1       5.256   4.104  17.649  0.00  0.00    +0.000 A 
ATOM      6  C   UNL     1       4.788   4.120  16.327  0.00  0.00    +0.000 A 
ENDROOT
BRANCH   5   7
ATOM      7  C   UNL     1       4.383   3.727  18.797  0.00  0.00    +0.000 C 
ATOM      8  O   UNL     1       4.319   2.529  19.075  0.00  0.00    +0.000 OA
ATOM      9  N   UNL     1       3.672   4.694  19.508  0.00  0.00    +0.000 N 
ATOM     10  C   UNL     1       3.069   4.317  20.785  0.00  0.00    +0.000 C 
ATOM     11  C   UNL     1       1.581   4.644  20.800  0.00  0.00    +0.000 C 
ATOM     12  C   UNL     1       1.342   6.125  20.502  0.00  0.00    +0.000 C 
ATOM     13  C   UNL     1       2.013   6.540  19.187  0.00  0.00    +0.000 C 
ATOM     14  C   UNL     1       3.487   6.103  19.133  0.00  0.00    +0.000 C 
BRANCH  13  15
ATOM     15  N   UNL     1       1.874   7.971  18.940  0.00  0.00    +0.000 N 
ATOM     16  C   UNL     1       2.274   8.654  17.826  0.00  0.00    +0.000 A 
ATOM     17  C   UNL     1       1.953   9.972  18.049  0.00  0.00    +0.000 A 
ATOM     18  C   UNL     1       1.367   9.987  19.325  0.00  0.00    +0.000 A 
ATOM     19  N   UNL     1       1.322   8.772  19.872  0.00  0.00    +0.000 NA
ENDBRANCH  13  15
ENDBRANCH   5   7
BRANCH   1  20
ATOM     20  O   UNL     1       5.345   4.402  13.948  0.00  0.00    +0.000 OA
BRANCH  20  21
ATOM     21  C   UNL     1       6.178   3.606  13.113  0.00  0.00    +0.000 C 
BRANCH  21  23
ATOM     22  N   UNL     1       6.074   1.713  11.553  0.00  0.00    +0.000 N 
ATOM     23  C   UNL     1       5.458   2.845  12.004  0.00  0.00    +0.000 C 
ATOM     24  O   UNL     1       4.412   3.239  11.504  0.00  0.00    +0.000 OA
ATOM     25  H   UNL     1       5.564   1.141  10.887  0.00  0.00    +0.000 HD
ATOM     26  H   UNL     1       6.834   1.297  12.073  0.00  0.00    +0.000 HD
ENDBRANCH  21  23
ENDBRANCH  20  21
ENDBRANCH   1  20
TORSDOF 5
ENDMDL
MODEL 2
REMARK VINA RESULT:      -7.0      3.294      7.504
REMARK  Name = 
REMARK  5 active torsions:
REMARK  status: ('A' for Active; 'I' for Inactive)
REMARK    1  A    between atoms: C_2  and  C_4
REMARK    2  A    between atoms: C_4  and  O_5
REMARK    3  A    between atoms: O_5  and  C_6
REMARK    4  A    between atoms: C_10  and  C_11
REMARK    5  A    between atoms: C_17  and  N_18
REMARK                            x       y       z     vdW  Elec       q    Type
REMARK                         _______ _______ _______ _____ _____    ______ ____
ROOT
ATOM      1  C   UNL     1       1.972   6.612  20.053  0.00  0.00    +0.000 A 
ATOM      2  C   UNL     1       1.384   5.713  20.945  0.00  0.00    +0.000 A 
ATOM      3  C   UNL     1       1.375   4.345  20.673  0.00  0.00    +0.000 A 
ATOM      4  C   UNL     1       2.006   3.863  19.527  0.00  0.00    +0.000 A 
ATOM      5  C   UNL     1       2.634   4.752  18.645  0.00  0.00    +0.000 A 
ATOM      6  C   UNL     1       2.564   6.132  18.885  0.00  0.00    +0.000 A 
ENDROOT
BRANCH   5   7
ATOM      7  C   UNL     1       3.283   4.188  17.428  0.00  0.00    +0.000 C 
ATOM      8  O   UNL     1       2.834   3.124  17.002  0.00  0.00    +0.000 OA
ATOM      9  N   UNL     1       4.354   4.841  16.815  0.00  0.00    +0.000 N 
ATOM     10  C   UNL     1       4.762   4.408  15.480  0.00  0.00    +0.000 C 
ATOM     11  C   UNL     1       6.247   4.068  15.451  0.00  0.00    +0.000 C 
ATOM     12  C   UNL     1       7.091   5.253  15.920  0.00  0.00    +0.000 C 
ATOM     13  C   UNL     1       6.636   5.744  17.300  0.00  0.00    +0.000 C 
ATOM     14  C   UNL     1       5.117   5.976  17.355  0.00  0.00    +0.000 C 
BRANCH  13  15
ATOM     15  N   UNL     1       7.370   6.934  17.716  0.00  0.00    +0.000 N 
ATOM     16  C   UNL     1       8.218   7.043  18.783  0.00  0.00    +0.000 A 
ATOM     17  C   UNL     1       8.659   8.346  18.789  0.00  0.00    +0.000 A 
ATOM     18  C   UNL     1       8.021   8.946  17.691  0.00  0.00    +0.000 A 
ATOM     19  N   UNL     1       7.232   8.091  17.040  0.00  0.00    +0.000 NA
ENDBRANCH  13  15
ENDBRANCH   5   7
BRANCH   1  20
ATOM     20  O   UNL     1       1.937   7.922  20.451  0.00  0.00    +0.000 OA
BRANCH  20  21
ATOM     21  C   UNL     1       0.748   8.385  21.082  0.00  0.00    +0.000 C 
BRANCH  21  23
ATOM     22  N   UNL     1      -0.182   9.349  23.139  0.00  0.00    +0.000 N 
ATOM     23  C   UNL     1       0.948   9.094  22.418  0.00  0.00    +0.000 C 
ATOM     24  O   UNL     1       2.048   9.461  22.812  0.00  0.00    +0.000 OA
ATOM     25  H   UNL     1      -0.061   9.729  24.072  0.00  0.00    +0.000 HD
ATOM     26  H   UNL     1      -1.057   8.900  22.904  0.00  0.00    +0.000 HD
ENDBRANCH  21  23
ENDBRANCH  20  21
ENDBRANCH   1  20
TORSDOF 5
ENDMDL
MODEL 3
REMARK VINA RESULT:      -6.9      1.072      1.352
REMARK  Name = 
REMARK  5 active torsions:
REMARK  status: ('A' for Active; 'I' for Inactive)
REMARK    1  A    between atoms: C_2  and  C_4
REMARK    2  A    between atoms: C_4  and  O_5
REMARK    3  A    between atoms: O_5  and  C_6
REMARK    4  A    between atoms: C_10  and  C_11
REMARK    5  A    between atoms: C_17  and  N_18
REMARK                            x       y       z     vdW  Elec       q    Type
REMARK                         _______ _______ _______ _____ _____    ______ ____
ROOT
ATOM      1  C   UNL     1       6.167   4.963  15.748  0.00  0.00    +0.000 A 
ATOM      2  C   UNL     1       7.262   5.588  16.349  0.00  0.00    +0.000 A 
ATOM      3  C   UNL     1       7.420   5.567  17.735  0.00  0.00    +0.000 A 
ATOM      4  C   UNL     1       6.508   4.870  18.524  0.00  0.00    +0.000 A 
ATOM      5  C   UNL     1       5.427   4.205  17.930  0.00  0.00    +0.000 A 
ATOM      6  C   UNL     1       5.231   4.304  16.545  0.00  0.00    +0.000 A 
ENDROOT
BRANCH   5   7
ATOM      7  C   UNL     1       4.473   3.486  18.819  0.00  0.00    +0.000 C 
ATOM      8  O   UNL     1       4.465   2.257  18.745  0.00  0.00    +0.000 OA
ATOM      9  N   UNL     1       3.629   4.183  19.685  0.00  0.00    +0.000 N 
ATOM     10  C   UNL     1       2.930   3.436  20.729  0.00  0.00    +0.000 C 
ATOM     11  C   UNL     1       1.429   3.689  20.662  0.00  0.00    +0.000 C 
ATOM     12  C   UNL     1       1.118   5.182  20.761  0.00  0.00    +0.000 C 
ATOM     13  C   UNL     1       1.887   5.979  19.700  0.00  0.00    +0.000 C 
ATOM     14  C   UNL     1       3.385   5.633  19.696  0.00  0.00    +0.000 C 
BRANCH  13  15
ATOM     15  N   UNL     1       1.673   7.415  19.845  0.00  0.00    +0.000 N 
ATOM     16  C   UNL     1       1.244   8.070  20.965  0.00  0.00    +0.000 A 
ATOM     17  C   UNL     1       1.178   9.402  20.627  0.00  0.00    +0.000 A 
ATOM     18  C   UNL     1       1.583   9.451  19.283  0.00  0.00    +0.000 A 
ATOM     19  N   UNL     1       1.880   8.243  18.803  0.00  0.00    +0.000 NA
ENDBRANCH  13  15
ENDBRANCH   5   7
BRANCH   1  20
ATOM     20  O   UNL     1       6.144   5.035  14.381  0.00  0.00    +0.000 OA
BRANCH  20  21
ATOM     21  C   UNL     1       5.652   3.903  13.672  0.00  0.00    +0.000 C 
BRANCH  21  23
ATOM     22  N   UNL     1       6.201   2.276  11.917  0.00  0.00    +0.000 N 
ATOM     23  C   UNL     1       6.436   3.524  12.419  0.00  0.00    +0.000 C 
ATOM     24  O   UNL     1       7.264   4.267  11.908  0.00  0.00    +0.000 OA
ATOM     25  H   UNL     1       6.637   2.043  11.031  0.00  0.00    +0.000 HD
ATOM     26  H   UNL     1       5.405   1.736  12.228  0.00  0.00    +0.000 HD
ENDBRANCH  21  23
ENDBRANCH  20  21
ENDBRANCH   1  20
TORSDOF 5
ENDMDL
MODEL 4
REMARK VINA RESULT:      -6.9      4.648      7.102
REMARK  Name = 
REMARK  5 active torsions:
REMARK  status: ('A' for Active; 'I' for Inactive)
REMARK    1  A    between atoms: C_2  and  C_4
REMARK    2  A    between atoms: C_4  and  O_5
REMARK    3  A    between atoms: O_5  and  C_6
REMARK    4  A    between atoms: C_10  and  C_11
REMARK    5  A    between atoms: C_17  and  N_18
REMARK                            x       y       z     vdW  Elec       q    Type
REMARK                         _______ _______ _______ _____ _____    ______ ____
ROOT
ATOM      1  C   UNL     1       2.137   6.539  19.994  0.00  0.00    +0.000 A 
ATOM      2  C   UNL     1       2.595   6.713  18.686  0.00  0.00    +0.000 A 
ATOM      3  C   UNL     1       2.438   7.938  18.036  0.00  0.00    +0.000 A 
ATOM      4  C   UNL     1       1.868   9.013  18.714  0.00  0.00    +0.000 A 
ATOM      5  C   UNL     1       1.441   8.862  20.039  0.00  0.00    +0.000 A 
ATOM      6  C   UNL     1       1.528   7.605  20.656  0.00  0.00    +0.000 A 
ENDROOT
BRANCH   5   7
ATOM      7  C   UNL     1       0.828  10.039  20.715  0.00  0.00    +0.000 C 
ATOM      8  O   UNL     1       1.131  10.223  21.894  0.00  0.00    +0.000 OA
ATOM      9  N   UNL     1      -0.055  10.880  20.036  0.00  0.00    +0.000 N 
ATOM     10  C   UNL     1      -0.399  12.165  20.642  0.00  0.00    +0.000 C 
ATOM     11  C   UNL     1      -1.910  12.322  20.760  0.00  0.00    +0.000 C 
ATOM     12  C   UNL     1      -2.586  12.165  19.397  0.00  0.00    +0.000 C 
ATOM     13  C   UNL     1      -2.191  10.840  18.733  0.00  0.00    +0.000 C 
ATOM     14  C   UNL     1      -0.666  10.636  18.722  0.00  0.00    +0.000 C 
BRANCH  13  15
ATOM     15  N   UNL     1      -2.752  10.723  17.391  0.00  0.00    +0.000 N 
ATOM     16  C   UNL     1      -2.284   9.941  16.373  0.00  0.00    +0.000 A 
ATOM     17  C   UNL     1      -3.119  10.168  15.302  0.00  0.00    +0.000 A 
ATOM     18  C   UNL     1      -4.056  11.103  15.771  0.00  0.00    +0.000 A 
ATOM     19  N   UNL     1      -3.833  11.446  17.040  0.00  0.00    +0.000 NA
ENDBRANCH  13  15
ENDBRANCH   5   7
BRANCH   1  20
ATOM     20  O   UNL     1       2.377   5.300  20.526  0.00  0.00    +0.000 OA
BRANCH  20  21
ATOM     21  C   UNL     1       2.561   4.220  19.618  0.00  0.00    +0.000 C 
BRANCH  21  23
ATOM     22  N   UNL     1       0.495   3.097  20.324  0.00  0.00    +0.000 N 
ATOM     23  C   UNL     1       1.300   3.432  19.274  0.00  0.00    +0.000 C 
ATOM     24  O   UNL     1       1.037   3.073  18.134  0.00  0.00    +0.000 OA
ATOM     25  H   UNL     1      -0.395   2.660  20.104  0.00  0.00    +0.000 HD
ATOM     26  H   UNL     1       0.616   3.534  21.227  0.00  0.00    +0.000 HD
ENDBRANCH  21  23
ENDBRANCH  20  21
ENDBRANCH   1  20
TORSDOF 5
ENDMDL
MODEL 5
REMARK VINA RESULT:      -6.8      2.753      6.717
REMARK  Name = 
REMARK  5 active torsions:
REMARK  status: ('A' for Active; 'I' for Inactive)
REMARK    1  A    between atoms: C_2  and  C_4
REMARK    2  A    between atoms: C_4  and  O_5
REMARK    3  A    between atoms: O_5  and  C_6
REMARK    4  A    between atoms: C_10  and  C_11
REMARK    5  A    between atoms: C_17  and  N_18
REMARK                            x       y       z     vdW  Elec       q    Type
REMARK                         _______ _______ _______ _____ _____    ______ ____
ROOT
ATOM      1  C   UNL     1       1.824   5.039  20.404  0.00  0.00    +0.000 A 
ATOM      2  C   UNL     1       2.099   4.167  21.460  0.00  0.00    +0.000 A 
ATOM      3  C   UNL     1       2.813   2.989  21.241  0.00  0.00    +0.000 A 
ATOM      4  C   UNL     1       3.305   2.704  19.969  0.00  0.00    +0.000 A 
ATOM      5  C   UNL     1       3.070   3.590  18.909  0.00  0.00    +0.000 A 
ATOM      6  C   UNL     1       2.280   4.729  19.122  0.00  0.00    +0.000 A 
ENDROOT
BRANCH   5   7
ATOM      7  C   UNL     1       3.606   3.233  17.566  0.00  0.00    +0.000 C 
ATOM      8  O   UNL     1       3.240   2.158  17.090  0.00  0.00    +0.000 OA
ATOM      9  N   UNL     1       4.487   4.082  16.894  0.00  0.00    +0.000 N 
ATOM     10  C   UNL     1       4.753   3.831  15.479  0.00  0.00    +0.000 C 
ATOM     11  C   UNL     1       6.250   3.706  15.222  0.00  0.00    +0.000 C 
ATOM     12  C   UNL     1       6.994   4.952  15.703  0.00  0.00    +0.000 C 
ATOM     13  C   UNL     1       6.681   5.251  17.174  0.00  0.00    +0.000 C 
ATOM     14  C   UNL     1       5.168   5.260  17.449  0.00  0.00    +0.000 C 
BRANCH  13  15
ATOM     15  N   UNL     1       7.309   6.491  17.617  0.00  0.00    +0.000 N 
ATOM     16  C   UNL     1       8.093   6.663  18.724  0.00  0.00    +0.000 A 
ATOM     17  C   UNL     1       8.442   7.994  18.741  0.00  0.00    +0.000 A 
ATOM     18  C   UNL     1       7.819   8.543  17.609  0.00  0.00    +0.000 A 
ATOM     19  N   UNL     1       7.125   7.632  16.926  0.00  0.00    +0.000 NA
ENDBRANCH  13  15
ENDBRANCH   5   7
BRANCH   1  20
ATOM     20  O   UNL     1       1.139   6.171  20.757  0.00  0.00    +0.000 OA
BRANCH  20  21
ATOM     21  C   UNL     1       1.876   7.385  20.839  0.00  0.00    +0.000 C 
BRANCH  21  23
ATOM     22  N   UNL     1       0.856   9.430  19.943  0.00  0.00    +0.000 N 
ATOM     23  C   UNL     1       1.663   8.361  19.685  0.00  0.00    +0.000 C 
ATOM     24  O   UNL     1       2.145   8.183  18.574  0.00  0.00    +0.000 OA
ATOM     25  H   UNL     1       0.782  10.140  19.221  0.00  0.00    +0.000 HD
ATOM     26  H   UNL     1       0.603   9.669  20.892  0.00  0.00    +0.000 HD
ENDBRANCH  21  23
ENDBRANCH  20  21
ENDBRANCH   1  20
TORSDOF 5
ENDMDL
MODEL 6
REMARK VINA RESULT:      -6.8      3.144      6.902
REMARK  Name = 
REMARK  5 active torsions:
REMARK  status: ('A' for Active; 'I' for Inactive)
REMARK    1  A    between atoms: C_2  and  C_4
REMARK    2  A    between atoms: C_4  and  O_5
REMARK    3  A    between atoms: O_5  and  C_6
REMARK    4  A    between atoms: C_10  and  C_11
REMARK    5  A    between atoms: C_17  and  N_18
REMARK                            x       y       z     vdW  Elec       q    Type
REMARK                         _______ _______ _______ _____ _____    ______ ____
ROOT
ATOM      1  C   UNL     1       1.895   6.221  19.948  0.00  0.00    +0.000 A 
ATOM      2  C   UNL     1       1.482   5.312  20.924  0.00  0.00    +0.000 A 
ATOM      3  C   UNL     1       1.660   3.941  20.738  0.00  0.00    +0.000 A 
ATOM      4  C   UNL     1       2.303   3.475  19.593  0.00  0.00    +0.000 A 
ATOM      5  C   UNL     1       2.757   4.380  18.625  0.00  0.00    +0.000 A 
ATOM      6  C   UNL     1       2.500   5.750  18.782  0.00  0.00    +0.000 A 
ENDROOT
BRANCH   5   7
ATOM      7  C   UNL     1       3.428   3.831  17.414  0.00  0.00    +0.000 C 
ATOM      8  O   UNL     1       3.027   2.741  17.003  0.00  0.00    +0.000 OA
ATOM      9  N   UNL     1       4.465   4.524  16.787  0.00  0.00    +0.000 N 
ATOM     10  C   UNL     1       4.887   4.093  15.456  0.00  0.00    +0.000 C 
ATOM     11  C   UNL     1       6.386   3.822  15.426  0.00  0.00    +0.000 C 
ATOM     12  C   UNL     1       7.176   5.051  15.875  0.00  0.00    +0.000 C 
ATOM     13  C   UNL     1       6.704   5.540  17.250  0.00  0.00    +0.000 C 
ATOM     14  C   UNL     1       5.176   5.701  17.308  0.00  0.00    +0.000 C 
BRANCH  13  15
ATOM     15  N   UNL     1       7.383   6.769  17.647  0.00  0.00    +0.000 N 
ATOM     16  C   UNL     1       8.183   6.947  18.741  0.00  0.00    +0.000 A 
ATOM     17  C   UNL     1       8.582   8.263  18.712  0.00  0.00    +0.000 A 
ATOM     18  C   UNL     1       7.971   8.798  17.567  0.00  0.00    +0.000 A 
ATOM     19  N   UNL     1       7.236   7.893  16.920  0.00  0.00    +0.000 NA
ENDBRANCH  13  15
ENDBRANCH   5   7
BRANCH   1  20
ATOM     20  O   UNL     1       1.689   7.537  20.265  0.00  0.00    +0.000 OA
BRANCH  20  21
ATOM     21  C   UNL     1       1.865   8.497  19.229  0.00  0.00    +0.000 C 
BRANCH  21  23
ATOM     22  N   UNL     1       0.947  10.526  18.195  0.00  0.00    +0.000 N 
ATOM     23  C   UNL     1       0.918   9.693  19.276  0.00  0.00    +0.000 C 
ATOM     24  O   UNL     1       0.201   9.929  20.240  0.00  0.00    +0.000 OA
ATOM     25  H   UNL     1       0.256  11.268  18.163  0.00  0.00    +0.000 HD
ATOM     26  H   UNL     1       1.400  10.243  17.338  0.00  0.00    +0.000 HD
ENDBRANCH  21  23
ENDBRANCH  20  21
ENDBRANCH   1  20
TORSDOF 5
ENDMDL
MODEL 7
REMARK VINA RESULT:      -6.7      4.019      8.092
REMARK  Name = 
REMARK  5 active torsions:
REMARK  status: ('A' for Active; 'I' for Inactive)
REMARK    1  A    between atoms: C_2  and  C_4
REMARK    2  A    between atoms: C_4  and  O_5
REMARK    3  A    between atoms: O_5  and  C_6
REMARK    4  A    between atoms: C_10  and  C_11
REMARK    5  A    between atoms: C_17  and  N_18
REMARK                            x       y       z     vdW  Elec       q    Type
REMARK                         _______ _______ _______ _____ _____    ______ ____
ROOT
ATOM      1  C   UNL     1      -0.599  10.375  19.536  0.00  0.00    +0.000 A 
ATOM      2  C   UNL     1      -0.503  10.020  20.883  0.00  0.00    +0.000 A 
ATOM      3  C   UNL     1       0.481   9.130  21.314  0.00  0.00    +0.000 A 
ATOM      4  C   UNL     1       1.411   8.631  20.404  0.00  0.00    +0.000 A 
ATOM      5  C   UNL     1       1.349   9.011  19.057  0.00  0.00    +0.000 A 
ATOM      6  C   UNL     1       0.306   9.840  18.618  0.00  0.00    +0.000 A 
ENDROOT
BRANCH   5   7
ATOM      7  C   UNL     1       2.358   8.440  18.121  0.00  0.00    +0.000 C 
ATOM      8  O   UNL     1       2.583   9.076  17.092  0.00  0.00    +0.000 OA
ATOM      9  N   UNL     1       3.004   7.236  18.407  0.00  0.00    +0.000 N 
ATOM     10  C   UNL     1       4.177   6.870  17.615  0.00  0.00    +0.000 C 
ATOM     11  C   UNL     1       4.008   5.484  17.005  0.00  0.00    +0.000 C 
ATOM     12  C   UNL     1       3.734   4.438  18.087  0.00  0.00    +0.000 C 
ATOM     13  C   UNL     1       2.534   4.840  18.954  0.00  0.00    +0.000 C 
ATOM     14  C   UNL     1       2.658   6.283  19.471  0.00  0.00    +0.000 C 
BRANCH  13  15
ATOM     15  N   UNL     1       2.322   3.899  20.048  0.00  0.00    +0.000 N 
ATOM     16  C   UNL     1       3.225   2.999  20.542  0.00  0.00    +0.000 A 
ATOM     17  C   UNL     1       2.578   2.324  21.551  0.00  0.00    +0.000 A 
ATOM     18  C   UNL     1       1.290   2.883  21.588  0.00  0.00    +0.000 A 
ATOM     19  N   UNL     1       1.130   3.839  20.672  0.00  0.00    +0.000 NA
ENDBRANCH  13  15
ENDBRANCH   5   7
BRANCH   1  20
ATOM     20  O   UNL     1      -1.589  11.276  19.248  0.00  0.00    +0.000 OA
BRANCH  20  21
ATOM     21  C   UNL     1      -1.615  11.828  17.937  0.00  0.00    +0.000 C 
BRANCH  21  23
ATOM     22  N   UNL     1      -3.844  11.822  16.907  0.00  0.00    +0.000 N 
ATOM     23  C   UNL     1      -2.629  11.204  16.983  0.00  0.00    +0.000 C 
ATOM     24  O   UNL     1      -2.397  10.182  16.351  0.00  0.00    +0.000 OA
ATOM     25  H   UNL     1      -4.494  11.481  16.207  0.00  0.00    +0.000 HD
ATOM     26  H   UNL     1      -3.976  12.748  17.288  0.00  0.00    +0.000 HD
ENDBRANCH  21  23
ENDBRANCH  20  21
ENDBRANCH   1  20
TORSDOF 5
ENDMDL
MODEL 8
REMARK VINA RESULT:      -6.7      3.888      6.842
REMARK  Name = 
REMARK  5 active torsions:
REMARK  status: ('A' for Active; 'I' for Inactive)
REMARK    1  A    between atoms: C_2  and  C_4
REMARK    2  A    between atoms: C_4  and  O_5
REMARK    3  A    between atoms: O_5  and  C_6
REMARK    4  A    between atoms: C_10  and  C_11
REMARK    5  A    between atoms: C_17  and  N_18
REMARK                            x       y       z     vdW  Elec       q    Type
REMARK                         _______ _______ _______ _____ _____    ______ ____
ROOT
ATOM      1  C   UNL     1       2.419   6.715  19.574  0.00  0.00    +0.000 A 
ATOM      2  C   UNL     1       2.799   6.992  18.259  0.00  0.00    +0.000 A 
ATOM      3  C   UNL     1       2.513   8.230  17.682  0.00  0.00    +0.000 A 
ATOM      4  C   UNL     1       1.889   9.218  18.440  0.00  0.00    +0.000 A 
ATOM      5  C   UNL     1       1.538   8.966  19.773  0.00  0.00    +0.000 A 
ATOM      6  C   UNL     1       1.755   7.692  20.317  0.00  0.00    +0.000 A 
ENDROOT
BRANCH   5   7
ATOM      7  C   UNL     1       0.862  10.052  20.536  0.00  0.00    +0.000 C 
ATOM      8  O   UNL     1       1.163  10.166  21.724  0.00  0.00    +0.000 OA
ATOM      9  N   UNL     1      -0.072  10.889  19.923  0.00  0.00    +0.000 N 
ATOM     10  C   UNL     1      -0.485  12.104  20.624  0.00  0.00    +0.000 C 
ATOM     11  C   UNL     1      -2.002  12.164  20.756  0.00  0.00    +0.000 C 
ATOM     12  C   UNL     1      -2.677  12.070  19.387  0.00  0.00    +0.000 C 
ATOM     13  C   UNL     1      -2.210  10.823  18.625  0.00  0.00    +0.000 C 
ATOM     14  C   UNL     1      -0.677  10.709  18.596  0.00  0.00    +0.000 C 
BRANCH  13  15
ATOM     15  N   UNL     1      -2.773  10.773  17.280  0.00  0.00    +0.000 N 
ATOM     16  C   UNL     1      -3.949  11.330  16.862  0.00  0.00    +0.000 A 
ATOM     17  C   UNL     1      -4.071  11.012  15.530  0.00  0.00    +0.000 A 
ATOM     18  C   UNL     1      -2.923  10.259  15.235  0.00  0.00    +0.000 A 
ATOM     19  N   UNL     1      -2.134  10.107  16.299  0.00  0.00    +0.000 NA
ENDBRANCH  13  15
ENDBRANCH   5   7
BRANCH   1  20
ATOM     20  O   UNL     1       2.783   5.476  20.029  0.00  0.00    +0.000 OA
BRANCH  20  21
ATOM     21  C   UNL     1       4.015   4.940  19.559  0.00  0.00    +0.000 C 
BRANCH  21  23
ATOM     22  N   UNL     1       4.883   2.649  19.717  0.00  0.00    +0.000 N 
ATOM     23  C   UNL     1       3.971   3.476  19.129  0.00  0.00    +0.000 C 
ATOM     24  O   UNL     1       3.199   3.063  18.274  0.00  0.00    +0.000 OA
ATOM     25  H   UNL     1       4.805   1.657  19.519  0.00  0.00    +0.000 HD
ATOM     26  H   UNL     1       5.395   2.945  20.537  0.00  0.00    +0.000 HD
ENDBRANCH  21  23
ENDBRANCH  20  21
ENDBRANCH   1  20
TORSDOF 5
ENDMDL
MODEL 9
REMARK VINA RESULT:      -6.7      4.155      6.421
REMARK  Name = 
REMARK  5 active torsions:
REMARK  status: ('A' for Active; 'I' for Inactive)
REMARK    1  A    between atoms: C_2  and  C_4
REMARK    2  A    between atoms: C_4  and  O_5
REMARK    3  A    between atoms: O_5  and  C_6
REMARK    4  A    between atoms: C_10  and  C_11
REMARK    5  A    between atoms: C_17  and  N_18
REMARK                            x       y       z     vdW  Elec       q    Type
REMARK                         _______ _______ _______ _____ _____    ______ ____
ROOT
ATOM      1  C   UNL     1       2.303   5.692  19.769  0.00  0.00    +0.000 A 
ATOM      2  C   UNL     1       2.666   5.957  18.447  0.00  0.00    +0.000 A 
ATOM      3  C   UNL     1       2.535   7.241  17.917  0.00  0.00    +0.000 A 
ATOM      4  C   UNL     1       2.088   8.282  18.728  0.00  0.00    +0.000 A 
ATOM      5  C   UNL     1       1.758   8.037  20.068  0.00  0.00    +0.000 A 
ATOM      6  C   UNL     1       1.815   6.727  20.567  0.00  0.00    +0.000 A 
ENDROOT
BRANCH   5   7
ATOM      7  C   UNL     1       1.274   9.181  20.890  0.00  0.00    +0.000 C 
ATOM      8  O   UNL     1       1.615   9.199  22.073  0.00  0.00    +0.000 OA
ATOM      9  N   UNL     1       0.466  10.175  20.335  0.00  0.00    +0.000 N 
ATOM     10  C   UNL     1       0.259  11.408  21.092  0.00  0.00    +0.000 C 
ATOM     11  C   UNL     1      -1.227  11.692  21.270  0.00  0.00    +0.000 C 
ATOM     12  C   UNL     1      -1.939  11.758  19.918  0.00  0.00    +0.000 C 
ATOM     13  C   UNL     1      -1.686  10.488  19.097  0.00  0.00    +0.000 C 
ATOM     14  C   UNL     1      -0.189  10.143  19.020  0.00  0.00    +0.000 C 
BRANCH  13  15
ATOM     15  N   UNL     1      -2.280  10.579  17.768  0.00  0.00    +0.000 N 
ATOM     16  C   UNL     1      -1.954   9.831  16.672  0.00  0.00    +0.000 A 
ATOM     17  C   UNL     1      -2.760  10.278  15.650  0.00  0.00    +0.000 A 
ATOM     18  C   UNL     1      -3.534  11.298  16.226  0.00  0.00    +0.000 A 
ATOM     19  N   UNL     1      -3.241  11.487  17.513  0.00  0.00    +0.000 NA
ENDBRANCH  13  15
ENDBRANCH   5   7
BRANCH   1  20
ATOM     20  O   UNL     1       2.507   4.400  20.173  0.00  0.00    +0.000 OA
BRANCH  20  21
ATOM     21  C   UNL     1       3.090   3.503  19.235  0.00  0.00    +0.000 C 
BRANCH  21  23
ATOM     22  N   UNL     1       5.519   3.664  18.911  0.00  0.00    +0.000 N 
ATOM     23  C   UNL     1       4.503   3.033  19.569  0.00  0.00    +0.000 C 
ATOM     24  O   UNL     1       4.726   2.113  20.345  0.00  0.00    +0.000 OA
ATOM     25  H   UNL     1       6.467   3.435  19.192  0.00  0.00    +0.000 HD
ATOM     26  H   UNL     1       5.352   4.526  18.411  0.00  0.00    +0.000 HD
ENDBRANCH  21  23
ENDBRANCH  20  21
ENDBRANCH   1  20
TORSDOF 5
ENDMDL
