MODEL 1
REMARK VINA RESULT:      -6.9      0.000      0.000
REMARK  Name = 
REMARK  7 active torsions:
REMARK  status: ('A' for Active; 'I' for Inactive)
REMARK    1  A    between atoms: C_1  and  N_2
REMARK    2  A    between atoms: N_2  and  C_3
REMARK    3  A    between atoms: C_3  and  C_4
REMARK    4  A    between atoms: C_4  and  O_5
REMARK    5  A    between atoms: C_4  and  C_6
REMARK    6  A    between atoms: C_6  and  C_7
REMARK    7  A    between atoms: C_6  and  C_13
REMARK                            x       y       z     vdW  Elec       q    Type
REMARK                         _______ _______ _______ _____ _____    ______ ____
ROOT
ATOM      1  C   UNL     1       3.312   4.440  18.690  0.00  0.00    +0.000 C 
ENDROOT
BRANCH   1   2
ATOM      2  C   UNL     1       2.698   5.829  18.902  0.00  0.00    +0.000 A 
ATOM      3  C   UNL     1       2.776   6.779  17.863  0.00  0.00    +0.000 A 
ATOM      4  C   UNL     1       2.326   8.093  18.044  0.00  0.00    +0.000 A 
ATOM      5  C   UNL     1       1.782   8.475  19.265  0.00  0.00    +0.000 A 
ATOM      6 CL   UNL     1       1.251  10.093  19.505  0.00  0.00    +0.000 Cl
ATOM      7  C   UNL     1       1.673   7.553  20.297  0.00  0.00    +0.000 A 
ATOM      8  C   UNL     1       2.127   6.242  20.114  0.00  0.00    +0.000 A 
ENDBRANCH   1   2
BRANCH   1   9
ATOM      9  C   UNL     1       4.650   4.374  17.924  0.00  0.00    +0.000 A 
ATOM     10  C   UNL     1       5.865   4.793  18.501  0.00  0.00    +0.000 A 
ATOM     11  C   UNL     1       7.051   4.851  17.768  0.00  0.00    +0.000 A 
ATOM     12  C   UNL     1       7.046   4.511  16.422  0.00  0.00    +0.000 A 
ATOM     13  C   UNL     1       5.860   4.096  15.822  0.00  0.00    +0.000 A 
ATOM     14  C   UNL     1       4.674   4.017  16.566  0.00  0.00    +0.000 A 
ENDBRANCH   1   9
BRANCH   1  15
ATOM     15  C   UNL     1       2.310   3.408  18.073  0.00  0.00    +0.000 C 
BRANCH  15  16
ATOM     16  O   UNL     1       1.157   4.069  17.520  0.00  0.00    +0.000 OA
ATOM     17  H   UNL     1       0.669   3.406  17.001  0.00  0.00    +0.000 HD
ENDBRANCH  15  16
BRANCH  15  18
ATOM     18  C   UNL     1       1.802   2.298  19.028  0.00  0.00    +0.000 C 
BRANCH  18  20
ATOM     19  C   UNL     1       1.322   2.803  21.368  0.00  0.00    +0.000 C 
ATOM     20  N   UNL     1       0.860   2.894  19.993  0.00  0.00    +0.000 NA
ATOM     21  H   UNL     1      -0.037   2.403  19.927  0.00  0.00    +0.000 HD
ENDBRANCH  18  20
ENDBRANCH  15  18
ENDBRANCH   1  15
TORSDOF 6
ENDMDL
MODEL 2
REMARK VINA RESULT:      -6.8      0.476      1.198
REMARK  Name = 
REMARK  7 active torsions:
REMARK  status: ('A' for Active; 'I' for Inactive)
REMARK    1  A    between atoms: C_1  and  N_2
REMARK    2  A    between atoms: N_2  and  C_3
REMARK    3  A    between atoms: C_3  and  C_4
REMARK    4  A    between atoms: C_4  and  O_5
REMARK    5  A    between atoms: C_4  and  C_6
REMARK    6  A    between atoms: C_6  and  C_7
REMARK    7  A    between atoms: C_6  and  C_13
REMARK                            x       y       z     vdW  Elec       q    Type
REMARK                         _______ _______ _______ _____ _____    ______ ____
ROOT
ATOM      1  C   UNL     1       3.481   4.477  18.493  0.00  0.00    +0.000 C 
ENDROOT
BRANCH   1   2
ATOM      2  C   UNL     1       2.960   5.891  18.780  0.00  0.00    +0.000 A 
ATOM      3  C   UNL     1       2.299   6.144  19.999  0.00  0.00    +0.000 A 
ATOM      4  C   UNL     1       1.712   7.388  20.263  0.00  0.00    +0.000 A 
ATOM      5  C   UNL     1       1.785   8.402  19.315  0.00  0.00    +0.000 A 
ATOM      6 CL   UNL     1       1.046   9.924  19.619  0.00  0.00    +0.000 Cl
ATOM      7  C   UNL     1       2.450   8.186  18.115  0.00  0.00    +0.000 A 
ATOM      8  C   UNL     1       3.031   6.941  17.852  0.00  0.00    +0.000 A 
ENDBRANCH   1   2
BRANCH   1   9
ATOM      9  C   UNL     1       4.777   4.362  17.664  0.00  0.00    +0.000 A 
ATOM     10  C   UNL     1       6.041   4.670  18.204  0.00  0.00    +0.000 A 
ATOM     11  C   UNL     1       7.196   4.687  17.421  0.00  0.00    +0.000 A 
ATOM     12  C   UNL     1       7.111   4.416  16.063  0.00  0.00    +0.000 A 
ATOM     13  C   UNL     1       5.875   4.110  15.498  0.00  0.00    +0.000 A 
ATOM     14  C   UNL     1       4.720   4.073  16.291  0.00  0.00    +0.000 A 
ENDBRANCH   1   9
BRANCH   1  15
ATOM     15  C   UNL     1       2.392   3.529  17.888  0.00  0.00    +0.000 C 
BRANCH  15  16
ATOM     16  O   UNL     1       1.250   4.274  17.427  0.00  0.00    +0.000 OA
ATOM     17  H   UNL     1       1.588   5.049  16.947  0.00  0.00    +0.000 HD
ENDBRANCH  15  16
BRANCH  15  18
ATOM     18  C   UNL     1       1.875   2.404  18.820  0.00  0.00    +0.000 C 
BRANCH  18  20
ATOM     19  C   UNL     1       1.553   2.675  21.226  0.00  0.00    +0.000 C 
ATOM     20  N   UNL     1       2.513   2.550  20.141  0.00  0.00    +0.000 NA
ATOM     21  H   UNL     1       3.095   3.394  20.137  0.00  0.00    +0.000 HD
ENDBRANCH  18  20
ENDBRANCH  15  18
ENDBRANCH   1  15
TORSDOF 6
ENDMDL
MODEL 3
REMARK VINA RESULT:      -6.8      2.041      4.405
REMARK  Name = 
REMARK  7 active torsions:
REMARK  status: ('A' for Active; 'I' for Inactive)
REMARK    1  A    between atoms: C_1  and  N_2
REMARK    2  A    between atoms: N_2  and  C_3
REMARK    3  A    between atoms: C_3  and  C_4
REMARK    4  A    between atoms: C_4  and  O_5
REMARK    5  A    between atoms: C_4  and  C_6
REMARK    6  A    between atoms: C_6  and  C_7
REMARK    7  A    between atoms: C_6  and  C_13
REMARK                            x       y       z     vdW  Elec       q    Type
REMARK                         _______ _______ _______ _____ _____    ______ ____
ROOT
ATOM      1  C   UNL     1       2.932   5.924  18.211  0.00  0.00    +0.000 C 
ENDROOT
BRANCH   1   2
ATOM      2  C   UNL     1       2.375   7.304  18.580  0.00  0.00    +0.000 A 
ATOM      3  C   UNL     1       1.984   7.553  19.912  0.00  0.00    +0.000 A 
ATOM      4  C   UNL     1       1.370   8.758  20.277  0.00  0.00    +0.000 A 
ATOM      5  C   UNL     1       1.149   9.739  19.317  0.00  0.00    +0.000 A 
ATOM      6 CL   UNL     1       0.374  11.212  19.750  0.00  0.00    +0.000 Cl
ATOM      7  C   UNL     1       1.545   9.528  18.003  0.00  0.00    +0.000 A 
ATOM      8  C   UNL     1       2.153   8.321  17.641  0.00  0.00    +0.000 A 
ENDBRANCH   1   2
BRANCH   1   9
ATOM      9  C   UNL     1       2.415   4.719  19.025  0.00  0.00    +0.000 A 
ATOM     10  C   UNL     1       1.441   3.836  18.520  0.00  0.00    +0.000 A 
ATOM     11  C   UNL     1       0.884   2.823  19.302  0.00  0.00    +0.000 A 
ATOM     12  C   UNL     1       1.274   2.682  20.626  0.00  0.00    +0.000 A 
ATOM     13  C   UNL     1       2.234   3.541  21.156  0.00  0.00    +0.000 A 
ATOM     14  C   UNL     1       2.808   4.544  20.363  0.00  0.00    +0.000 A 
ENDBRANCH   1   9
BRANCH   1  15
ATOM     15  C   UNL     1       4.496   5.883  18.160  0.00  0.00    +0.000 C 
BRANCH  15  16
ATOM     16  O   UNL     1       5.023   7.001  17.424  0.00  0.00    +0.000 OA
ATOM     17  H   UNL     1       4.436   7.145  16.661  0.00  0.00    +0.000 HD
ENDBRANCH  15  16
BRANCH  15  18
ATOM     18  C   UNL     1       5.124   4.594  17.569  0.00  0.00    +0.000 C 
BRANCH  18  20
ATOM     19  C   UNL     1       7.561   4.614  17.722  0.00  0.00    +0.000 C 
ATOM     20  N   UNL     1       6.313   4.237  18.365  0.00  0.00    +0.000 NA
ATOM     21  H   UNL     1       6.324   3.222  18.506  0.00  0.00    +0.000 HD
ENDBRANCH  18  20
ENDBRANCH  15  18
ENDBRANCH   1  15
TORSDOF 6
ENDMDL
MODEL 4
REMARK VINA RESULT:      -6.8      3.504      5.239
REMARK  Name = 
REMARK  7 active torsions:
REMARK  status: ('A' for Active; 'I' for Inactive)
REMARK    1  A    between atoms: C_1  and  N_2
REMARK    2  A    between atoms: N_2  and  C_3
REMARK    3  A    between atoms: C_3  and  C_4
REMARK    4  A    between atoms: C_4  and  O_5
REMARK    5  A    between atoms: C_4  and  C_6
REMARK    6  A    between atoms: C_6  and  C_7
REMARK    7  A    between atoms: C_6  and  C_13
REMARK                            x       y       z     vdW  Elec       q    Type
REMARK                         _______ _______ _______ _____ _____    ______ ____
ROOT
ATOM      1  C   UNL     1       6.093   5.515  16.108  0.00  0.00    +0.000 C 
ENDROOT
BRANCH   1   2
ATOM      2  C   UNL     1       4.829   5.010  16.815  0.00  0.00    +0.000 A 
ATOM      3  C   UNL     1       3.886   5.946  17.287  0.00  0.00    +0.000 A 
ATOM      4  C   UNL     1       2.772   5.543  18.033  0.00  0.00    +0.000 A 
ATOM      5  C   UNL     1       2.576   4.195  18.310  0.00  0.00    +0.000 A 
ATOM      6 CL   UNL     1       1.224   3.693  19.246  0.00  0.00    +0.000 Cl
ATOM      7  C   UNL     1       3.478   3.250  17.838  0.00  0.00    +0.000 A 
ATOM      8  C   UNL     1       4.593   3.657  17.098  0.00  0.00    +0.000 A 
ENDBRANCH   1   2
BRANCH   1   9
ATOM      9  C   UNL     1       6.412   4.908  14.725  0.00  0.00    +0.000 A 
ATOM     10  C   UNL     1       7.494   5.355  13.942  0.00  0.00    +0.000 A 
ATOM     11  C   UNL     1       7.706   4.894  12.642  0.00  0.00    +0.000 A 
ATOM     12  C   UNL     1       6.821   3.985  12.081  0.00  0.00    +0.000 A 
ATOM     13  C   UNL     1       5.740   3.525  12.829  0.00  0.00    +0.000 A 
ATOM     14  C   UNL     1       5.541   3.973  14.142  0.00  0.00    +0.000 A 
ENDBRANCH   1   9
BRANCH   1  15
ATOM     15  C   UNL     1       7.371   5.454  17.009  0.00  0.00    +0.000 C 
BRANCH  15  16
ATOM     16  O   UNL     1       7.906   4.119  17.066  0.00  0.00    +0.000 OA
ATOM     17  H   UNL     1       7.347   3.562  16.497  0.00  0.00    +0.000 HD
ENDBRANCH  15  16
BRANCH  15  18
ATOM     18  C   UNL     1       7.201   5.954  18.466  0.00  0.00    +0.000 C 
BRANCH  18  20
ATOM     19  C   UNL     1       7.995   8.186  17.872  0.00  0.00    +0.000 C 
ATOM     20  N   UNL     1       8.187   7.021  18.721  0.00  0.00    +0.000 NA
ATOM     21  H   UNL     1       9.127   6.653  18.544  0.00  0.00    +0.000 HD
ENDBRANCH  18  20
ENDBRANCH  15  18
ENDBRANCH   1  15
TORSDOF 6
ENDMDL
MODEL 5
REMARK VINA RESULT:      -6.7      0.481      1.202
REMARK  Name = 
REMARK  7 active torsions:
REMARK  status: ('A' for Active; 'I' for Inactive)
REMARK    1  A    between atoms: C_1  and  N_2
REMARK    2  A    between atoms: N_2  and  C_3
REMARK    3  A    between atoms: C_3  and  C_4
REMARK    4  A    between atoms: C_4  and  O_5
REMARK    5  A    between atoms: C_4  and  C_6
REMARK    6  A    between atoms: C_6  and  C_7
REMARK    7  A    between atoms: C_6  and  C_13
REMARK                            x       y       z     vdW  Elec       q    Type
REMARK                         _______ _______ _______ _____ _____    ______ ____
ROOT
ATOM      1  C   UNL     1       3.444   4.512  18.552  0.00  0.00    +0.000 C 
ENDROOT
BRANCH   1   2
ATOM      2  C   UNL     1       2.760   5.848  18.866  0.00  0.00    +0.000 A 
ATOM      3  C   UNL     1       2.759   6.865  17.890  0.00  0.00    +0.000 A 
ATOM      4  C   UNL     1       2.244   8.138  18.165  0.00  0.00    +0.000 A 
ATOM      5  C   UNL     1       1.711   8.411  19.420  0.00  0.00    +0.000 A 
ATOM      6 CL   UNL     1       1.100   9.978  19.776  0.00  0.00    +0.000 Cl
ATOM      7  C   UNL     1       1.680   7.421  20.393  0.00  0.00    +0.000 A 
ATOM      8  C   UNL     1       2.200   6.152  20.116  0.00  0.00    +0.000 A 
ENDBRANCH   1   2
BRANCH   1   9
ATOM      9  C   UNL     1       4.714   4.563  17.678  0.00  0.00    +0.000 A 
ATOM     10  C   UNL     1       4.704   4.195  16.318  0.00  0.00    +0.000 A 
ATOM     11  C   UNL     1       5.874   4.122  15.563  0.00  0.00    +0.000 A 
ATOM     12  C   UNL     1       7.097   4.396  16.159  0.00  0.00    +0.000 A 
ATOM     13  C   UNL     1       7.141   4.760  17.502  0.00  0.00    +0.000 A 
ATOM     14  C   UNL     1       5.962   4.854  18.254  0.00  0.00    +0.000 A 
ENDBRANCH   1   9
BRANCH   1  15
ATOM     15  C   UNL     1       2.462   3.436  17.979  0.00  0.00    +0.000 C 
BRANCH  15  16
ATOM     16  O   UNL     1       1.178   4.010  17.676  0.00  0.00    +0.000 OA
ATOM     17  H   UNL     1       1.258   4.452  16.813  0.00  0.00    +0.000 HD
ENDBRANCH  15  16
BRANCH  15  18
ATOM     18  C   UNL     1       2.221   2.191  18.871  0.00  0.00    +0.000 C 
BRANCH  18  20
ATOM     19  C   UNL     1       1.467   2.687  21.140  0.00  0.00    +0.000 C 
ATOM     20  N   UNL     1       2.609   2.516  20.256  0.00  0.00    +0.000 NA
ATOM     21  H   UNL     1       3.141   3.392  20.254  0.00  0.00    +0.000 HD
ENDBRANCH  18  20
ENDBRANCH  15  18
ENDBRANCH   1  15
TORSDOF 6
ENDMDL
MODEL 6
REMARK VINA RESULT:      -6.7      3.455      5.307
REMARK  Name = 
REMARK  7 active torsions:
REMARK  status: ('A' for Active; 'I' for Inactive)
REMARK    1  A    between atoms: C_1  and  N_2
REMARK    2  A    between atoms: N_2  and  C_3
REMARK    3  A    between atoms: C_3  and  C_4
REMARK    4  A    between atoms: C_4  and  O_5
REMARK    5  A    between atoms: C_4  and  C_6
REMARK    6  A    between atoms: C_6  and  C_7
REMARK    7  A    between atoms: C_6  and  C_13
REMARK                            x       y       z     vdW  Elec       q    Type
REMARK                         _______ _______ _______ _____ _____    ______ ____
ROOT
ATOM      1  C   UNL     1       5.761   5.340  16.350  0.00  0.00    +0.000 C 
ENDROOT
BRANCH   1   2
ATOM      2  C   UNL     1       4.498   4.728  16.970  0.00  0.00    +0.000 A 
ATOM      3  C   UNL     1       3.562   5.575  17.599  0.00  0.00    +0.000 A 
ATOM      4  C   UNL     1       2.450   5.056  18.272  0.00  0.00    +0.000 A 
ATOM      5  C   UNL     1       2.248   3.681  18.319  0.00  0.00    +0.000 A 
ATOM      6 CL   UNL     1       0.898   3.034  19.164  0.00  0.00    +0.000 Cl
ATOM      7  C   UNL     1       3.143   2.826  17.688  0.00  0.00    +0.000 A 
ATOM      8  C   UNL     1       4.256   3.347  17.021  0.00  0.00    +0.000 A 
ENDBRANCH   1   2
BRANCH   1   9
ATOM      9  C   UNL     1       6.092   4.940  14.897  0.00  0.00    +0.000 A 
ATOM     10  C   UNL     1       5.302   4.027  14.172  0.00  0.00    +0.000 A 
ATOM     11  C   UNL     1       5.671   3.572  12.906  0.00  0.00    +0.000 A 
ATOM     12  C   UNL     1       6.861   4.005  12.338  0.00  0.00    +0.000 A 
ATOM     13  C   UNL     1       7.666   4.906  13.031  0.00  0.00    +0.000 A 
ATOM     14  C   UNL     1       7.283   5.379  14.294  0.00  0.00    +0.000 A 
ENDBRANCH   1   9
BRANCH   1  15
ATOM     15  C   UNL     1       7.035   5.160  17.242  0.00  0.00    +0.000 C 
BRANCH  15  16
ATOM     16  O   UNL     1       6.870   4.079  18.176  0.00  0.00    +0.000 OA
ATOM     17  H   UNL     1       7.615   4.122  18.799  0.00  0.00    +0.000 HD
ENDBRANCH  15  16
BRANCH  15  18
ATOM     18  C   UNL     1       7.486   6.409  18.042  0.00  0.00    +0.000 C 
BRANCH  18  20
ATOM     19  C   UNL     1       7.932   8.796  17.782  0.00  0.00    +0.000 C 
ATOM     20  N   UNL     1       7.388   7.594  17.170  0.00  0.00    +0.000 NA
ATOM     21  H   UNL     1       6.401   7.767  16.956  0.00  0.00    +0.000 HD
ENDBRANCH  18  20
ENDBRANCH  15  18
ENDBRANCH   1  15
TORSDOF 6
ENDMDL
MODEL 7
REMARK VINA RESULT:      -6.7      0.490      1.630
REMARK  Name = 
REMARK  7 active torsions:
REMARK  status: ('A' for Active; 'I' for Inactive)
REMARK    1  A    between atoms: C_1  and  N_2
REMARK    2  A    between atoms: N_2  and  C_3
REMARK    3  A    between atoms: C_3  and  C_4
REMARK    4  A    between atoms: C_4  and  O_5
REMARK    5  A    between atoms: C_4  and  C_6
REMARK    6  A    between atoms: C_6  and  C_7
REMARK    7  A    between atoms: C_6  and  C_13
REMARK                            x       y       z     vdW  Elec       q    Type
REMARK                         _______ _______ _______ _____ _____    ______ ____
ROOT
ATOM      1  C   UNL     1       3.504   4.677  18.295  0.00  0.00    +0.000 C 
ENDROOT
BRANCH   1   2
ATOM      2  C   UNL     1       2.944   6.054  18.670  0.00  0.00    +0.000 A 
ATOM      3  C   UNL     1       2.367   6.237  19.944  0.00  0.00    +0.000 A 
ATOM      4  C   UNL     1       1.746   7.443  20.295  0.00  0.00    +0.000 A 
ATOM      5  C   UNL     1       1.700   8.489  19.380  0.00  0.00    +0.000 A 
ATOM      6 CL   UNL     1       0.918   9.963  19.793  0.00  0.00    +0.000 Cl
ATOM      7  C   UNL     1       2.280   8.342  18.127  0.00  0.00    +0.000 A 
ATOM      8  C   UNL     1       2.895   7.135  17.778  0.00  0.00    +0.000 A 
ENDBRANCH   1   2
BRANCH   1   9
ATOM      9  C   UNL     1       4.792   4.652  17.446  0.00  0.00    +0.000 A 
ATOM     10  C   UNL     1       4.801   4.205  16.110  0.00  0.00    +0.000 A 
ATOM     11  C   UNL     1       5.984   4.065  15.385  0.00  0.00    +0.000 A 
ATOM     12  C   UNL     1       7.201   4.349  15.989  0.00  0.00    +0.000 A 
ATOM     13  C   UNL     1       7.226   4.791  17.310  0.00  0.00    +0.000 A 
ATOM     14  C   UNL     1       6.034   4.952  18.030  0.00  0.00    +0.000 A 
ENDBRANCH   1   9
BRANCH   1  15
ATOM     15  C   UNL     1       2.438   3.731  17.649  0.00  0.00    +0.000 C 
BRANCH  15  16
ATOM     16  O   UNL     1       1.200   4.426  17.413  0.00  0.00    +0.000 OA
ATOM     17  H   UNL     1       1.218   5.235  17.952  0.00  0.00    +0.000 HD
ENDBRANCH  15  16
BRANCH  15  18
ATOM     18  C   UNL     1       2.108   2.438  18.437  0.00  0.00    +0.000 C 
BRANCH  18  20
ATOM     19  C   UNL     1       1.176   2.829  20.660  0.00  0.00    +0.000 C 
ATOM     20  N   UNL     1       0.894   2.669  19.242  0.00  0.00    +0.000 NA
ATOM     21  H   UNL     1       0.267   1.865  19.134  0.00  0.00    +0.000 HD
ENDBRANCH  18  20
ENDBRANCH  15  18
ENDBRANCH   1  15
TORSDOF 6
ENDMDL
MODEL 8
REMARK VINA RESULT:      -6.7      2.020      4.268
REMARK  Name = 
REMARK  7 active torsions:
REMARK  status: ('A' for Active; 'I' for Inactive)
REMARK    1  A    between atoms: C_1  and  N_2
REMARK    2  A    between atoms: N_2  and  C_3
REMARK    3  A    between atoms: C_3  and  C_4
REMARK    4  A    between atoms: C_4  and  O_5
REMARK    5  A    between atoms: C_4  and  C_6
REMARK    6  A    between atoms: C_6  and  C_7
REMARK    7  A    between atoms: C_6  and  C_13
REMARK                            x       y       z     vdW  Elec       q    Type
REMARK                         _______ _______ _______ _____ _____    ______ ____
ROOT
ATOM      1  C   UNL     1       2.805   5.945  18.362  0.00  0.00    +0.000 C 
ENDROOT
BRANCH   1   2
ATOM      2  C   UNL     1       2.290   7.358  18.659  0.00  0.00    +0.000 A 
ATOM      3  C   UNL     1       1.893   7.683  19.973  0.00  0.00    +0.000 A 
ATOM      4  C   UNL     1       1.316   8.923  20.273  0.00  0.00    +0.000 A 
ATOM      5  C   UNL     1       1.136   9.864  19.266  0.00  0.00    +0.000 A 
ATOM      6 CL   UNL     1       0.405  11.379  19.620  0.00  0.00    +0.000 Cl
ATOM      7  C   UNL     1       1.538   9.578  17.968  0.00  0.00    +0.000 A 
ATOM      8  C   UNL     1       2.110   8.336  17.670  0.00  0.00    +0.000 A 
ENDBRANCH   1   2
BRANCH   1   9
ATOM      9  C   UNL     1       2.233   4.796  19.219  0.00  0.00    +0.000 A 
ATOM     10  C   UNL     1       2.630   4.587  20.555  0.00  0.00    +0.000 A 
ATOM     11  C   UNL     1       2.208   3.478  21.287  0.00  0.00    +0.000 A 
ATOM     12  C   UNL     1       1.390   2.529  20.690  0.00  0.00    +0.000 A 
ATOM     13  C   UNL     1       0.982   2.705  19.370  0.00  0.00    +0.000 A 
ATOM     14  C   UNL     1       1.389   3.831  18.643  0.00  0.00    +0.000 A 
ENDBRANCH   1   9
BRANCH   1  15
ATOM     15  C   UNL     1       4.367   5.849  18.341  0.00  0.00    +0.000 C 
BRANCH  15  16
ATOM     16  O   UNL     1       4.946   6.931  17.590  0.00  0.00    +0.000 OA
ATOM     17  H   UNL     1       4.533   6.921  16.709  0.00  0.00    +0.000 HD
ENDBRANCH  15  16
BRANCH  15  18
ATOM     18  C   UNL     1       4.960   4.526  17.793  0.00  0.00    +0.000 C 
BRANCH  18  20
ATOM     19  C   UNL     1       7.400   4.583  17.691  0.00  0.00    +0.000 C 
ATOM     20  N   UNL     1       6.230   4.250  18.489  0.00  0.00    +0.000 NA
ATOM     21  H   UNL     1       6.275   3.251  18.714  0.00  0.00    +0.000 HD
ENDBRANCH  18  20
ENDBRANCH  15  18
ENDBRANCH   1  15
TORSDOF 6
ENDMDL
MODEL 9
REMARK VINA RESULT:      -6.7      3.549      5.361
REMARK  Name = 
REMARK  7 active torsions:
REMARK  status: ('A' for Active; 'I' for Inactive)
REMARK    1  A    between atoms: C_1  and  N_2
REMARK    2  A    between atoms: N_2  and  C_3
REMARK    3  A    between atoms: C_3  and  C_4
REMARK    4  A    between atoms: C_4  and  O_5
REMARK    5  A    between atoms: C_4  and  C_6
REMARK    6  A    between atoms: C_6  and  C_7
REMARK    7  A    between atoms: C_6  and  C_13
REMARK                            x       y       z     vdW  Elec       q    Type
REMARK                         _______ _______ _______ _____ _____    ______ ____
ROOT
ATOM      1  C   UNL     1       6.006   5.535  16.170  0.00  0.00    +0.000 C 
ENDROOT
BRANCH   1   2
ATOM      2  C   UNL     1       4.794   4.951  16.907  0.00  0.00    +0.000 A 
ATOM      3  C   UNL     1       4.670   3.551  17.022  0.00  0.00    +0.000 A 
ATOM      4  C   UNL     1       3.531   2.966  17.590  0.00  0.00    +0.000 A 
ATOM      5  C   UNL     1       2.502   3.773  18.062  0.00  0.00    +0.000 A 
ATOM      6 CL   UNL     1       1.089   3.064  18.738  0.00  0.00    +0.000 Cl
ATOM      7  C   UNL     1       2.609   5.155  17.981  0.00  0.00    +0.000 A 
ATOM      8  C   UNL     1       3.746   5.736  17.408  0.00  0.00    +0.000 A 
ENDBRANCH   1   2
BRANCH   1   9
ATOM      9  C   UNL     1       6.259   5.035  14.732  0.00  0.00    +0.000 A 
ATOM     10  C   UNL     1       5.444   4.061  14.123  0.00  0.00    +0.000 A 
ATOM     11  C   UNL     1       5.747   3.520  12.873  0.00  0.00    +0.000 A 
ATOM     12  C   UNL     1       6.894   3.925  12.207  0.00  0.00    +0.000 A 
ATOM     13  C   UNL     1       7.723   4.885  12.784  0.00  0.00    +0.000 A 
ATOM     14  C   UNL     1       7.405   5.443  14.030  0.00  0.00    +0.000 A 
ENDBRANCH   1   9
BRANCH   1  15
ATOM     15  C   UNL     1       7.333   5.442  16.994  0.00  0.00    +0.000 C 
BRANCH  15  16
ATOM     16  O   UNL     1       7.882   4.113  16.951  0.00  0.00    +0.000 OA
ATOM     17  H   UNL     1       7.389   3.621  16.271  0.00  0.00    +0.000 HD
ENDBRANCH  15  16
BRANCH  15  18
ATOM     18  C   UNL     1       7.241   5.865  18.482  0.00  0.00    +0.000 C 
BRANCH  18  20
ATOM     19  C   UNL     1       7.957   8.111  17.844  0.00  0.00    +0.000 C 
ATOM     20  N   UNL     1       8.184   6.973  18.721  0.00  0.00    +0.000 NA
ATOM     21  H   UNL     1       9.139   6.637  18.562  0.00  0.00    +0.000 HD
ENDBRANCH  18  20
ENDBRANCH  15  18
ENDBRANCH   1  15
TORSDOF 6
ENDMDL
