MODEL 1
REMARK VINA RESULT:      -8.5      0.000      0.000
REMARK  Name = 
REMARK  3 active torsions:
REMARK  status: ('A' for Active; 'I' for Inactive)
REMARK    1  A    between atoms: S_2  and  N_4
REMARK    2  A    between atoms: S_2  and  C_15
REMARK    3  A    between atoms: N_4  and  C_5
REMARK                            x       y       z     vdW  Elec       q    Type
REMARK                         _______ _______ _______ _____ _____    ______ ____
ROOT
ATOM      1  O   UNL     1       2.967   3.754  20.579  0.00  0.00    +0.000 OA
ATOM      2  S   UNL     1       2.696   4.778  19.588  0.00  0.00    +0.000 S 
ATOM      3  O   UNL     1       1.527   4.694  18.738  0.00  0.00    +0.000 OA
ENDROOT
BRANCH   2   4
ATOM      4  C   UNL     1       4.138   4.857  18.541  0.00  0.00    +0.000 A 
ATOM      5  C   UNL     1       5.404   5.005  19.127  0.00  0.00    +0.000 A 
ATOM      6  C   UNL     1       6.547   4.968  18.327  0.00  0.00    +0.000 A 
ATOM      7  C   UNL     1       6.426   4.771  16.950  0.00  0.00    +0.000 A 
ATOM      8  C   UNL     1       5.161   4.607  16.374  0.00  0.00    +0.000 A 
ATOM      9  C   UNL     1       4.012   4.658  17.163  0.00  0.00    +0.000 A 
ATOM     10  O   UNL     1       4.977   4.379  15.033  0.00  0.00    +0.000 OA
ATOM     11  C   UNL     1       6.183   3.900  14.425  0.00  0.00    +0.000 C 
ATOM     12  C   UNL     1       7.363   4.774  14.820  0.00  0.00    +0.000 C 
ATOM     13  O   UNL     1       7.594   4.725  16.233  0.00  0.00    +0.000 OA
ENDBRANCH   2   4
BRANCH   2  14
ATOM     14  N   UNL     1       2.690   6.256  20.423  0.00  0.00    +0.000 N 
ATOM     15  H   UNL     1       3.607   6.417  20.842  0.00  0.00    +0.000 HD
BRANCH  14  16
ATOM     16  C   UNL     1       2.201   7.398  19.711  0.00  0.00    +0.000 A 
ATOM     17  C   UNL     1       2.593   7.583  18.384  0.00  0.00    +0.000 A 
ATOM     18  C   UNL     1       2.149   8.701  17.674  0.00  0.00    +0.000 A 
ATOM     19  C   UNL     1       1.345   9.652  18.304  0.00  0.00    +0.000 A 
ATOM     20  C   UNL     1       0.974   9.480  19.637  0.00  0.00    +0.000 A 
ATOM     21  C   UNL     1       1.371   8.335  20.335  0.00  0.00    +0.000 A 
ATOM     22  O   UNL     1       0.984   8.077  21.628  0.00  0.00    +0.000 OA
ATOM     23  C   UNL     1      -0.087   8.931  22.041  0.00  0.00    +0.000 C 
ATOM     24  C   UNL     1       0.167  10.370  21.619  0.00  0.00    +0.000 C 
ATOM     25  O   UNL     1       0.207  10.474  20.192  0.00  0.00    +0.000 OA
ENDBRANCH  14  16
ENDBRANCH   2  14
TORSDOF 3
ENDMDL
MODEL 2
REMARK VINA RESULT:      -7.9      1.033      1.753
REMARK  Name = 
REMARK  3 active torsions:
REMARK  status: ('A' for Active; 'I' for Inactive)
REMARK    1  A    between atoms: S_2  and  N_4
REMARK    2  A    between atoms: S_2  and  C_15
REMARK    3  A    between atoms: N_4  and  C_5
REMARK                            x       y       z     vdW  Elec       q    Type
REMARK                         _______ _______ _______ _____ _____    ______ ____
ROOT
ATOM      1  O   UNL     1       2.430   4.047  21.641  0.00  0.00    +0.000 OA
ATOM      2  S   UNL     1       2.037   4.891  20.528  0.00  0.00    +0.000 S 
ATOM      3  O   UNL     1       0.695   4.827  19.988  0.00  0.00    +0.000 OA
ENDROOT
BRANCH   2   4
ATOM      4  C   UNL     1       3.184   4.547  19.206  0.00  0.00    +0.000 A 
ATOM      5  C   UNL     1       2.712   3.955  18.025  0.00  0.00    +0.000 A 
ATOM      6  C   UNL     1       3.578   3.773  16.946  0.00  0.00    +0.000 A 
ATOM      7  C   UNL     1       4.907   4.193  17.043  0.00  0.00    +0.000 A 
ATOM      8  C   UNL     1       5.366   4.799  18.218  0.00  0.00    +0.000 A 
ATOM      9  C   UNL     1       4.512   4.971  19.307  0.00  0.00    +0.000 A 
ATOM     10  O   UNL     1       6.650   5.261  18.365  0.00  0.00    +0.000 OA
ATOM     11  C   UNL     1       7.275   5.452  17.089  0.00  0.00    +0.000 C 
ATOM     12  C   UNL     1       7.080   4.224  16.212  0.00  0.00    +0.000 C 
ATOM     13  O   UNL     1       5.692   4.001  15.936  0.00  0.00    +0.000 OA
ENDBRANCH   2   4
BRANCH   2  14
ATOM     14  N   UNL     1       2.388   6.485  20.997  0.00  0.00    +0.000 N 
ATOM     15  H   UNL     1       3.382   6.567  21.215  0.00  0.00    +0.000 HD
BRANCH  14  16
ATOM     16  C   UNL     1       1.924   7.529  20.133  0.00  0.00    +0.000 A 
ATOM     17  C   UNL     1       2.324   7.524  18.796  0.00  0.00    +0.000 A 
ATOM     18  C   UNL     1       1.904   8.544  17.938  0.00  0.00    +0.000 A 
ATOM     19  C   UNL     1       1.118   9.587  18.429  0.00  0.00    +0.000 A 
ATOM     20  C   UNL     1       0.739   9.606  19.771  0.00  0.00    +0.000 A 
ATOM     21  C   UNL     1       1.111   8.559  20.620  0.00  0.00    +0.000 A 
ATOM     22  O   UNL     1       0.715   8.486  21.934  0.00  0.00    +0.000 OA
ATOM     23  C   UNL     1      -0.340   9.409  22.221  0.00  0.00    +0.000 C 
ATOM     24  C   UNL     1      -0.055  10.772  21.609  0.00  0.00    +0.000 C 
ATOM     25  O   UNL     1      -0.009  10.680  20.181  0.00  0.00    +0.000 OA
ENDBRANCH  14  16
ENDBRANCH   2  14
TORSDOF 3
ENDMDL
MODEL 3
REMARK VINA RESULT:      -7.8      2.109      6.024
REMARK  Name = 
REMARK  3 active torsions:
REMARK  status: ('A' for Active; 'I' for Inactive)
REMARK    1  A    between atoms: S_2  and  N_4
REMARK    2  A    between atoms: S_2  and  C_15
REMARK    3  A    between atoms: N_4  and  C_5
REMARK                            x       y       z     vdW  Elec       q    Type
REMARK                         _______ _______ _______ _____ _____    ______ ____
ROOT
ATOM      1  O   UNL     1       2.224   2.637  16.927  0.00  0.00    +0.000 OA
ATOM      2  S   UNL     1       2.746   2.699  18.279  0.00  0.00    +0.000 S 
ATOM      3  O   UNL     1       2.325   1.740  19.279  0.00  0.00    +0.000 OA
ENDROOT
BRANCH   2   4
ATOM      4  C   UNL     1       2.375   4.334  18.887  0.00  0.00    +0.000 A 
ATOM      5  C   UNL     1       2.343   4.560  20.272  0.00  0.00    +0.000 A 
ATOM      6  C   UNL     1       2.154   5.854  20.758  0.00  0.00    +0.000 A 
ATOM      7  C   UNL     1       2.011   6.919  19.866  0.00  0.00    +0.000 A 
ATOM      8  C   UNL     1       2.062   6.688  18.486  0.00  0.00    +0.000 A 
ATOM      9  C   UNL     1       2.234   5.397  17.990  0.00  0.00    +0.000 A 
ATOM     10  O   UNL     1       1.960   7.695  17.559  0.00  0.00    +0.000 OA
ATOM     11  C   UNL     1       2.244   8.969  18.152  0.00  0.00    +0.000 C 
ATOM     12  C   UNL     1       1.463   9.141  19.445  0.00  0.00    +0.000 C 
ATOM     13  O   UNL     1       1.850   8.163  20.419  0.00  0.00    +0.000 OA
ENDBRANCH   2   4
BRANCH   2  14
ATOM     14  N   UNL     1       4.437   2.668  18.134  0.00  0.00    +0.000 N 
ATOM     15  H   UNL     1       4.743   1.726  17.883  0.00  0.00    +0.000 HD
BRANCH  14  16
ATOM     16  C   UNL     1       5.035   3.679  17.314  0.00  0.00    +0.000 A 
ATOM     17  C   UNL     1       4.719   3.715  15.955  0.00  0.00    +0.000 A 
ATOM     18  C   UNL     1       5.306   4.677  15.129  0.00  0.00    +0.000 A 
ATOM     19  C   UNL     1       6.235   5.574  15.656  0.00  0.00    +0.000 A 
ATOM     20  C   UNL     1       6.569   5.522  17.008  0.00  0.00    +0.000 A 
ATOM     21  C   UNL     1       5.944   4.597  17.850  0.00  0.00    +0.000 A 
ATOM     22  O   UNL     1       6.180   4.539  19.203  0.00  0.00    +0.000 OA
ATOM     23  C   UNL     1       6.875   5.699  19.669  0.00  0.00    +0.000 C 
ATOM     24  C   UNL     1       8.016   6.066  18.734  0.00  0.00    +0.000 C 
ATOM     25  O   UNL     1       7.512   6.419  17.442  0.00  0.00    +0.000 OA
ENDBRANCH  14  16
ENDBRANCH   2  14
TORSDOF 3
ENDMDL
MODEL 4
REMARK VINA RESULT:      -7.7      0.993      7.259
REMARK  Name = 
REMARK  3 active torsions:
REMARK  status: ('A' for Active; 'I' for Inactive)
REMARK    1  A    between atoms: S_2  and  N_4
REMARK    2  A    between atoms: S_2  and  C_15
REMARK    3  A    between atoms: N_4  and  C_5
REMARK                            x       y       z     vdW  Elec       q    Type
REMARK                         _______ _______ _______ _____ _____    ______ ____
ROOT
ATOM      1  O   UNL     1       1.218   4.019  18.920  0.00  0.00    +0.000 OA
ATOM      2  S   UNL     1       2.501   4.655  19.153  0.00  0.00    +0.000 S 
ATOM      3  O   UNL     1       3.343   4.241  20.256  0.00  0.00    +0.000 OA
ENDROOT
BRANCH   2   4
ATOM      4  C   UNL     1       2.173   6.399  19.329  0.00  0.00    +0.000 A 
ATOM      5  C   UNL     1       2.274   7.233  18.205  0.00  0.00    +0.000 A 
ATOM      6  C   UNL     1       1.923   8.580  18.308  0.00  0.00    +0.000 A 
ATOM      7  C   UNL     1       1.462   9.088  19.524  0.00  0.00    +0.000 A 
ATOM      8  C   UNL     1       1.347   8.246  20.637  0.00  0.00    +0.000 A 
ATOM      9  C   UNL     1       1.710   6.903  20.548  0.00  0.00    +0.000 A 
ATOM     10  O   UNL     1       0.871   8.676  21.850  0.00  0.00    +0.000 OA
ATOM     11  C   UNL     1       0.123   9.890  21.705  0.00  0.00    +0.000 C 
ATOM     12  C   UNL     1       0.900  10.898  20.873  0.00  0.00    +0.000 C 
ATOM     13  O   UNL     1       1.116  10.414  19.542  0.00  0.00    +0.000 OA
ENDBRANCH   2   4
BRANCH   2  14
ATOM     14  N   UNL     1       3.364   4.525  17.697  0.00  0.00    +0.000 N 
ATOM     15  H   UNL     1       2.900   5.076  16.973  0.00  0.00    +0.000 HD
BRANCH  14  16
ATOM     16  C   UNL     1       4.774   4.769  17.757  0.00  0.00    +0.000 A 
ATOM     17  C   UNL     1       5.336   5.170  18.971  0.00  0.00    +0.000 A 
ATOM     18  C   UNL     1       6.705   5.436  19.051  0.00  0.00    +0.000 A 
ATOM     19  C   UNL     1       7.502   5.339  17.910  0.00  0.00    +0.000 A 
ATOM     20  C   UNL     1       6.936   4.963  16.692  0.00  0.00    +0.000 A 
ATOM     21  C   UNL     1       5.577   4.643  16.618  0.00  0.00    +0.000 A 
ATOM     22  O   UNL     1       4.974   4.203  15.464  0.00  0.00    +0.000 OA
ATOM     23  C   UNL     1       5.938   3.828  14.474  0.00  0.00    +0.000 C 
ATOM     24  C   UNL     1       7.054   4.856  14.381  0.00  0.00    +0.000 C 
ATOM     25  O   UNL     1       7.781   4.920  15.612  0.00  0.00    +0.000 OA
ENDBRANCH  14  16
ENDBRANCH   2  14
TORSDOF 3
ENDMDL
MODEL 5
REMARK VINA RESULT:      -7.7      1.646      6.751
REMARK  Name = 
REMARK  3 active torsions:
REMARK  status: ('A' for Active; 'I' for Inactive)
REMARK    1  A    between atoms: S_2  and  N_4
REMARK    2  A    between atoms: S_2  and  C_15
REMARK    3  A    between atoms: N_4  and  C_5
REMARK                            x       y       z     vdW  Elec       q    Type
REMARK                         _______ _______ _______ _____ _____    ______ ____
ROOT
ATOM      1  O   UNL     1       3.366   3.178  17.167  0.00  0.00    +0.000 OA
ATOM      2  S   UNL     1       3.500   3.452  18.585  0.00  0.00    +0.000 S 
ATOM      3  O   UNL     1       2.780   2.663  19.562  0.00  0.00    +0.000 OA
ENDROOT
BRANCH   2   4
ATOM      4  C   UNL     1       3.049   5.162  18.812  0.00  0.00    +0.000 A 
ATOM      5  C   UNL     1       3.194   6.058  17.742  0.00  0.00    +0.000 A 
ATOM      6  C   UNL     1       2.752   7.375  17.875  0.00  0.00    +0.000 A 
ATOM      7  C   UNL     1       2.156   7.791  19.067  0.00  0.00    +0.000 A 
ATOM      8  C   UNL     1       1.997   6.887  20.124  0.00  0.00    +0.000 A 
ATOM      9  C   UNL     1       2.451   5.574  20.006  0.00  0.00    +0.000 A 
ATOM     10  O   UNL     1       1.392   7.225  21.309  0.00  0.00    +0.000 OA
ATOM     11  C   UNL     1       0.585   8.399  21.155  0.00  0.00    +0.000 C 
ATOM     12  C   UNL     1       1.366   9.493  20.443  0.00  0.00    +0.000 C 
ATOM     13  O   UNL     1       1.727   9.092  19.116  0.00  0.00    +0.000 OA
ENDBRANCH   2   4
BRANCH   2  14
ATOM     14  N   UNL     1       5.163   3.398  18.922  0.00  0.00    +0.000 N 
ATOM     15  H   UNL     1       5.530   2.473  18.693  0.00  0.00    +0.000 HD
BRANCH  14  16
ATOM     16  C   UNL     1       5.965   4.457  18.388  0.00  0.00    +0.000 A 
ATOM     17  C   UNL     1       6.450   5.438  19.255  0.00  0.00    +0.000 A 
ATOM     18  C   UNL     1       7.215   6.494  18.756  0.00  0.00    +0.000 A 
ATOM     19  C   UNL     1       7.461   6.589  17.386  0.00  0.00    +0.000 A 
ATOM     20  C   UNL     1       6.957   5.623  16.516  0.00  0.00    +0.000 A 
ATOM     21  C   UNL     1       6.236   4.535  17.017  0.00  0.00    +0.000 A 
ATOM     22  O   UNL     1       5.770   3.517  16.220  0.00  0.00    +0.000 OA
ATOM     23  C   UNL     1       6.362   3.550  14.918  0.00  0.00    +0.000 C 
ATOM     24  C   UNL     1       6.391   4.967  14.367  0.00  0.00    +0.000 C 
ATOM     25  O   UNL     1       7.218   5.804  15.181  0.00  0.00    +0.000 OA
ENDBRANCH  14  16
ENDBRANCH   2  14
TORSDOF 3
ENDMDL
MODEL 6
REMARK VINA RESULT:      -7.6      1.924      6.300
REMARK  Name = 
REMARK  3 active torsions:
REMARK  status: ('A' for Active; 'I' for Inactive)
REMARK    1  A    between atoms: S_2  and  N_4
REMARK    2  A    between atoms: S_2  and  C_15
REMARK    3  A    between atoms: N_4  and  C_5
REMARK                            x       y       z     vdW  Elec       q    Type
REMARK                         _______ _______ _______ _____ _____    ______ ____
ROOT
ATOM      1  O   UNL     1       2.402   2.680  16.906  0.00  0.00    +0.000 OA
ATOM      2  S   UNL     1       2.686   2.705  18.328  0.00  0.00    +0.000 S 
ATOM      3  O   UNL     1       2.049   1.767  19.228  0.00  0.00    +0.000 OA
ENDROOT
BRANCH   2   4
ATOM      4  C   UNL     1       2.307   4.355  18.888  0.00  0.00    +0.000 A 
ATOM      5  C   UNL     1       2.169   4.599  20.263  0.00  0.00    +0.000 A 
ATOM      6  C   UNL     1       1.972   5.903  20.720  0.00  0.00    +0.000 A 
ATOM      7  C   UNL     1       1.926   6.960  19.808  0.00  0.00    +0.000 A 
ATOM      8  C   UNL     1       2.082   6.711  18.439  0.00  0.00    +0.000 A 
ATOM      9  C   UNL     1       2.263   5.410  17.972  0.00  0.00    +0.000 A 
ATOM     10  O   UNL     1       2.078   7.709  17.496  0.00  0.00    +0.000 OA
ATOM     11  C   UNL     1       2.344   8.983  18.097  0.00  0.00    +0.000 C 
ATOM     12  C   UNL     1       1.466   9.188  19.321  0.00  0.00    +0.000 C 
ATOM     13  O   UNL     1       1.751   8.214  20.333  0.00  0.00    +0.000 OA
ENDBRANCH   2   4
BRANCH   2  14
ATOM     14  N   UNL     1       4.373   2.580  18.475  0.00  0.00    +0.000 N 
ATOM     15  H   UNL     1       4.713   1.814  17.890  0.00  0.00    +0.000 HD
BRANCH  14  16
ATOM     16  C   UNL     1       5.128   3.784  18.301  0.00  0.00    +0.000 A 
ATOM     17  C   UNL     1       5.410   4.570  19.420  0.00  0.00    +0.000 A 
ATOM     18  C   UNL     1       6.124   5.761  19.274  0.00  0.00    +0.000 A 
ATOM     19  C   UNL     1       6.523   6.183  18.005  0.00  0.00    +0.000 A 
ATOM     20  C   UNL     1       6.221   5.411  16.885  0.00  0.00    +0.000 A 
ATOM     21  C   UNL     1       5.553   4.191  17.031  0.00  0.00    +0.000 A 
ATOM     22  O   UNL     1       5.284   3.354  15.975  0.00  0.00    +0.000 OA
ATOM     23  C   UNL     1       6.022   3.724  14.806  0.00  0.00    +0.000 C 
ATOM     24  C   UNL     1       5.981   5.228  14.587  0.00  0.00    +0.000 C 
ATOM     25  O   UNL     1       6.621   5.910  15.671  0.00  0.00    +0.000 OA
ENDBRANCH  14  16
ENDBRANCH   2  14
TORSDOF 3
ENDMDL
MODEL 7
REMARK VINA RESULT:      -7.6      1.253      6.968
REMARK  Name = 
REMARK  3 active torsions:
REMARK  status: ('A' for Active; 'I' for Inactive)
REMARK    1  A    between atoms: S_2  and  N_4
REMARK    2  A    between atoms: S_2  and  C_15
REMARK    3  A    between atoms: N_4  and  C_5
REMARK                            x       y       z     vdW  Elec       q    Type
REMARK                         _______ _______ _______ _____ _____    ______ ____
ROOT
ATOM      1  O   UNL     1       1.316   4.045  19.052  0.00  0.00    +0.000 OA
ATOM      2  S   UNL     1       2.519   4.825  19.274  0.00  0.00    +0.000 S 
ATOM      3  O   UNL     1       3.417   4.506  20.364  0.00  0.00    +0.000 OA
ENDROOT
BRANCH   2   4
ATOM      4  C   UNL     1       1.992   6.518  19.467  0.00  0.00    +0.000 A 
ATOM      5  C   UNL     1       1.534   6.956  20.719  0.00  0.00    +0.000 A 
ATOM      6  C   UNL     1       1.215   8.302  20.909  0.00  0.00    +0.000 A 
ATOM      7  C   UNL     1       1.364   9.207  19.856  0.00  0.00    +0.000 A 
ATOM      8  C   UNL     1       1.838   8.766  18.614  0.00  0.00    +0.000 A 
ATOM      9  C   UNL     1       2.144   7.421  18.411  0.00  0.00    +0.000 A 
ATOM     10  O   UNL     1       2.036   9.610  17.551  0.00  0.00    +0.000 OA
ATOM     11  C   UNL     1       2.134  10.972  17.988  0.00  0.00    +0.000 C 
ATOM     12  C   UNL     1       0.992  11.311  18.934  0.00  0.00    +0.000 C 
ATOM     13  O   UNL     1       1.051  10.514  20.124  0.00  0.00    +0.000 OA
ENDBRANCH   2   4
BRANCH   2  14
ATOM     14  N   UNL     1       3.372   4.806  17.807  0.00  0.00    +0.000 N 
ATOM     15  H   UNL     1       2.959   5.480  17.161  0.00  0.00    +0.000 HD
BRANCH  14  16
ATOM     16  C   UNL     1       4.798   4.919  17.887  0.00  0.00    +0.000 A 
ATOM     17  C   UNL     1       5.376   5.297  19.100  0.00  0.00    +0.000 A 
ATOM     18  C   UNL     1       6.762   5.437  19.199  0.00  0.00    +0.000 A 
ATOM     19  C   UNL     1       7.564   5.238  18.075  0.00  0.00    +0.000 A 
ATOM     20  C   UNL     1       6.985   4.885  16.856  0.00  0.00    +0.000 A 
ATOM     21  C   UNL     1       5.603   4.690  16.766  0.00  0.00    +0.000 A 
ATOM     22  O   UNL     1       4.980   4.278  15.612  0.00  0.00    +0.000 OA
ATOM     23  C   UNL     1       5.919   3.790  14.649  0.00  0.00    +0.000 C 
ATOM     24  C   UNL     1       7.128   4.708  14.551  0.00  0.00    +0.000 C 
ATOM     25  O   UNL     1       7.838   4.736  15.792  0.00  0.00    +0.000 OA
ENDBRANCH  14  16
ENDBRANCH   2  14
TORSDOF 3
ENDMDL
MODEL 8
REMARK VINA RESULT:      -7.5      2.331      7.680
REMARK  Name = 
REMARK  3 active torsions:
REMARK  status: ('A' for Active; 'I' for Inactive)
REMARK    1  A    between atoms: S_2  and  N_4
REMARK    2  A    between atoms: S_2  and  C_15
REMARK    3  A    between atoms: N_4  and  C_5
REMARK                            x       y       z     vdW  Elec       q    Type
REMARK                         _______ _______ _______ _____ _____    ______ ____
ROOT
ATOM      1  O   UNL     1       3.730   7.840  17.831  0.00  0.00    +0.000 OA
ATOM      2  S   UNL     1       2.608   7.189  18.481  0.00  0.00    +0.000 S 
ATOM      3  O   UNL     1       1.669   6.394  17.716  0.00  0.00    +0.000 OA
ENDROOT
BRANCH   2   4
ATOM      4  C   UNL     1       1.696   8.473  19.316  0.00  0.00    +0.000 A 
ATOM      5  C   UNL     1       1.090   9.489  18.560  0.00  0.00    +0.000 A 
ATOM      6  C   UNL     1       0.291  10.442  19.192  0.00  0.00    +0.000 A 
ATOM      7  C   UNL     1       0.087  10.373  20.572  0.00  0.00    +0.000 A 
ATOM      8  C   UNL     1       0.679   9.347  21.318  0.00  0.00    +0.000 A 
ATOM      9  C   UNL     1       1.492   8.400  20.697  0.00  0.00    +0.000 A 
ATOM     10  O   UNL     1       0.491   9.206  22.670  0.00  0.00    +0.000 OA
ATOM     11  C   UNL     1      -0.677   9.915  23.102  0.00  0.00    +0.000 C 
ATOM     12  C   UNL     1      -0.675  11.333  22.550  0.00  0.00    +0.000 C 
ATOM     13  O   UNL     1      -0.728  11.331  21.118  0.00  0.00    +0.000 OA
ENDBRANCH   2   4
BRANCH   2  14
ATOM     14  N   UNL     1       3.266   6.248  19.731  0.00  0.00    +0.000 N 
ATOM     15  H   UNL     1       3.296   6.794  20.593  0.00  0.00    +0.000 HD
BRANCH  14  16
ATOM     16  C   UNL     1       2.704   4.944  19.923  0.00  0.00    +0.000 A 
ATOM     17  C   UNL     1       1.776   4.756  20.949  0.00  0.00    +0.000 A 
ATOM     18  C   UNL     1       1.230   3.491  21.173  0.00  0.00    +0.000 A 
ATOM     19  C   UNL     1       1.643   2.407  20.396  0.00  0.00    +0.000 A 
ATOM     20  C   UNL     1       2.588   2.590  19.388  0.00  0.00    +0.000 A 
ATOM     21  C   UNL     1       3.097   3.865  19.124  0.00  0.00    +0.000 A 
ATOM     22  O   UNL     1       3.980   4.121  18.103  0.00  0.00    +0.000 OA
ATOM     23  C   UNL     1       4.063   3.025  17.188  0.00  0.00    +0.000 C 
ATOM     24  C   UNL     1       4.152   1.700  17.928  0.00  0.00    +0.000 C 
ATOM     25  O   UNL     1       2.962   1.470  18.688  0.00  0.00    +0.000 OA
ENDBRANCH  14  16
ENDBRANCH   2  14
TORSDOF 3
ENDMDL
MODEL 9
REMARK VINA RESULT:      -7.5      1.652      7.534
REMARK  Name = 
REMARK  3 active torsions:
REMARK  status: ('A' for Active; 'I' for Inactive)
REMARK    1  A    between atoms: S_2  and  N_4
REMARK    2  A    between atoms: S_2  and  C_15
REMARK    3  A    between atoms: N_4  and  C_5
REMARK                            x       y       z     vdW  Elec       q    Type
REMARK                         _______ _______ _______ _____ _____    ______ ____
ROOT
ATOM      1  O   UNL     1       2.040   5.506  17.696  0.00  0.00    +0.000 OA
ATOM      2  S   UNL     1       3.032   6.266  18.433  0.00  0.00    +0.000 S 
ATOM      3  O   UNL     1       3.763   5.665  19.528  0.00  0.00    +0.000 OA
ENDROOT
BRANCH   2   4
ATOM      4  C   UNL     1       2.196   7.714  19.053  0.00  0.00    +0.000 A 
ATOM      5  C   UNL     1       1.827   8.731  18.158  0.00  0.00    +0.000 A 
ATOM      6  C   UNL     1       1.085   9.821  18.614  0.00  0.00    +0.000 A 
ATOM      7  C   UNL     1       0.701   9.889  19.955  0.00  0.00    +0.000 A 
ATOM      8  C   UNL     1       1.056   8.862  20.839  0.00  0.00    +0.000 A 
ATOM      9  C   UNL     1       1.812   7.778  20.396  0.00  0.00    +0.000 A 
ATOM     10  O   UNL     1       0.683   8.855  22.159  0.00  0.00    +0.000 OA
ATOM     11  C   UNL     1      -0.429   9.731  22.383  0.00  0.00    +0.000 C 
ATOM     12  C   UNL     1      -0.173  11.089  21.747  0.00  0.00    +0.000 C 
ATOM     13  O   UNL     1      -0.045  10.978  20.324  0.00  0.00    +0.000 OA
ENDBRANCH   2   4
BRANCH   2  14
ATOM     14  N   UNL     1       4.123   6.863  17.278  0.00  0.00    +0.000 N 
ATOM     15  H   UNL     1       4.587   7.697  17.642  0.00  0.00    +0.000 HD
BRANCH  14  16
ATOM     16  C   UNL     1       5.043   5.923  16.711  0.00  0.00    +0.000 A 
ATOM     17  C   UNL     1       4.697   5.275  15.524  0.00  0.00    +0.000 A 
ATOM     18  C   UNL     1       5.566   4.336  14.963  0.00  0.00    +0.000 A 
ATOM     19  C   UNL     1       6.761   4.020  15.610  0.00  0.00    +0.000 A 
ATOM     20  C   UNL     1       7.096   4.649  16.808  0.00  0.00    +0.000 A 
ATOM     21  C   UNL     1       6.255   5.629  17.346  0.00  0.00    +0.000 A 
ATOM     22  O   UNL     1       6.559   6.331  18.487  0.00  0.00    +0.000 OA
ATOM     23  C   UNL     1       7.930   6.164  18.861  0.00  0.00    +0.000 C 
ATOM     24  C   UNL     1       8.353   4.707  18.754  0.00  0.00    +0.000 C 
ATOM     25  O   UNL     1       8.273   4.261  17.397  0.00  0.00    +0.000 OA
ENDBRANCH  14  16
ENDBRANCH   2  14
TORSDOF 3
ENDMDL
