MODEL 1
REMARK VINA RESULT:      -8.6      0.000      0.000
REMARK  Name = 
REMARK  7 active torsions:
REMARK  status: ('A' for Active; 'I' for Inactive)
REMARK    1  A    between atoms: C_1  and  O_2
REMARK    2  A    between atoms: O_2  and  C_3
REMARK    3  A    between atoms: C_6  and  N_7
REMARK    4  A    between atoms: C_9  and  N_10
REMARK    5  A    between atoms: C_11  and  C_13
REMARK    6  A    between atoms: C_13  and  C_14
REMARK    7  A    between atoms: C_13  and  C_20
REMARK                            x       y       z     vdW  Elec       q    Type
REMARK                         _______ _______ _______ _____ _____    ______ ____
ROOT
ATOM      1  N   UNL     1       2.101   7.622  18.754  0.00  0.00    +0.000 N 
ATOM      2  C   UNL     1       3.163   7.105  18.025  0.00  0.00    +0.000 C 
ATOM      3  O   UNL     1       4.100   7.823  17.682  0.00  0.00    +0.000 OA
ATOM      4  H   UNL     1       1.273   7.054  18.896  0.00  0.00    +0.000 HD
ENDROOT
BRANCH   1   7
ATOM      5  N   UNL     1      -0.166   9.814  18.886  0.00  0.00    +0.000 N 
ATOM      6  C   UNL     1       1.106   9.841  18.190  0.00  0.00    +0.000 C 
ATOM      7  C   UNL     1       2.055   9.049  19.090  0.00  0.00    +0.000 C 
ATOM      8  C   UNL     1       1.499   9.284  20.478  0.00  0.00    +0.000 C 
ATOM      9  C   UNL     1       0.019   9.502  20.237  0.00  0.00    +0.000 C 
ATOM     10  O   UNL     1      -0.802   9.425  21.138  0.00  0.00    +0.000 OA
BRANCH   5  14
ATOM     11  C   UNL     1      -3.770  11.139  17.025  0.00  0.00    +0.000 A 
ATOM     12  C   UNL     1      -3.383  11.652  18.257  0.00  0.00    +0.000 A 
ATOM     13  C   UNL     1      -2.205  11.213  18.879  0.00  0.00    +0.000 A 
ATOM     14  C   UNL     1      -1.383  10.249  18.282  0.00  0.00    +0.000 A 
ATOM     15  C   UNL     1      -1.801   9.725  17.049  0.00  0.00    +0.000 A 
ATOM     16  C   UNL     1      -2.984  10.159  16.429  0.00  0.00    +0.000 A 
BRANCH  11  18
ATOM     17  C   UNL     1      -5.758  12.337  17.445  0.00  0.00    +0.000 C 
ATOM     18  O   UNL     1      -4.939  11.632  16.517  0.00  0.00    +0.000 OA
ENDBRANCH  11  18
ENDBRANCH   5  14
ENDBRANCH   1   7
BRANCH   2  19
ATOM     19  C   UNL     1       3.085   5.584  17.719  0.00  0.00    +0.000 C 
BRANCH  19  20
ATOM     20  C   UNL     1       4.459   5.033  17.323  0.00  0.00    +0.000 A 
ATOM     21  C   UNL     1       5.541   5.004  18.219  0.00  0.00    +0.000 A 
ATOM     22  C   UNL     1       6.829   4.675  17.790  0.00  0.00    +0.000 A 
ATOM     23  C   UNL     1       7.061   4.361  16.457  0.00  0.00    +0.000 A 
ATOM     24  C   UNL     1       5.995   4.330  15.561  0.00  0.00    +0.000 A 
ATOM     25  C   UNL     1       4.704   4.654  15.991  0.00  0.00    +0.000 A 
ENDBRANCH  19  20
BRANCH  19  26
ATOM     26  C   UNL     1       2.339   4.844  18.831  0.00  0.00    +0.000 A 
ATOM     27  C   UNL     1       2.684   5.067  20.175  0.00  0.00    +0.000 A 
ATOM     28  C   UNL     1       2.123   4.293  21.199  0.00  0.00    +0.000 A 
ATOM     29  C   UNL     1       1.192   3.303  20.900  0.00  0.00    +0.000 A 
ATOM     30  C   UNL     1       0.808   3.096  19.579  0.00  0.00    +0.000 A 
ATOM     31  C   UNL     1       1.382   3.854  18.554  0.00  0.00    +0.000 A 
ENDBRANCH  19  26
ENDBRANCH   2  19
TORSDOF 6
ENDMDL
MODEL 2
REMARK VINA RESULT:      -8.6      2.460      4.643
REMARK  Name = 
REMARK  7 active torsions:
REMARK  status: ('A' for Active; 'I' for Inactive)
REMARK    1  A    between atoms: C_1  and  O_2
REMARK    2  A    between atoms: O_2  and  C_3
REMARK    3  A    between atoms: C_6  and  N_7
REMARK    4  A    between atoms: C_9  and  N_10
REMARK    5  A    between atoms: C_11  and  C_13
REMARK    6  A    between atoms: C_13  and  C_14
REMARK    7  A    between atoms: C_13  and  C_20
REMARK                            x       y       z     vdW  Elec       q    Type
REMARK                         _______ _______ _______ _____ _____    ______ ____
ROOT
ATOM      1  N   UNL     1       1.855   8.523  18.752  0.00  0.00    +0.000 N 
ATOM      2  C   UNL     1       2.744   7.769  17.998  0.00  0.00    +0.000 C 
ATOM      3  O   UNL     1       2.976   8.056  16.825  0.00  0.00    +0.000 OA
ATOM      4  H   UNL     1       1.564   8.184  19.662  0.00  0.00    +0.000 HD
ENDROOT
BRANCH   1   7
ATOM      5  N   UNL     1       0.163  10.946  19.860  0.00  0.00    +0.000 N 
ATOM      6  C   UNL     1      -0.181   9.964  18.850  0.00  0.00    +0.000 C 
ATOM      7  C   UNL     1       1.141   9.653  18.148  0.00  0.00    +0.000 C 
ATOM      8  C   UNL     1       1.919  10.945  18.277  0.00  0.00    +0.000 C 
ATOM      9  C   UNL     1       1.386  11.556  19.557  0.00  0.00    +0.000 C 
ATOM     10  O   UNL     1       1.978  12.448  20.144  0.00  0.00    +0.000 OA
BRANCH   5  14
ATOM     11  C   UNL     1      -2.565  12.064  22.945  0.00  0.00    +0.000 A 
ATOM     12  C   UNL     1      -2.703  12.578  21.660  0.00  0.00    +0.000 A 
ATOM     13  C   UNL     1      -1.803  12.223  20.646  0.00  0.00    +0.000 A 
ATOM     14  C   UNL     1      -0.742  11.343  20.889  0.00  0.00    +0.000 A 
ATOM     15  C   UNL     1      -0.605  10.850  22.196  0.00  0.00    +0.000 A 
ATOM     16  C   UNL     1      -1.501  11.211  23.216  0.00  0.00    +0.000 A 
BRANCH  11  18
ATOM     17  C   UNL     1      -3.338  13.827  24.306  0.00  0.00    +0.000 C 
ATOM     18  O   UNL     1      -3.492  12.485  23.856  0.00  0.00    +0.000 OA
ENDBRANCH  11  18
ENDBRANCH   5  14
ENDBRANCH   1   7
BRANCH   2  19
ATOM     19  C   UNL     1       3.422   6.589  18.747  0.00  0.00    +0.000 C 
BRANCH  19  20
ATOM     20  C   UNL     1       2.409   5.485  19.064  0.00  0.00    +0.000 A 
ATOM     21  C   UNL     1       1.972   5.223  20.373  0.00  0.00    +0.000 A 
ATOM     22  C   UNL     1       1.196   4.098  20.667  0.00  0.00    +0.000 A 
ATOM     23  C   UNL     1       0.834   3.217  19.655  0.00  0.00    +0.000 A 
ATOM     24  C   UNL     1       1.209   3.486  18.341  0.00  0.00    +0.000 A 
ATOM     25  C   UNL     1       1.981   4.614  18.045  0.00  0.00    +0.000 A 
ENDBRANCH  19  20
BRANCH  19  26
ATOM     26  C   UNL     1       4.709   6.163  18.035  0.00  0.00    +0.000 A 
ATOM     27  C   UNL     1       4.786   6.222  16.633  0.00  0.00    +0.000 A 
ATOM     28  C   UNL     1       5.891   5.697  15.951  0.00  0.00    +0.000 A 
ATOM     29  C   UNL     1       6.946   5.128  16.660  0.00  0.00    +0.000 A 
ATOM     30  C   UNL     1       6.904   5.097  18.050  0.00  0.00    +0.000 A 
ATOM     31  C   UNL     1       5.793   5.603  18.730  0.00  0.00    +0.000 A 
ENDBRANCH  19  26
ENDBRANCH   2  19
TORSDOF 6
ENDMDL
MODEL 3
REMARK VINA RESULT:      -8.4      2.618      4.622
REMARK  Name = 
REMARK  7 active torsions:
REMARK  status: ('A' for Active; 'I' for Inactive)
REMARK    1  A    between atoms: C_1  and  O_2
REMARK    2  A    between atoms: O_2  and  C_3
REMARK    3  A    between atoms: C_6  and  N_7
REMARK    4  A    between atoms: C_9  and  N_10
REMARK    5  A    between atoms: C_11  and  C_13
REMARK    6  A    between atoms: C_13  and  C_14
REMARK    7  A    between atoms: C_13  and  C_20
REMARK                            x       y       z     vdW  Elec       q    Type
REMARK                         _______ _______ _______ _____ _____    ______ ____
ROOT
ATOM      1  N   UNL     1       1.943   8.677  19.012  0.00  0.00    +0.000 N 
ATOM      2  C   UNL     1       2.241   7.513  18.318  0.00  0.00    +0.000 C 
ATOM      3  O   UNL     1       1.920   7.384  17.138  0.00  0.00    +0.000 OA
ATOM      4  H   UNL     1       2.078   8.705  20.017  0.00  0.00    +0.000 HD
ENDROOT
BRANCH   1   7
ATOM      5  N   UNL     1       0.104  11.040  20.013  0.00  0.00    +0.000 N 
ATOM      6  C   UNL     1      -0.160  10.023  19.012  0.00  0.00    +0.000 C 
ATOM      7  C   UNL     1       1.199   9.761  18.362  0.00  0.00    +0.000 C 
ATOM      8  C   UNL     1       1.912  11.090  18.490  0.00  0.00    +0.000 C 
ATOM      9  C   UNL     1       1.307  11.700  19.738  0.00  0.00    +0.000 C 
ATOM     10  O   UNL     1       1.838  12.630  20.326  0.00  0.00    +0.000 OA
BRANCH   5  14
ATOM     11  C   UNL     1      -2.739  12.225  22.966  0.00  0.00    +0.000 A 
ATOM     12  C   UNL     1      -1.696  11.367  23.295  0.00  0.00    +0.000 A 
ATOM     13  C   UNL     1      -0.764  10.966  22.326  0.00  0.00    +0.000 A 
ATOM     14  C   UNL     1      -0.853  11.413  21.002  0.00  0.00    +0.000 A 
ATOM     15  C   UNL     1      -1.924  12.261  20.683  0.00  0.00    +0.000 A 
ATOM     16  C   UNL     1      -2.862  12.657  21.650  0.00  0.00    +0.000 A 
BRANCH  11  18
ATOM     17  C   UNL     1      -3.606  13.914  24.365  0.00  0.00    +0.000 C 
ATOM     18  O   UNL     1      -3.592  12.541  23.985  0.00  0.00    +0.000 OA
ENDBRANCH  11  18
ENDBRANCH   5  14
ENDBRANCH   1   7
BRANCH   2  19
ATOM     19  C   UNL     1       3.017   6.434  19.123  0.00  0.00    +0.000 C 
BRANCH  19  20
ATOM     20  C   UNL     1       2.161   5.179  19.324  0.00  0.00    +0.000 A 
ATOM     21  C   UNL     1       1.698   4.784  20.590  0.00  0.00    +0.000 A 
ATOM     22  C   UNL     1       1.082   3.544  20.782  0.00  0.00    +0.000 A 
ATOM     23  C   UNL     1       0.909   2.678  19.709  0.00  0.00    +0.000 A 
ATOM     24  C   UNL     1       1.312   3.071  18.434  0.00  0.00    +0.000 A 
ATOM     25  C   UNL     1       1.923   4.314  18.240  0.00  0.00    +0.000 A 
ENDBRANCH  19  20
BRANCH  19  26
ATOM     26  C   UNL     1       4.419   6.230  18.545  0.00  0.00    +0.000 A 
ATOM     27  C   UNL     1       5.348   5.426  19.228  0.00  0.00    +0.000 A 
ATOM     28  C   UNL     1       6.679   5.346  18.801  0.00  0.00    +0.000 A 
ATOM     29  C   UNL     1       7.098   6.046  17.673  0.00  0.00    +0.000 A 
ATOM     30  C   UNL     1       6.182   6.815  16.962  0.00  0.00    +0.000 A 
ATOM     31  C   UNL     1       4.858   6.911  17.398  0.00  0.00    +0.000 A 
ENDBRANCH  19  26
ENDBRANCH   2  19
TORSDOF 6
ENDMDL
MODEL 4
REMARK VINA RESULT:      -8.2      2.476      4.739
REMARK  Name = 
REMARK  7 active torsions:
REMARK  status: ('A' for Active; 'I' for Inactive)
REMARK    1  A    between atoms: C_1  and  O_2
REMARK    2  A    between atoms: O_2  and  C_3
REMARK    3  A    between atoms: C_6  and  N_7
REMARK    4  A    between atoms: C_9  and  N_10
REMARK    5  A    between atoms: C_11  and  C_13
REMARK    6  A    between atoms: C_13  and  C_14
REMARK    7  A    between atoms: C_13  and  C_20
REMARK                            x       y       z     vdW  Elec       q    Type
REMARK                         _______ _______ _______ _____ _____    ______ ____
ROOT
ATOM      1  N   UNL     1       2.028   8.268  18.561  0.00  0.00    +0.000 N 
ATOM      2  C   UNL     1       2.957   7.580  17.791  0.00  0.00    +0.000 C 
ATOM      3  O   UNL     1       3.145   7.880  16.614  0.00  0.00    +0.000 OA
ATOM      4  H   UNL     1       1.780   7.911  19.477  0.00  0.00    +0.000 HD
ENDROOT
BRANCH   1   7
ATOM      5  N   UNL     1       0.324  10.670  19.695  0.00  0.00    +0.000 N 
ATOM      6  C   UNL     1      -0.055   9.628  18.760  0.00  0.00    +0.000 C 
ATOM      7  C   UNL     1       1.219   9.338  17.968  0.00  0.00    +0.000 C 
ATOM      8  C   UNL     1       1.947  10.665  17.976  0.00  0.00    +0.000 C 
ATOM      9  C   UNL     1       1.491  11.314  19.267  0.00  0.00    +0.000 C 
ATOM     10  O   UNL     1       2.088  12.256  19.765  0.00  0.00    +0.000 OA
BRANCH   5  14
ATOM     11  C   UNL     1      -2.207  11.823  22.931  0.00  0.00    +0.000 A 
ATOM     12  C   UNL     1      -2.347  12.414  21.681  0.00  0.00    +0.000 A 
ATOM     13  C   UNL     1      -1.511  12.047  20.617  0.00  0.00    +0.000 A 
ATOM     14  C   UNL     1      -0.513  11.078  20.776  0.00  0.00    +0.000 A 
ATOM     15  C   UNL     1      -0.371  10.507  22.050  0.00  0.00    +0.000 A 
ATOM     16  C   UNL     1      -1.203  10.879  23.119  0.00  0.00    +0.000 A 
BRANCH  11  18
ATOM     17  C   UNL     1      -3.779  13.456  23.581  0.00  0.00    +0.000 C 
ATOM     18  O   UNL     1      -3.068  12.263  23.896  0.00  0.00    +0.000 OA
ENDBRANCH  11  18
ENDBRANCH   5  14
ENDBRANCH   1   7
BRANCH   2  19
ATOM     19  C   UNL     1       3.737   6.458  18.530  0.00  0.00    +0.000 C 
BRANCH  19  20
ATOM     20  C   UNL     1       2.788   5.354  19.008  0.00  0.00    +0.000 A 
ATOM     21  C   UNL     1       2.042   4.569  18.113  0.00  0.00    +0.000 A 
ATOM     22  C   UNL     1       1.048   3.699  18.567  0.00  0.00    +0.000 A 
ATOM     23  C   UNL     1       0.785   3.590  19.928  0.00  0.00    +0.000 A 
ATOM     24  C   UNL     1       1.548   4.318  20.837  0.00  0.00    +0.000 A 
ATOM     25  C   UNL     1       2.548   5.185  20.384  0.00  0.00    +0.000 A 
ENDBRANCH  19  20
BRANCH  19  26
ATOM     26  C   UNL     1       4.956   6.018  17.716  0.00  0.00    +0.000 A 
ATOM     27  C   UNL     1       4.783   5.217  16.574  0.00  0.00    +0.000 A 
ATOM     28  C   UNL     1       5.886   4.676  15.901  0.00  0.00    +0.000 A 
ATOM     29  C   UNL     1       7.178   4.947  16.343  0.00  0.00    +0.000 A 
ATOM     30  C   UNL     1       7.369   5.770  17.447  0.00  0.00    +0.000 A 
ATOM     31  C   UNL     1       6.268   6.294  18.131  0.00  0.00    +0.000 A 
ENDBRANCH  19  26
ENDBRANCH   2  19
TORSDOF 6
ENDMDL
MODEL 5
REMARK VINA RESULT:      -8.2      0.459      1.318
REMARK  Name = 
REMARK  7 active torsions:
REMARK  status: ('A' for Active; 'I' for Inactive)
REMARK    1  A    between atoms: C_1  and  O_2
REMARK    2  A    between atoms: O_2  and  C_3
REMARK    3  A    between atoms: C_6  and  N_7
REMARK    4  A    between atoms: C_9  and  N_10
REMARK    5  A    between atoms: C_11  and  C_13
REMARK    6  A    between atoms: C_13  and  C_14
REMARK    7  A    between atoms: C_13  and  C_20
REMARK                            x       y       z     vdW  Elec       q    Type
REMARK                         _______ _______ _______ _____ _____    ______ ____
ROOT
ATOM      1  N   UNL     1       2.221   7.262  19.211  0.00  0.00    +0.000 N 
ATOM      2  C   UNL     1       3.123   6.888  18.225  0.00  0.00    +0.000 C 
ATOM      3  O   UNL     1       3.929   7.697  17.770  0.00  0.00    +0.000 OA
ATOM      4  H   UNL     1       1.470   6.630  19.464  0.00  0.00    +0.000 HD
ENDROOT
BRANCH   1   7
ATOM      5  N   UNL     1       0.046   9.549  19.281  0.00  0.00    +0.000 N 
ATOM      6  C   UNL     1       1.404   9.581  18.773  0.00  0.00    +0.000 C 
ATOM      7  C   UNL     1       2.183   8.646  19.698  0.00  0.00    +0.000 C 
ATOM      8  C   UNL     1       1.445   8.760  21.015  0.00  0.00    +0.000 C 
ATOM      9  C   UNL     1       0.024   9.083  20.600  0.00  0.00    +0.000 C 
ATOM     10  O   UNL     1      -0.919   8.955  21.365  0.00  0.00    +0.000 OA
BRANCH   5  14
ATOM     11  C   UNL     1      -3.291  11.214  17.207  0.00  0.00    +0.000 A 
ATOM     12  C   UNL     1      -2.589  10.142  16.668  0.00  0.00    +0.000 A 
ATOM     13  C   UNL     1      -1.485   9.597  17.340  0.00  0.00    +0.000 A 
ATOM     14  C   UNL     1      -1.055  10.111  18.569  0.00  0.00    +0.000 A 
ATOM     15  C   UNL     1      -1.762  11.208  19.088  0.00  0.00    +0.000 A 
ATOM     16  C   UNL     1      -2.862  11.759  18.412  0.00  0.00    +0.000 A 
BRANCH  11  18
ATOM     17  C   UNL     1      -5.491  12.064  17.206  0.00  0.00    +0.000 C 
ATOM     18  O   UNL     1      -4.342  11.669  16.462  0.00  0.00    +0.000 OA
ENDBRANCH  11  18
ENDBRANCH   5  14
ENDBRANCH   1   7
BRANCH   2  19
ATOM     19  C   UNL     1       3.050   5.401  17.782  0.00  0.00    +0.000 C 
BRANCH  19  20
ATOM     20  C   UNL     1       4.390   4.935  17.203  0.00  0.00    +0.000 A 
ATOM     21  C   UNL     1       5.570   4.920  17.964  0.00  0.00    +0.000 A 
ATOM     22  C   UNL     1       6.812   4.673  17.372  0.00  0.00    +0.000 A 
ATOM     23  C   UNL     1       6.896   4.427  16.007  0.00  0.00    +0.000 A 
ATOM     24  C   UNL     1       5.733   4.384  15.241  0.00  0.00    +0.000 A 
ATOM     25  C   UNL     1       4.490   4.625  15.834  0.00  0.00    +0.000 A 
ENDBRANCH  19  20
BRANCH  19  26
ATOM     26  C   UNL     1       2.437   4.536  18.886  0.00  0.00    +0.000 A 
ATOM     27  C   UNL     1       1.352   3.691  18.593  0.00  0.00    +0.000 A 
ATOM     28  C   UNL     1       0.678   3.007  19.612  0.00  0.00    +0.000 A 
ATOM     29  C   UNL     1       1.091   3.136  20.935  0.00  0.00    +0.000 A 
ATOM     30  C   UNL     1       2.188   3.936  21.239  0.00  0.00    +0.000 A 
ATOM     31  C   UNL     1       2.849   4.635  20.225  0.00  0.00    +0.000 A 
ENDBRANCH  19  26
ENDBRANCH   2  19
TORSDOF 6
ENDMDL
MODEL 6
REMARK VINA RESULT:      -8.2      0.310      1.279
REMARK  Name = 
REMARK  7 active torsions:
REMARK  status: ('A' for Active; 'I' for Inactive)
REMARK    1  A    between atoms: C_1  and  O_2
REMARK    2  A    between atoms: O_2  and  C_3
REMARK    3  A    between atoms: C_6  and  N_7
REMARK    4  A    between atoms: C_9  and  N_10
REMARK    5  A    between atoms: C_11  and  C_13
REMARK    6  A    between atoms: C_13  and  C_14
REMARK    7  A    between atoms: C_13  and  C_20
REMARK                            x       y       z     vdW  Elec       q    Type
REMARK                         _______ _______ _______ _____ _____    ______ ____
ROOT
ATOM      1  N   UNL     1       2.121   7.801  18.367  0.00  0.00    +0.000 N 
ATOM      2  C   UNL     1       3.323   7.255  17.937  0.00  0.00    +0.000 C 
ATOM      3  O   UNL     1       4.352   7.928  17.927  0.00  0.00    +0.000 OA
ATOM      4  H   UNL     1       1.261   7.281  18.226  0.00  0.00    +0.000 HD
ENDROOT
BRANCH   1   7
ATOM      5  N   UNL     1      -0.202   9.912  18.700  0.00  0.00    +0.000 N 
ATOM      6  C   UNL     1       1.037  10.012  17.954  0.00  0.00    +0.000 C 
ATOM      7  C   UNL     1       2.047   9.208  18.773  0.00  0.00    +0.000 C 
ATOM      8  C   UNL     1       1.545   9.358  20.193  0.00  0.00    +0.000 C 
ATOM      9  C   UNL     1       0.050   9.541  20.026  0.00  0.00    +0.000 C 
ATOM     10  O   UNL     1      -0.728   9.395  20.955  0.00  0.00    +0.000 OA
BRANCH   5  14
ATOM     11  C   UNL     1      -3.922  11.203  17.055  0.00  0.00    +0.000 A 
ATOM     12  C   UNL     1      -3.451  11.744  18.246  0.00  0.00    +0.000 A 
ATOM     13  C   UNL     1      -2.234  11.316  18.796  0.00  0.00    +0.000 A 
ATOM     14  C   UNL     1      -1.457  10.335  18.169  0.00  0.00    +0.000 A 
ATOM     15  C   UNL     1      -1.957   9.784  16.980  0.00  0.00    +0.000 A 
ATOM     16  C   UNL     1      -3.179  10.206  16.431  0.00  0.00    +0.000 A 
BRANCH  11  18
ATOM     17  C   UNL     1      -5.960  12.245  17.623  0.00  0.00    +0.000 C 
ATOM     18  O   UNL     1      -5.121  11.687  16.616  0.00  0.00    +0.000 OA
ENDBRANCH  11  18
ENDBRANCH   5  14
ENDBRANCH   1   7
BRANCH   2  19
ATOM     19  C   UNL     1       3.266   5.760  17.517  0.00  0.00    +0.000 C 
BRANCH  19  20
ATOM     20  C   UNL     1       4.622   5.289  16.984  0.00  0.00    +0.000 A 
ATOM     21  C   UNL     1       4.776   4.759  15.692  0.00  0.00    +0.000 A 
ATOM     22  C   UNL     1       5.974   4.163  15.290  0.00  0.00    +0.000 A 
ATOM     23  C   UNL     1       7.048   4.093  16.170  0.00  0.00    +0.000 A 
ATOM     24  C   UNL     1       6.937   4.661  17.438  0.00  0.00    +0.000 A 
ATOM     25  C   UNL     1       5.739   5.262  17.839  0.00  0.00    +0.000 A 
ENDBRANCH  19  20
BRANCH  19  26
ATOM     26  C   UNL     1       2.622   4.912  18.616  0.00  0.00    +0.000 A 
ATOM     27  C   UNL     1       1.676   3.929  18.279  0.00  0.00    +0.000 A 
ATOM     28  C   UNL     1       0.963   3.246  19.273  0.00  0.00    +0.000 A 
ATOM     29  C   UNL     1       1.202   3.516  20.617  0.00  0.00    +0.000 A 
ATOM     30  C   UNL     1       2.164   4.457  20.970  0.00  0.00    +0.000 A 
ATOM     31  C   UNL     1       2.862   5.153  19.979  0.00  0.00    +0.000 A 
ENDBRANCH  19  26
ENDBRANCH   2  19
TORSDOF 6
ENDMDL
MODEL 7
REMARK VINA RESULT:      -8.2      2.500      4.682
REMARK  Name = 
REMARK  7 active torsions:
REMARK  status: ('A' for Active; 'I' for Inactive)
REMARK    1  A    between atoms: C_1  and  O_2
REMARK    2  A    between atoms: O_2  and  C_3
REMARK    3  A    between atoms: C_6  and  N_7
REMARK    4  A    between atoms: C_9  and  N_10
REMARK    5  A    between atoms: C_11  and  C_13
REMARK    6  A    between atoms: C_13  and  C_14
REMARK    7  A    between atoms: C_13  and  C_20
REMARK                            x       y       z     vdW  Elec       q    Type
REMARK                         _______ _______ _______ _____ _____    ______ ____
ROOT
ATOM      1  N   UNL     1       2.061   8.316  18.559  0.00  0.00    +0.000 N 
ATOM      2  C   UNL     1       2.937   7.567  17.786  0.00  0.00    +0.000 C 
ATOM      3  O   UNL     1       3.091   7.814  16.591  0.00  0.00    +0.000 OA
ATOM      4  H   UNL     1       1.835   8.005  19.497  0.00  0.00    +0.000 HD
ENDROOT
BRANCH   1   7
ATOM      5  N   UNL     1       0.337  10.719  19.664  0.00  0.00    +0.000 N 
ATOM      6  C   UNL     1      -0.025   9.680  18.718  0.00  0.00    +0.000 C 
ATOM      7  C   UNL     1       1.266   9.390  17.952  0.00  0.00    +0.000 C 
ATOM      8  C   UNL     1       1.997  10.716  17.980  0.00  0.00    +0.000 C 
ATOM      9  C   UNL     1       1.513  11.362  19.263  0.00  0.00    +0.000 C 
ATOM     10  O   UNL     1       2.101  12.301  19.776  0.00  0.00    +0.000 OA
BRANCH   5  14
ATOM     11  C   UNL     1      -2.206  11.998  22.843  0.00  0.00    +0.000 A 
ATOM     12  C   UNL     1      -1.284  10.977  23.044  0.00  0.00    +0.000 A 
ATOM     13  C   UNL     1      -0.453  10.545  22.000  0.00  0.00    +0.000 A 
ATOM     14  C   UNL     1      -0.523  11.124  20.727  0.00  0.00    +0.000 A 
ATOM     15  C   UNL     1      -1.474  12.138  20.536  0.00  0.00    +0.000 A 
ATOM     16  C   UNL     1      -2.313  12.566  21.578  0.00  0.00    +0.000 A 
BRANCH  11  18
ATOM     17  C   UNL     1      -4.320  12.676  23.637  0.00  0.00    +0.000 C 
ATOM     18  O   UNL     1      -2.969  12.330  23.926  0.00  0.00    +0.000 OA
ENDBRANCH  11  18
ENDBRANCH   5  14
ENDBRANCH   1   7
BRANCH   2  19
ATOM     19  C   UNL     1       3.706   6.448  18.542  0.00  0.00    +0.000 C 
BRANCH  19  20
ATOM     20  C   UNL     1       2.751   5.342  19.003  0.00  0.00    +0.000 A 
ATOM     21  C   UNL     1       2.016   4.561  18.096  0.00  0.00    +0.000 A 
ATOM     22  C   UNL     1       1.016   3.690  18.534  0.00  0.00    +0.000 A 
ATOM     23  C   UNL     1       0.736   3.575  19.891  0.00  0.00    +0.000 A 
ATOM     24  C   UNL     1       1.489   4.299  20.813  0.00  0.00    +0.000 A 
ATOM     25  C   UNL     1       2.494   5.168  20.375  0.00  0.00    +0.000 A 
ENDBRANCH  19  20
BRANCH  19  26
ATOM     26  C   UNL     1       4.941   6.010  17.751  0.00  0.00    +0.000 A 
ATOM     27  C   UNL     1       6.129   6.756  17.837  0.00  0.00    +0.000 A 
ATOM     28  C   UNL     1       7.222   6.466  17.011  0.00  0.00    +0.000 A 
ATOM     29  C   UNL     1       7.155   5.411  16.105  0.00  0.00    +0.000 A 
ATOM     30  C   UNL     1       6.001   4.636  16.035  0.00  0.00    +0.000 A 
ATOM     31  C   UNL     1       4.903   4.938  16.845  0.00  0.00    +0.000 A 
ENDBRANCH  19  26
ENDBRANCH   2  19
TORSDOF 6
ENDMDL
MODEL 8
REMARK VINA RESULT:      -8.2      2.670      4.636
REMARK  Name = 
REMARK  7 active torsions:
REMARK  status: ('A' for Active; 'I' for Inactive)
REMARK    1  A    between atoms: C_1  and  O_2
REMARK    2  A    between atoms: O_2  and  C_3
REMARK    3  A    between atoms: C_6  and  N_7
REMARK    4  A    between atoms: C_9  and  N_10
REMARK    5  A    between atoms: C_11  and  C_13
REMARK    6  A    between atoms: C_13  and  C_14
REMARK    7  A    between atoms: C_13  and  C_20
REMARK                            x       y       z     vdW  Elec       q    Type
REMARK                         _______ _______ _______ _____ _____    ______ ____
ROOT
ATOM      1  N   UNL     1       2.351   8.266  18.797  0.00  0.00    +0.000 N 
ATOM      2  C   UNL     1       2.415   6.928  18.430  0.00  0.00    +0.000 C 
ATOM      3  O   UNL     1       1.729   6.496  17.505  0.00  0.00    +0.000 OA
ATOM      4  H   UNL     1       2.806   8.569  19.651  0.00  0.00    +0.000 HD
ENDROOT
BRANCH   1   7
ATOM      5  N   UNL     1       0.430  10.596  19.716  0.00  0.00    +0.000 N 
ATOM      6  C   UNL     1       0.143   9.426  18.907  0.00  0.00    +0.000 C 
ATOM      7  C   UNL     1       1.428   9.180  18.116  0.00  0.00    +0.000 C 
ATOM      8  C   UNL     1       2.017  10.566  17.964  0.00  0.00    +0.000 C 
ATOM      9  C   UNL     1       1.517  11.302  19.191  0.00  0.00    +0.000 C 
ATOM     10  O   UNL     1       2.024  12.347  19.570  0.00  0.00    +0.000 OA
BRANCH   5  14
ATOM     11  C   UNL     1      -2.162  11.835  22.871  0.00  0.00    +0.000 A 
ATOM     12  C   UNL     1      -2.264  12.407  21.608  0.00  0.00    +0.000 A 
ATOM     13  C   UNL     1      -1.408  12.011  20.570  0.00  0.00    +0.000 A 
ATOM     14  C   UNL     1      -0.427  11.032  20.769  0.00  0.00    +0.000 A 
ATOM     15  C   UNL     1      -0.324  10.481  22.055  0.00  0.00    +0.000 A 
ATOM     16  C   UNL     1      -1.175  10.882  23.098  0.00  0.00    +0.000 A 
BRANCH  11  18
ATOM     17  C   UNL     1      -4.090  13.122  23.304  0.00  0.00    +0.000 C 
ATOM     18  O   UNL     1      -3.039  12.303  23.807  0.00  0.00    +0.000 OA
ENDBRANCH  11  18
ENDBRANCH   5  14
ENDBRANCH   1   7
BRANCH   2  19
ATOM     19  C   UNL     1       3.418   6.061  19.238  0.00  0.00    +0.000 C 
BRANCH  19  20
ATOM     20  C   UNL     1       2.797   4.711  19.614  0.00  0.00    +0.000 A 
ATOM     21  C   UNL     1       2.999   3.554  18.843  0.00  0.00    +0.000 A 
ATOM     22  C   UNL     1       2.279   2.383  19.092  0.00  0.00    +0.000 A 
ATOM     23  C   UNL     1       1.348   2.342  20.124  0.00  0.00    +0.000 A 
ATOM     24  C   UNL     1       1.171   3.460  20.936  0.00  0.00    +0.000 A 
ATOM     25  C   UNL     1       1.895   4.631  20.691  0.00  0.00    +0.000 A 
ENDBRANCH  19  20
BRANCH  19  26
ATOM     26  C   UNL     1       4.784   6.025  18.548  0.00  0.00    +0.000 A 
ATOM     27  C   UNL     1       5.903   5.527  19.236  0.00  0.00    +0.000 A 
ATOM     28  C   UNL     1       7.187   5.624  18.686  0.00  0.00    +0.000 A 
ATOM     29  C   UNL     1       7.370   6.197  17.430  0.00  0.00    +0.000 A 
ATOM     30  C   UNL     1       6.268   6.658  16.717  0.00  0.00    +0.000 A 
ATOM     31  C   UNL     1       4.989   6.580  17.275  0.00  0.00    +0.000 A 
ENDBRANCH  19  26
ENDBRANCH   2  19
TORSDOF 6
ENDMDL
MODEL 9
REMARK VINA RESULT:      -8.1      0.888      1.560
REMARK  Name = 
REMARK  7 active torsions:
REMARK  status: ('A' for Active; 'I' for Inactive)
REMARK    1  A    between atoms: C_1  and  O_2
REMARK    2  A    between atoms: O_2  and  C_3
REMARK    3  A    between atoms: C_6  and  N_7
REMARK    4  A    between atoms: C_9  and  N_10
REMARK    5  A    between atoms: C_11  and  C_13
REMARK    6  A    between atoms: C_13  and  C_14
REMARK    7  A    between atoms: C_13  and  C_20
REMARK                            x       y       z     vdW  Elec       q    Type
REMARK                         _______ _______ _______ _____ _____    ______ ____
ROOT
ATOM      1  N   UNL     1       1.907   7.737  18.172  0.00  0.00    +0.000 N 
ATOM      2  C   UNL     1       2.918   6.834  18.471  0.00  0.00    +0.000 C 
ATOM      3  O   UNL     1       3.835   7.145  19.228  0.00  0.00    +0.000 OA
ATOM      4  H   UNL     1       1.247   7.516  17.434  0.00  0.00    +0.000 HD
ENDROOT
BRANCH   1   7
ATOM      5  N   UNL     1      -0.269   9.898  18.919  0.00  0.00    +0.000 N 
ATOM      6  C   UNL     1       0.904  10.021  18.076  0.00  0.00    +0.000 C 
ATOM      7  C   UNL     1       1.940   9.098  18.718  0.00  0.00    +0.000 C 
ATOM      8  C   UNL     1       1.571   9.125  20.186  0.00  0.00    +0.000 C 
ATOM      9  C   UNL     1       0.079   9.385  20.174  0.00  0.00    +0.000 C 
ATOM     10  O   UNL     1      -0.622   9.179  21.152  0.00  0.00    +0.000 OA
BRANCH   5  14
ATOM     11  C   UNL     1      -4.102  11.458  17.878  0.00  0.00    +0.000 A 
ATOM     12  C   UNL     1      -3.575  10.367  17.197  0.00  0.00    +0.000 A 
ATOM     13  C   UNL     1      -2.312   9.856  17.528  0.00  0.00    +0.000 A 
ATOM     14  C   UNL     1      -1.542  10.425  18.549  0.00  0.00    +0.000 A 
ATOM     15  C   UNL     1      -2.079  11.540  19.212  0.00  0.00    +0.000 A 
ATOM     16  C   UNL     1      -3.341  12.057  18.876  0.00  0.00    +0.000 A 
BRANCH  11  18
ATOM     17  C   UNL     1      -6.439  11.238  18.099  0.00  0.00    +0.000 C 
ATOM     18  O   UNL     1      -5.335  11.877  17.466  0.00  0.00    +0.000 OA
ENDBRANCH  11  18
ENDBRANCH   5  14
ENDBRANCH   1   7
BRANCH   2  19
ATOM     19  C   UNL     1       2.777   5.432  17.817  0.00  0.00    +0.000 C 
BRANCH  19  20
ATOM     20  C   UNL     1       4.021   5.084  16.993  0.00  0.00    +0.000 A 
ATOM     21  C   UNL     1       4.484   3.765  16.856  0.00  0.00    +0.000 A 
ATOM     22  C   UNL     1       5.717   3.488  16.260  0.00  0.00    +0.000 A 
ATOM     23  C   UNL     1       6.509   4.524  15.782  0.00  0.00    +0.000 A 
ATOM     24  C   UNL     1       6.046   5.836  15.858  0.00  0.00    +0.000 A 
ATOM     25  C   UNL     1       4.810   6.114  16.448  0.00  0.00    +0.000 A 
ENDBRANCH  19  20
BRANCH  19  26
ATOM     26  C   UNL     1       2.319   4.396  18.847  0.00  0.00    +0.000 A 
ATOM     27  C   UNL     1       1.287   3.498  18.525  0.00  0.00    +0.000 A 
ATOM     28  C   UNL     1       0.747   2.645  19.497  0.00  0.00    +0.000 A 
ATOM     29  C   UNL     1       1.246   2.659  20.796  0.00  0.00    +0.000 A 
ATOM     30  C   UNL     1       2.295   3.513  21.122  0.00  0.00    +0.000 A 
ATOM     31  C   UNL     1       2.820   4.378  20.158  0.00  0.00    +0.000 A 
ENDBRANCH  19  26
ENDBRANCH   2  19
TORSDOF 6
ENDMDL
