MODEL 1
REMARK VINA RESULT:      -8.5      0.000      0.000
REMARK  Name = 
REMARK  5 active torsions:
REMARK  status: ('A' for Active; 'I' for Inactive)
REMARK    1  A    between atoms: C_2  and  C_3
REMARK    2  A    between atoms: C_3  and  S_4
REMARK    3  A    between atoms: S_4  and  C_5
REMARK    4  A    between atoms: N_18  and  C_19
REMARK    5  A    between atoms: N_29  and  C_30
REMARK                            x       y       z     vdW  Elec       q    Type
REMARK                         _______ _______ _______ _____ _____    ______ ____
ROOT
ATOM      1  C   UNL     1      -0.680  11.322  20.386  0.00  0.00    +0.000 A 
ATOM      2  N   UNL     1      -0.089  10.591  19.481  0.00  0.00    +0.000 NA
ATOM      3  C   UNL     1       0.656   9.499  20.009  0.00  0.00    +0.000 A 
ATOM      4  C   UNL     1       0.698   9.241  21.337  0.00  0.00    +0.000 A 
ATOM      5  N   UNL     1       1.489   8.136  21.520  0.00  0.00    +0.000 N 
ATOM      6  C   UNL     1       1.982   7.715  20.305  0.00  0.00    +0.000 A 
ATOM      7  C   UNL     1       2.860   6.657  20.010  0.00  0.00    +0.000 A 
ATOM      8  C   UNL     1       3.225   6.477  18.671  0.00  0.00    +0.000 A 
ATOM      9  C   UNL     1       2.716   7.289  17.677  0.00  0.00    +0.000 A 
ATOM     10  C   UNL     1       1.822   8.340  17.981  0.00  0.00    +0.000 A 
ATOM     11  C   UNL     1       1.452   8.557  19.327  0.00  0.00    +0.000 A 
ATOM     12  C   UNL     1       0.048  10.028  22.320  0.00  0.00    +0.000 A 
ATOM     13  O   UNL     1       0.144   9.748  23.533  0.00  0.00    +0.000 OA
ATOM     14  N   UNL     1      -0.688  11.105  21.776  0.00  0.00    +0.000 N 
ATOM     15  H   UNL     1       1.691   7.705  22.415  0.00  0.00    +0.000 HD
ENDROOT
BRANCH  14  16
ATOM     16  C   UNL     1      -1.289  11.985  22.720  0.00  0.00    +0.000 A 
ATOM     17  C   UNL     1      -2.535  11.615  23.234  0.00  0.00    +0.000 A 
ATOM     18  C   UNL     1      -3.376  12.591  23.727  0.00  0.00    +0.000 A 
ATOM     19  C   UNL     1      -2.934  13.905  23.815  0.00  0.00    +0.000 A 
ATOM     20  C   UNL     1      -3.835  14.942  24.034  0.00  0.00    +0.000 A 
ATOM     21  C   UNL     1      -3.468  16.020  24.803  0.00  0.00    +0.000 A 
ATOM     22  C   UNL     1      -2.115  16.219  25.025  0.00  0.00    +0.000 A 
ATOM     23  C   UNL     1      -1.170  15.402  24.370  0.00  0.00    +0.000 A 
ATOM     24  C   UNL     1      -1.570  14.196  23.740  0.00  0.00    +0.000 A 
ATOM     25  C   UNL     1      -0.761  13.247  23.058  0.00  0.00    +0.000 A 
ENDBRANCH  14  16
BRANCH   1  26
ATOM     26  S   UNL     1      -1.509  12.766  19.811  0.00  0.00    +0.000 S 
BRANCH  26  27
ATOM     27  C   UNL     1      -2.104  12.273  18.183  0.00  0.00    +0.000 C 
BRANCH  27  29
ATOM     28  O   UNL     1      -3.512  10.337  17.888  0.00  0.00    +0.000 OA
ATOM     29  C   UNL     1      -3.422  11.520  18.243  0.00  0.00    +0.000 C 
ATOM     30  N   UNL     1      -4.475  12.223  18.787  0.00  0.00    +0.000 N 
ATOM     31  H   UNL     1      -4.199  13.057  19.305  0.00  0.00    +0.000 HD
BRANCH  30  32
ATOM     32  C   UNL     1      -5.737  11.609  19.200  0.00  0.00    +0.000 C 
ATOM     33  C   UNL     1      -6.162  12.161  20.575  0.00  0.00    +0.000 C 
ATOM     34  C   UNL     1      -6.778  13.562  20.518  0.00  0.00    +0.000 C 
ATOM     35  C   UNL     1      -7.891  13.660  19.481  0.00  0.00    +0.000 C 
ATOM     36  C   UNL     1      -7.399  13.206  18.112  0.00  0.00    +0.000 C 
ATOM     37  C   UNL     1      -6.877  11.774  18.182  0.00  0.00    +0.000 C 
ENDBRANCH  30  32
ENDBRANCH  27  29
ENDBRANCH  26  27
ENDBRANCH   1  26
TORSDOF 5
ENDMDL
MODEL 2
REMARK VINA RESULT:      -8.4      1.814      6.945
REMARK  Name = 
REMARK  5 active torsions:
REMARK  status: ('A' for Active; 'I' for Inactive)
REMARK    1  A    between atoms: C_2  and  C_3
REMARK    2  A    between atoms: C_3  and  S_4
REMARK    3  A    between atoms: S_4  and  C_5
REMARK    4  A    between atoms: N_18  and  C_19
REMARK    5  A    between atoms: N_29  and  C_30
REMARK                            x       y       z     vdW  Elec       q    Type
REMARK                         _______ _______ _______ _____ _____    ______ ____
ROOT
ATOM      1  C   UNL     1      -1.590  11.523  19.475  0.00  0.00    +0.000 A 
ATOM      2  N   UNL     1      -2.563  12.334  19.786  0.00  0.00    +0.000 NA
ATOM      3  C   UNL     1      -2.243  13.257  20.822  0.00  0.00    +0.000 A 
ATOM      4  C   UNL     1      -1.015  13.295  21.389  0.00  0.00    +0.000 A 
ATOM      5  N   UNL     1      -1.028  14.281  22.341  0.00  0.00    +0.000 N 
ATOM      6  C   UNL     1      -2.282  14.846  22.405  0.00  0.00    +0.000 A 
ATOM      7  C   UNL     1      -2.771  15.855  23.253  0.00  0.00    +0.000 A 
ATOM      8  C   UNL     1      -4.117  16.213  23.118  0.00  0.00    +0.000 A 
ATOM      9  C   UNL     1      -4.923  15.620  22.168  0.00  0.00    +0.000 A 
ATOM     10  C   UNL     1      -4.418  14.618  21.309  0.00  0.00    +0.000 A 
ATOM     11  C   UNL     1      -3.068  14.222  21.436  0.00  0.00    +0.000 A 
ATOM     12  C   UNL     1       0.046  12.422  21.043  0.00  0.00    +0.000 A 
ATOM     13  O   UNL     1       1.150  12.494  21.621  0.00  0.00    +0.000 OA
ATOM     14  N   UNL     1      -0.290  11.515  20.012  0.00  0.00    +0.000 N 
ATOM     15  H   UNL     1      -0.238  14.544  22.920  0.00  0.00    +0.000 HD
ENDROOT
BRANCH  14  16
ATOM     16  C   UNL     1       0.705  10.552  19.684  0.00  0.00    +0.000 A 
ATOM     17  C   UNL     1       1.513  10.823  18.575  0.00  0.00    +0.000 A 
ATOM     18  C   UNL     1       2.119   9.774  17.913  0.00  0.00    +0.000 A 
ATOM     19  C   UNL     1       2.018   8.485  18.420  0.00  0.00    +0.000 A 
ATOM     20  C   UNL     1       2.367   7.388  17.639  0.00  0.00    +0.000 A 
ATOM     21  C   UNL     1       2.960   6.293  18.220  0.00  0.00    +0.000 A 
ATOM     22  C   UNL     1       2.854   6.159  19.595  0.00  0.00    +0.000 A 
ATOM     23  C   UNL     1       2.058   7.064  20.328  0.00  0.00    +0.000 A 
ATOM     24  C   UNL     1       1.615   8.277  19.741  0.00  0.00    +0.000 A 
ATOM     25  C   UNL     1       0.831   9.306  20.329  0.00  0.00    +0.000 A 
ENDBRANCH  14  16
BRANCH   1  26
ATOM     26  S   UNL     1      -1.960  10.270  18.294  0.00  0.00    +0.000 S 
BRANCH  26  27
ATOM     27  C   UNL     1      -2.282  11.209  16.790  0.00  0.00    +0.000 C 
BRANCH  27  29
ATOM     28  O   UNL     1      -4.183  10.746  15.379  0.00  0.00    +0.000 OA
ATOM     29  C   UNL     1      -3.756  11.250  16.427  0.00  0.00    +0.000 C 
ATOM     30  N   UNL     1      -4.578  11.816  17.377  0.00  0.00    +0.000 N 
ATOM     31  H   UNL     1      -4.151  11.910  18.298  0.00  0.00    +0.000 HD
BRANCH  30  32
ATOM     32  C   UNL     1      -6.037  11.700  17.365  0.00  0.00    +0.000 C 
ATOM     33  C   UNL     1      -6.516  10.980  18.640  0.00  0.00    +0.000 C 
ATOM     34  C   UNL     1      -6.524  11.868  19.888  0.00  0.00    +0.000 C 
ATOM     35  C   UNL     1      -7.254  13.186  19.653  0.00  0.00    +0.000 C 
ATOM     36  C   UNL     1      -6.679  13.917  18.447  0.00  0.00    +0.000 C 
ATOM     37  C   UNL     1      -6.769  13.042  17.200  0.00  0.00    +0.000 C 
ENDBRANCH  30  32
ENDBRANCH  27  29
ENDBRANCH  26  27
ENDBRANCH   1  26
TORSDOF 5
ENDMDL
MODEL 3
REMARK VINA RESULT:      -8.4      1.666      2.543
REMARK  Name = 
REMARK  5 active torsions:
REMARK  status: ('A' for Active; 'I' for Inactive)
REMARK    1  A    between atoms: C_2  and  C_3
REMARK    2  A    between atoms: C_3  and  S_4
REMARK    3  A    between atoms: S_4  and  C_5
REMARK    4  A    between atoms: N_18  and  C_19
REMARK    5  A    between atoms: N_29  and  C_30
REMARK                            x       y       z     vdW  Elec       q    Type
REMARK                         _______ _______ _______ _____ _____    ______ ____
ROOT
ATOM      1  C   UNL     1      -0.932  12.304  20.606  0.00  0.00    +0.000 A 
ATOM      2  N   UNL     1      -0.380  11.600  19.657  0.00  0.00    +0.000 NA
ATOM      3  C   UNL     1       0.231  10.395  20.106  0.00  0.00    +0.000 A 
ATOM      4  C   UNL     1       0.192  10.017  21.404  0.00  0.00    +0.000 A 
ATOM      5  N   UNL     1       0.862   8.826  21.510  0.00  0.00    +0.000 N 
ATOM      6  C   UNL     1       1.361   8.466  20.277  0.00  0.00    +0.000 A 
ATOM      7  C   UNL     1       2.141   7.354  19.915  0.00  0.00    +0.000 A 
ATOM      8  C   UNL     1       2.542   7.258  18.576  0.00  0.00    +0.000 A 
ATOM      9  C   UNL     1       2.158   8.203  17.646  0.00  0.00    +0.000 A 
ATOM     10  C   UNL     1       1.360   9.308  18.018  0.00  0.00    +0.000 A 
ATOM     11  C   UNL     1       0.958   9.441  19.365  0.00  0.00    +0.000 A 
ATOM     12  C   UNL     1      -0.417  10.776  22.434  0.00  0.00    +0.000 A 
ATOM     13  O   UNL     1      -0.399  10.381  23.618  0.00  0.00    +0.000 OA
ATOM     14  N   UNL     1      -1.020  11.967  21.969  0.00  0.00    +0.000 N 
ATOM     15  H   UNL     1       0.983   8.298  22.367  0.00  0.00    +0.000 HD
ENDROOT
BRANCH  14  16
ATOM     16  C   UNL     1      -1.569  12.816  22.970  0.00  0.00    +0.000 A 
ATOM     17  C   UNL     1      -2.810  12.455  23.502  0.00  0.00    +0.000 A 
ATOM     18  C   UNL     1      -3.610  13.429  24.066  0.00  0.00    +0.000 A 
ATOM     19  C   UNL     1      -3.128  14.725  24.203  0.00  0.00    +0.000 A 
ATOM     20  C   UNL     1      -3.994  15.774  24.496  0.00  0.00    +0.000 A 
ATOM     21  C   UNL     1      -3.576  16.803  25.305  0.00  0.00    +0.000 A 
ATOM     22  C   UNL     1      -2.211  16.955  25.496  0.00  0.00    +0.000 A 
ATOM     23  C   UNL     1      -1.308  16.145  24.777  0.00  0.00    +0.000 A 
ATOM     24  C   UNL     1      -1.760  14.982  24.102  0.00  0.00    +0.000 A 
ATOM     25  C   UNL     1      -0.997  14.046  23.353  0.00  0.00    +0.000 A 
ENDBRANCH  14  16
BRANCH   1  26
ATOM     26  S   UNL     1      -1.590  13.871  20.141  0.00  0.00    +0.000 S 
BRANCH  26  27
ATOM     27  C   UNL     1      -3.350  13.693  20.487  0.00  0.00    +0.000 C 
BRANCH  27  29
ATOM     28  O   UNL     1      -4.673  11.685  20.674  0.00  0.00    +0.000 OA
ATOM     29  C   UNL     1      -3.918  12.378  19.980  0.00  0.00    +0.000 C 
ATOM     30  N   UNL     1      -3.592  12.062  18.678  0.00  0.00    +0.000 N 
ATOM     31  H   UNL     1      -3.228  12.844  18.136  0.00  0.00    +0.000 HD
BRANCH  30  32
ATOM     32  C   UNL     1      -4.254  11.009  17.906  0.00  0.00    +0.000 C 
ATOM     33  C   UNL     1      -4.470  11.481  16.455  0.00  0.00    +0.000 C 
ATOM     34  C   UNL     1      -3.209  11.425  15.589  0.00  0.00    +0.000 C 
ATOM     35  C   UNL     1      -2.519  10.067  15.664  0.00  0.00    +0.000 C 
ATOM     36  C   UNL     1      -2.227   9.686  17.110  0.00  0.00    +0.000 C 
ATOM     37  C   UNL     1      -3.515   9.661  17.926  0.00  0.00    +0.000 C 
ENDBRANCH  30  32
ENDBRANCH  27  29
ENDBRANCH  26  27
ENDBRANCH   1  26
TORSDOF 5
ENDMDL
MODEL 4
REMARK VINA RESULT:      -8.3      0.913      1.468
REMARK  Name = 
REMARK  5 active torsions:
REMARK  status: ('A' for Active; 'I' for Inactive)
REMARK    1  A    between atoms: C_2  and  C_3
REMARK    2  A    between atoms: C_3  and  S_4
REMARK    3  A    between atoms: S_4  and  C_5
REMARK    4  A    between atoms: N_18  and  C_19
REMARK    5  A    between atoms: N_29  and  C_30
REMARK                            x       y       z     vdW  Elec       q    Type
REMARK                         _______ _______ _______ _____ _____    ______ ____
ROOT
ATOM      1  C   UNL     1      -0.224  11.288  19.386  0.00  0.00    +0.000 A 
ATOM      2  N   UNL     1       0.360  10.339  18.707  0.00  0.00    +0.000 NA
ATOM      3  C   UNL     1       0.939   9.318  19.514  0.00  0.00    +0.000 A 
ATOM      4  C   UNL     1       0.842   9.334  20.863  0.00  0.00    +0.000 A 
ATOM      5  N   UNL     1       1.494   8.226  21.340  0.00  0.00    +0.000 N 
ATOM      6  C   UNL     1       2.040   7.524  20.288  0.00  0.00    +0.000 A 
ATOM      7  C   UNL     1       2.823   6.357  20.299  0.00  0.00    +0.000 A 
ATOM      8  C   UNL     1       3.278   5.876  19.065  0.00  0.00    +0.000 A 
ATOM      9  C   UNL     1       2.944   6.508  17.884  0.00  0.00    +0.000 A 
ATOM     10  C   UNL     1       2.142   7.672  17.883  0.00  0.00    +0.000 A 
ATOM     11  C   UNL     1       1.686   8.191  19.115  0.00  0.00    +0.000 A 
ATOM     12  C   UNL     1       0.198  10.359  21.600  0.00  0.00    +0.000 A 
ATOM     13  O   UNL     1       0.162  10.326  22.848  0.00  0.00    +0.000 OA
ATOM     14  N   UNL     1      -0.372  11.362  20.783  0.00  0.00    +0.000 N 
ATOM     15  H   UNL     1       1.573   7.972  22.317  0.00  0.00    +0.000 HD
ENDROOT
BRANCH  14  16
ATOM     16  C   UNL     1      -0.954  12.465  21.469  0.00  0.00    +0.000 A 
ATOM     17  C   UNL     1      -0.113  13.538  21.778  0.00  0.00    +0.000 A 
ATOM     18  C   UNL     1      -0.444  14.370  22.829  0.00  0.00    +0.000 A 
ATOM     19  C   UNL     1      -1.655  14.205  23.487  0.00  0.00    +0.000 A 
ATOM     20  C   UNL     1      -1.888  14.827  24.710  0.00  0.00    +0.000 A 
ATOM     21  C   UNL     1      -3.144  15.293  25.015  0.00  0.00    +0.000 A 
ATOM     22  C   UNL     1      -4.207  14.806  24.272  0.00  0.00    +0.000 A 
ATOM     23  C   UNL     1      -3.991  13.781  23.328  0.00  0.00    +0.000 A 
ATOM     24  C   UNL     1      -2.678  13.454  22.903  0.00  0.00    +0.000 A 
ATOM     25  C   UNL     1      -2.276  12.474  21.955  0.00  0.00    +0.000 A 
ENDBRANCH  14  16
BRANCH   1  26
ATOM     26  S   UNL     1      -0.844  12.650  18.457  0.00  0.00    +0.000 S 
BRANCH  26  27
ATOM     27  C   UNL     1      -1.842  11.854  17.184  0.00  0.00    +0.000 C 
BRANCH  27  29
ATOM     28  O   UNL     1      -3.183   9.959  17.839  0.00  0.00    +0.000 OA
ATOM     29  C   UNL     1      -3.088  11.190  17.745  0.00  0.00    +0.000 C 
ATOM     30  N   UNL     1      -4.058  12.055  18.204  0.00  0.00    +0.000 N 
ATOM     31  H   UNL     1      -3.733  13.011  18.345  0.00  0.00    +0.000 HD
BRANCH  30  32
ATOM     32  C   UNL     1      -5.191  11.643  19.033  0.00  0.00    +0.000 C 
ATOM     33  C   UNL     1      -5.515  12.742  20.062  0.00  0.00    +0.000 C 
ATOM     34  C   UNL     1      -6.281  13.933  19.479  0.00  0.00    +0.000 C 
ATOM     35  C   UNL     1      -7.509  13.496  18.687  0.00  0.00    +0.000 C 
ATOM     36  C   UNL     1      -7.128  12.489  17.609  0.00  0.00    +0.000 C 
ATOM     37  C   UNL     1      -6.450  11.272  18.231  0.00  0.00    +0.000 C 
ENDBRANCH  30  32
ENDBRANCH  27  29
ENDBRANCH  26  27
ENDBRANCH   1  26
TORSDOF 5
ENDMDL
MODEL 5
REMARK VINA RESULT:      -8.1      2.742      3.490
REMARK  Name = 
REMARK  5 active torsions:
REMARK  status: ('A' for Active; 'I' for Inactive)
REMARK    1  A    between atoms: C_2  and  C_3
REMARK    2  A    between atoms: C_3  and  S_4
REMARK    3  A    between atoms: S_4  and  C_5
REMARK    4  A    between atoms: N_18  and  C_19
REMARK    5  A    between atoms: N_29  and  C_30
REMARK                            x       y       z     vdW  Elec       q    Type
REMARK                         _______ _______ _______ _____ _____    ______ ____
ROOT
ATOM      1  C   UNL     1      -0.793  11.702  20.463  0.00  0.00    +0.000 A 
ATOM      2  N   UNL     1      -0.210  11.004  19.528  0.00  0.00    +0.000 NA
ATOM      3  C   UNL     1       0.499   9.866  20.007  0.00  0.00    +0.000 A 
ATOM      4  C   UNL     1       0.515   9.537  21.320  0.00  0.00    +0.000 A 
ATOM      5  N   UNL     1       1.274   8.403  21.454  0.00  0.00    +0.000 N 
ATOM      6  C   UNL     1       1.774   8.033  20.225  0.00  0.00    +0.000 A 
ATOM      7  C   UNL     1       2.627   6.969  19.886  0.00  0.00    +0.000 A 
ATOM      8  C   UNL     1       3.006   6.851  18.543  0.00  0.00    +0.000 A 
ATOM      9  C   UNL     1       2.534   7.728  17.587  0.00  0.00    +0.000 A 
ATOM     10  C   UNL     1       1.663   8.784  17.936  0.00  0.00    +0.000 A 
ATOM     11  C   UNL     1       1.280   8.940  19.286  0.00  0.00    +0.000 A 
ATOM     12  C   UNL     1      -0.128  10.288  22.335  0.00  0.00    +0.000 A 
ATOM     13  O   UNL     1      -0.057   9.942  23.532  0.00  0.00    +0.000 OA
ATOM     14  N   UNL     1      -0.828  11.412  21.840  0.00  0.00    +0.000 N 
ATOM     15  H   UNL     1       1.452   7.920  22.327  0.00  0.00    +0.000 HD
ENDROOT
BRANCH  14  16
ATOM     16  C   UNL     1      -1.419  12.257  22.821  0.00  0.00    +0.000 A 
ATOM     17  C   UNL     1      -2.688  11.902  23.287  0.00  0.00    +0.000 A 
ATOM     18  C   UNL     1      -3.506  12.878  23.819  0.00  0.00    +0.000 A 
ATOM     19  C   UNL     1      -3.020  14.168  23.994  0.00  0.00    +0.000 A 
ATOM     20  C   UNL     1      -3.890  15.222  24.254  0.00  0.00    +0.000 A 
ATOM     21  C   UNL     1      -3.503  16.239  25.093  0.00  0.00    +0.000 A 
ATOM     22  C   UNL     1      -2.149  16.377  25.353  0.00  0.00    +0.000 A 
ATOM     23  C   UNL     1      -1.218  15.565  24.672  0.00  0.00    +0.000 A 
ATOM     24  C   UNL     1      -1.646  14.413  23.963  0.00  0.00    +0.000 A 
ATOM     25  C   UNL     1      -0.855  13.477  23.243  0.00  0.00    +0.000 A 
ENDBRANCH  14  16
BRANCH   1  26
ATOM     26  S   UNL     1      -1.576  13.196  19.955  0.00  0.00    +0.000 S 
BRANCH  26  27
ATOM     27  C   UNL     1      -0.397  13.896  18.785  0.00  0.00    +0.000 C 
BRANCH  27  29
ATOM     28  O   UNL     1       0.843  15.954  18.579  0.00  0.00    +0.000 OA
ATOM     29  C   UNL     1      -0.174  15.384  18.995  0.00  0.00    +0.000 C 
ATOM     30  N   UNL     1      -1.213  16.051  19.608  0.00  0.00    +0.000 N 
ATOM     31  H   UNL     1      -2.092  15.535  19.622  0.00  0.00    +0.000 HD
BRANCH  30  32
ATOM     32  C   UNL     1      -1.333  17.509  19.646  0.00  0.00    +0.000 C 
ATOM     33  C   UNL     1      -2.671  17.941  19.015  0.00  0.00    +0.000 C 
ATOM     34  C   UNL     1      -3.882  17.744  19.930  0.00  0.00    +0.000 C 
ATOM     35  C   UNL     1      -3.666  18.353  21.311  0.00  0.00    +0.000 C 
ATOM     36  C   UNL     1      -2.388  17.818  21.946  0.00  0.00    +0.000 C 
ATOM     37  C   UNL     1      -1.186  18.111  21.053  0.00  0.00    +0.000 C 
ENDBRANCH  30  32
ENDBRANCH  27  29
ENDBRANCH  26  27
ENDBRANCH   1  26
TORSDOF 5
ENDMDL
MODEL 6
REMARK VINA RESULT:      -8.0      1.522      6.852
REMARK  Name = 
REMARK  5 active torsions:
REMARK  status: ('A' for Active; 'I' for Inactive)
REMARK    1  A    between atoms: C_2  and  C_3
REMARK    2  A    between atoms: C_3  and  S_4
REMARK    3  A    between atoms: S_4  and  C_5
REMARK    4  A    between atoms: N_18  and  C_19
REMARK    5  A    between atoms: N_29  and  C_30
REMARK                            x       y       z     vdW  Elec       q    Type
REMARK                         _______ _______ _______ _____ _____    ______ ____
ROOT
ATOM      1  C   UNL     1      -1.353  11.068  19.686  0.00  0.00    +0.000 A 
ATOM      2  N   UNL     1      -2.327  11.884  19.981  0.00  0.00    +0.000 NA
ATOM      3  C   UNL     1      -2.342  12.306  21.341  0.00  0.00    +0.000 A 
ATOM      4  C   UNL     1      -1.393  11.911  22.220  0.00  0.00    +0.000 A 
ATOM      5  N   UNL     1      -1.685  12.483  23.432  0.00  0.00    +0.000 N 
ATOM      6  C   UNL     1      -2.848  13.213  23.328  0.00  0.00    +0.000 A 
ATOM      7  C   UNL     1      -3.548  13.931  24.314  0.00  0.00    +0.000 A 
ATOM      8  C   UNL     1      -4.738  14.560  23.929  0.00  0.00    +0.000 A 
ATOM      9  C   UNL     1      -5.189  14.500  22.625  0.00  0.00    +0.000 A 
ATOM     10  C   UNL     1      -4.470  13.789  21.639  0.00  0.00    +0.000 A 
ATOM     11  C   UNL     1      -3.276  13.129  22.003  0.00  0.00    +0.000 A 
ATOM     12  C   UNL     1      -0.327  11.033  21.898  0.00  0.00    +0.000 A 
ATOM     13  O   UNL     1       0.505  10.690  22.763  0.00  0.00    +0.000 OA
ATOM     14  N   UNL     1      -0.328  10.628  20.544  0.00  0.00    +0.000 N 
ATOM     15  H   UNL     1      -1.137  12.372  24.277  0.00  0.00    +0.000 HD
ENDROOT
BRANCH  14  16
ATOM     16  C   UNL     1       0.664   9.674  20.182  0.00  0.00    +0.000 A 
ATOM     17  C   UNL     1       1.499   9.999  19.109  0.00  0.00    +0.000 A 
ATOM     18  C   UNL     1       2.110   8.984  18.400  0.00  0.00    +0.000 A 
ATOM     19  C   UNL     1       1.983   7.669  18.828  0.00  0.00    +0.000 A 
ATOM     20  C   UNL     1       2.338   6.615  17.992  0.00  0.00    +0.000 A 
ATOM     21  C   UNL     1       2.907   5.481  18.521  0.00  0.00    +0.000 A 
ATOM     22  C   UNL     1       2.769   5.269  19.883  0.00  0.00    +0.000 A 
ATOM     23  C   UNL     1       1.965   6.138  20.650  0.00  0.00    +0.000 A 
ATOM     24  C   UNL     1       1.549   7.389  20.125  0.00  0.00    +0.000 A 
ATOM     25  C   UNL     1       0.762   8.391  20.756  0.00  0.00    +0.000 A 
ENDBRANCH  14  16
BRANCH   1  26
ATOM     26  S   UNL     1      -1.352  10.403  18.055  0.00  0.00    +0.000 S 
BRANCH  26  27
ATOM     27  C   UNL     1      -2.184  11.680  17.094  0.00  0.00    +0.000 C 
BRANCH  27  29
ATOM     28  O   UNL     1      -3.846  10.397  15.907  0.00  0.00    +0.000 OA
ATOM     29  C   UNL     1      -3.606  11.301  16.719  0.00  0.00    +0.000 C 
ATOM     30  N   UNL     1      -4.593  11.980  17.401  0.00  0.00    +0.000 N 
ATOM     31  H   UNL     1      -4.267  12.464  18.237  0.00  0.00    +0.000 HD
BRANCH  30  32
ATOM     32  C   UNL     1      -6.000  11.578  17.410  0.00  0.00    +0.000 C 
ATOM     33  C   UNL     1      -6.270  10.641  18.603  0.00  0.00    +0.000 C 
ATOM     34  C   UNL     1      -6.393  11.367  19.946  0.00  0.00    +0.000 C 
ATOM     35  C   UNL     1      -7.376  12.530  19.885  0.00  0.00    +0.000 C 
ATOM     36  C   UNL     1      -7.011  13.489  18.759  0.00  0.00    +0.000 C 
ATOM     37  C   UNL     1      -6.987  12.757  17.421  0.00  0.00    +0.000 C 
ENDBRANCH  30  32
ENDBRANCH  27  29
ENDBRANCH  26  27
ENDBRANCH   1  26
TORSDOF 5
ENDMDL
MODEL 7
REMARK VINA RESULT:      -8.0      2.808      4.191
REMARK  Name = 
REMARK  5 active torsions:
REMARK  status: ('A' for Active; 'I' for Inactive)
REMARK    1  A    between atoms: C_2  and  C_3
REMARK    2  A    between atoms: C_3  and  S_4
REMARK    3  A    between atoms: S_4  and  C_5
REMARK    4  A    between atoms: N_18  and  C_19
REMARK    5  A    between atoms: N_29  and  C_30
REMARK                            x       y       z     vdW  Elec       q    Type
REMARK                         _______ _______ _______ _____ _____    ______ ____
ROOT
ATOM      1  C   UNL     1       0.291  11.439  19.142  0.00  0.00    +0.000 A 
ATOM      2  N   UNL     1       1.034  10.580  18.501  0.00  0.00    +0.000 NA
ATOM      3  C   UNL     1       1.291   9.379  19.222  0.00  0.00    +0.000 A 
ATOM      4  C   UNL     1       0.764   9.159  20.449  0.00  0.00    +0.000 A 
ATOM      5  N   UNL     1       1.194   7.927  20.870  0.00  0.00    +0.000 N 
ATOM      6  C   UNL     1       2.029   7.380  19.921  0.00  0.00    +0.000 A 
ATOM      7  C   UNL     1       2.731   6.163  19.937  0.00  0.00    +0.000 A 
ATOM      8  C   UNL     1       3.545   5.874  18.836  0.00  0.00    +0.000 A 
ATOM      9  C   UNL     1       3.629   6.739  17.763  0.00  0.00    +0.000 A 
ATOM     10  C   UNL     1       2.906   7.953  17.749  0.00  0.00    +0.000 A 
ATOM     11  C   UNL     1       2.093   8.279  18.856  0.00  0.00    +0.000 A 
ATOM     12  C   UNL     1      -0.053  10.088  21.141  0.00  0.00    +0.000 A 
ATOM     13  O   UNL     1      -0.490   9.832  22.282  0.00  0.00    +0.000 OA
ATOM     14  N   UNL     1      -0.298  11.271  20.408  0.00  0.00    +0.000 N 
ATOM     15  H   UNL     1       0.946   7.492  21.751  0.00  0.00    +0.000 HD
ENDROOT
BRANCH  14  16
ATOM     16  C   UNL     1      -1.037  12.280  21.088  0.00  0.00    +0.000 A 
ATOM     17  C   UNL     1      -0.357  13.025  22.056  0.00  0.00    +0.000 A 
ATOM     18  C   UNL     1      -1.077  13.632  23.065  0.00  0.00    +0.000 A 
ATOM     19  C   UNL     1      -2.465  13.596  23.042  0.00  0.00    +0.000 A 
ATOM     20  C   UNL     1      -3.201  13.943  24.171  0.00  0.00    +0.000 A 
ATOM     21  C   UNL     1      -4.401  14.597  24.034  0.00  0.00    +0.000 A 
ATOM     22  C   UNL     1      -5.013  14.562  22.791  0.00  0.00    +0.000 A 
ATOM     23  C   UNL     1      -4.462  13.772  21.761  0.00  0.00    +0.000 A 
ATOM     24  C   UNL     1      -3.142  13.264  21.867  0.00  0.00    +0.000 A 
ATOM     25  C   UNL     1      -2.423  12.476  20.928  0.00  0.00    +0.000 A 
ENDBRANCH  14  16
BRANCH   1  26
ATOM     26  S   UNL     1       0.044  12.999  18.362  0.00  0.00    +0.000 S 
BRANCH  26  27
ATOM     27  C   UNL     1       1.645  13.807  18.550  0.00  0.00    +0.000 C 
BRANCH  27  29
ATOM     28  O   UNL     1       2.382  16.103  18.557  0.00  0.00    +0.000 OA
ATOM     29  C   UNL     1       1.522  15.280  18.898  0.00  0.00    +0.000 C 
ATOM     30  N   UNL     1       0.358  15.634  19.547  0.00  0.00    +0.000 N 
ATOM     31  H   UNL     1      -0.380  14.933  19.495  0.00  0.00    +0.000 HD
BRANCH  30  32
ATOM     32  C   UNL     1      -0.092  17.016  19.715  0.00  0.00    +0.000 C 
ATOM     33  C   UNL     1      -1.604  17.112  19.439  0.00  0.00    +0.000 C 
ATOM     34  C   UNL     1      -2.479  16.610  20.591  0.00  0.00    +0.000 C 
ATOM     35  C   UNL     1      -2.090  17.237  21.925  0.00  0.00    +0.000 C 
ATOM     36  C   UNL     1      -0.608  17.027  22.211  0.00  0.00    +0.000 C 
ATOM     37  C   UNL     1       0.241  17.619  21.090  0.00  0.00    +0.000 C 
ENDBRANCH  30  32
ENDBRANCH  27  29
ENDBRANCH  26  27
ENDBRANCH   1  26
TORSDOF 5
ENDMDL
MODEL 8
REMARK VINA RESULT:      -7.9      1.571      6.840
REMARK  Name = 
REMARK  5 active torsions:
REMARK  status: ('A' for Active; 'I' for Inactive)
REMARK    1  A    between atoms: C_2  and  C_3
REMARK    2  A    between atoms: C_3  and  S_4
REMARK    3  A    between atoms: S_4  and  C_5
REMARK    4  A    between atoms: N_18  and  C_19
REMARK    5  A    between atoms: N_29  and  C_30
REMARK                            x       y       z     vdW  Elec       q    Type
REMARK                         _______ _______ _______ _____ _____    ______ ____
ROOT
ATOM      1  C   UNL     1      -1.578  12.111  19.573  0.00  0.00    +0.000 A 
ATOM      2  N   UNL     1      -2.583  12.878  19.895  0.00  0.00    +0.000 NA
ATOM      3  C   UNL     1      -2.677  13.160  21.288  0.00  0.00    +0.000 A 
ATOM      4  C   UNL     1      -1.766  12.693  22.173  0.00  0.00    +0.000 A 
ATOM      5  N   UNL     1      -2.133  13.135  23.418  0.00  0.00    +0.000 N 
ATOM      6  C   UNL     1      -3.304  13.854  23.326  0.00  0.00    +0.000 A 
ATOM      7  C   UNL     1      -4.068  14.458  24.340  0.00  0.00    +0.000 A 
ATOM      8  C   UNL     1      -5.250  15.104  23.957  0.00  0.00    +0.000 A 
ATOM      9  C   UNL     1      -5.631  15.170  22.632  0.00  0.00    +0.000 A 
ATOM     10  C   UNL     1      -4.847  14.573  21.619  0.00  0.00    +0.000 A 
ATOM     11  C   UNL     1      -3.660  13.898  21.978  0.00  0.00    +0.000 A 
ATOM     12  C   UNL     1      -0.668  11.869  21.822  0.00  0.00    +0.000 A 
ATOM     13  O   UNL     1       0.125  11.453  22.691  0.00  0.00    +0.000 OA
ATOM     14  N   UNL     1      -0.590  11.602  20.436  0.00  0.00    +0.000 N 
ATOM     15  H   UNL     1      -1.627  12.948  24.276  0.00  0.00    +0.000 HD
ENDROOT
BRANCH  14  16
ATOM     16  C   UNL     1       0.439  10.706  20.033  0.00  0.00    +0.000 A 
ATOM     17  C   UNL     1       1.288  11.129  19.007  0.00  0.00    +0.000 A 
ATOM     18  C   UNL     1       1.946  10.184  18.245  0.00  0.00    +0.000 A 
ATOM     19  C   UNL     1       1.850   8.839  18.578  0.00  0.00    +0.000 A 
ATOM     20  C   UNL     1       2.256   7.857  17.680  0.00  0.00    +0.000 A 
ATOM     21  C   UNL     1       2.846   6.706  18.142  0.00  0.00    +0.000 A 
ATOM     22  C   UNL     1       2.683   6.395  19.483  0.00  0.00    +0.000 A 
ATOM     23  C   UNL     1       1.836   7.185  20.287  0.00  0.00    +0.000 A 
ATOM     24  C   UNL     1       1.394   8.456  19.841  0.00  0.00    +0.000 A 
ATOM     25  C   UNL     1       0.563   9.389  20.519  0.00  0.00    +0.000 A 
ENDBRANCH  14  16
BRANCH   1  26
ATOM     26  S   UNL     1      -1.479  11.614  17.886  0.00  0.00    +0.000 S 
BRANCH  26  27
ATOM     27  C   UNL     1      -2.614  10.216  17.806  0.00  0.00    +0.000 C 
BRANCH  27  29
ATOM     28  O   UNL     1      -4.283  10.525  16.092  0.00  0.00    +0.000 OA
ATOM     29  C   UNL     1      -3.990  10.605  17.292  0.00  0.00    +0.000 C 
ATOM     30  N   UNL     1      -4.895  10.976  18.263  0.00  0.00    +0.000 N 
ATOM     31  H   UNL     1      -4.625  10.712  19.210  0.00  0.00    +0.000 HD
BRANCH  30  32
ATOM     32  C   UNL     1      -6.333  11.107  18.028  0.00  0.00    +0.000 C 
ATOM     33  C   UNL     1      -7.109  10.735  19.306  0.00  0.00    +0.000 C 
ATOM     34  C   UNL     1      -7.110  11.833  20.373  0.00  0.00    +0.000 C 
ATOM     35  C   UNL     1      -7.530  13.186  19.809  0.00  0.00    +0.000 C 
ATOM     36  C   UNL     1      -6.668  13.565  18.611  0.00  0.00    +0.000 C 
ATOM     37  C   UNL     1      -6.761  12.496  17.527  0.00  0.00    +0.000 C 
ENDBRANCH  30  32
ENDBRANCH  27  29
ENDBRANCH  26  27
ENDBRANCH   1  26
TORSDOF 5
ENDMDL
MODEL 9
REMARK VINA RESULT:      -7.9      1.576      1.849
REMARK  Name = 
REMARK  5 active torsions:
REMARK  status: ('A' for Active; 'I' for Inactive)
REMARK    1  A    between atoms: C_2  and  C_3
REMARK    2  A    between atoms: C_3  and  S_4
REMARK    3  A    between atoms: S_4  and  C_5
REMARK    4  A    between atoms: N_18  and  C_19
REMARK    5  A    between atoms: N_29  and  C_30
REMARK                            x       y       z     vdW  Elec       q    Type
REMARK                         _______ _______ _______ _____ _____    ______ ____
ROOT
ATOM      1  C   UNL     1      -1.055  11.576  20.543  0.00  0.00    +0.000 A 
ATOM      2  N   UNL     1      -0.491  10.862  19.609  0.00  0.00    +0.000 NA
ATOM      3  C   UNL     1       0.320   9.799  20.099  0.00  0.00    +0.000 A 
ATOM      4  C   UNL     1       0.446   9.550  21.423  0.00  0.00    +0.000 A 
ATOM      5  N   UNL     1       1.284   8.475  21.565  0.00  0.00    +0.000 N 
ATOM      6  C   UNL     1       1.723   8.064  20.326  0.00  0.00    +0.000 A 
ATOM      7  C   UNL     1       2.620   7.037  19.986  0.00  0.00    +0.000 A 
ATOM      8  C   UNL     1       2.916   6.862  18.629  0.00  0.00    +0.000 A 
ATOM      9  C   UNL     1       2.324   7.650  17.662  0.00  0.00    +0.000 A 
ATOM     10  C   UNL     1       1.412   8.670  18.013  0.00  0.00    +0.000 A 
ATOM     11  C   UNL     1       1.110   8.882  19.376  0.00  0.00    +0.000 A 
ATOM     12  C   UNL     1      -0.176  10.319  22.438  0.00  0.00    +0.000 A 
ATOM     13  O   UNL     1      -0.002  10.050  23.644  0.00  0.00    +0.000 OA
ATOM     14  N   UNL     1      -0.979  11.367  21.932  0.00  0.00    +0.000 N 
ATOM     15  H   UNL     1       1.551   8.056  22.449  0.00  0.00    +0.000 HD
ENDROOT
BRANCH  14  16
ATOM     16  C   UNL     1      -1.556  12.231  22.905  0.00  0.00    +0.000 A 
ATOM     17  C   UNL     1      -2.808  11.872  23.412  0.00  0.00    +0.000 A 
ATOM     18  C   UNL     1      -3.627  12.851  23.939  0.00  0.00    +0.000 A 
ATOM     19  C   UNL     1      -3.155  14.152  24.066  0.00  0.00    +0.000 A 
ATOM     20  C   UNL     1      -4.032  15.201  24.319  0.00  0.00    +0.000 A 
ATOM     21  C   UNL     1      -3.639  16.246  25.120  0.00  0.00    +0.000 A 
ATOM     22  C   UNL     1      -2.280  16.409  25.342  0.00  0.00    +0.000 A 
ATOM     23  C   UNL     1      -1.356  15.591  24.659  0.00  0.00    +0.000 A 
ATOM     24  C   UNL     1      -1.785  14.415  23.994  0.00  0.00    +0.000 A 
ATOM     25  C   UNL     1      -1.000  13.470  23.279  0.00  0.00    +0.000 A 
ENDBRANCH  14  16
BRANCH   1  26
ATOM     26  S   UNL     1      -1.966  12.987  20.010  0.00  0.00    +0.000 S 
BRANCH  26  27
ATOM     27  C   UNL     1      -3.451  12.265  19.288  0.00  0.00    +0.000 C 
BRANCH  27  29
ATOM     28  O   UNL     1      -5.211  12.239  20.936  0.00  0.00    +0.000 OA
ATOM     29  C   UNL     1      -4.727  12.778  19.933  0.00  0.00    +0.000 C 
ATOM     30  N   UNL     1      -5.252  13.920  19.366  0.00  0.00    +0.000 N 
ATOM     31  H   UNL     1      -4.605  14.421  18.757  0.00  0.00    +0.000 HD
BRANCH  30  32
ATOM     32  C   UNL     1      -6.291  14.736  19.994  0.00  0.00    +0.000 C 
ATOM     33  C   UNL     1      -5.658  15.688  21.027  0.00  0.00    +0.000 C 
ATOM     34  C   UNL     1      -4.972  16.909  20.407  0.00  0.00    +0.000 C 
ATOM     35  C   UNL     1      -5.875  17.638  19.419  0.00  0.00    +0.000 C 
ATOM     36  C   UNL     1      -6.396  16.683  18.352  0.00  0.00    +0.000 C 
ATOM     37  C   UNL     1      -7.154  15.526  18.996  0.00  0.00    +0.000 C 
ENDBRANCH  30  32
ENDBRANCH  27  29
ENDBRANCH  26  27
ENDBRANCH   1  26
TORSDOF 5
ENDMDL
