MODEL 1
REMARK VINA RESULT:      -8.3      0.000      0.000
REMARK  Name = 
REMARK  3 active torsions:
REMARK  status: ('A' for Active; 'I' for Inactive)
REMARK    1  A    between atoms: C_10  and  C_11
REMARK    2  A    between atoms: C_11  and  C_12
REMARK    3  A    between atoms: N_20  and  C_21
REMARK                            x       y       z     vdW  Elec       q    Type
REMARK                         _______ _______ _______ _____ _____    ______ ____
ROOT
ATOM      1  O   UNL     1       8.181   7.219  18.600  0.00  0.00    +0.000 OA
ATOM      2  C   UNL     1       7.184   6.558  18.337  0.00  0.00    +0.000 C 
ATOM      3  C   UNL     1       6.607   5.612  19.317  0.00  0.00    +0.000 C 
ATOM      4  C   UNL     1       5.545   4.854  18.999  0.00  0.00    +0.000 C 
ATOM      5  C   UNL     1       4.826   4.902  17.672  0.00  0.00    +0.000 C 
ATOM      6  C   UNL     1       5.446   5.916  16.732  0.00  0.00    +0.000 C 
ATOM      7  C   UNL     1       6.513   6.676  17.026  0.00  0.00    +0.000 C 
ATOM      8  O   UNL     1       5.043   3.616  17.104  0.00  0.00    +0.000 OA
ATOM      9  C   UNL     1       4.111   3.267  16.096  0.00  0.00    +0.000 C 
ATOM     10  C   UNL     1       2.763   3.055  16.745  0.00  0.00    +0.000 C 
ATOM     11  C   UNL     1       2.371   4.385  17.394  0.00  0.00    +0.000 C 
ATOM     12  O   UNL     1       1.171   4.677  17.478  0.00  0.00    +0.000 OA
ATOM     13  N   UNL     1       3.395   5.183  17.911  0.00  0.00    +0.000 N 
ENDROOT
BRANCH  13  14
ATOM     14  C   UNL     1       3.084   6.513  18.365  0.00  0.00    +0.000 A 
ATOM     15  C   UNL     1       3.013   7.562  17.440  0.00  0.00    +0.000 A 
ATOM     16  C   UNL     1       2.358   8.753  17.765  0.00  0.00    +0.000 A 
ATOM     17  C   UNL     1       1.773   8.907  19.020  0.00  0.00    +0.000 A 
ATOM     18  C   UNL     1       1.906   7.897  19.974  0.00  0.00    +0.000 A 
ATOM     19  C   UNL     1       2.583   6.713  19.658  0.00  0.00    +0.000 A 
ENDBRANCH  13  14
BRANCH  10  20
ATOM     20  C   UNL     1       2.743   1.876  17.747  0.00  0.00    +0.000 C 
BRANCH  20  21
ATOM     21  C   UNL     1       2.486   2.200  19.218  0.00  0.00    +0.000 A 
ATOM     22  C   UNL     1       1.168   2.456  19.640  0.00  0.00    +0.000 A 
ATOM     23  C   UNL     1       0.883   2.820  20.961  0.00  0.00    +0.000 A 
ATOM     24  C   UNL     1       1.909   2.919  21.895  0.00  0.00    +0.000 A 
ATOM     25  C   UNL     1       3.211   2.601  21.514  0.00  0.00    +0.000 A 
ATOM     26  C   UNL     1       3.494   2.225  20.194  0.00  0.00    +0.000 A 
ENDBRANCH  20  21
ENDBRANCH  10  20
TORSDOF 3
ENDMDL
MODEL 2
REMARK VINA RESULT:      -7.6      7.122     11.033
REMARK  Name = 
REMARK  3 active torsions:
REMARK  status: ('A' for Active; 'I' for Inactive)
REMARK    1  A    between atoms: C_10  and  C_11
REMARK    2  A    between atoms: C_11  and  C_12
REMARK    3  A    between atoms: N_20  and  C_21
REMARK                            x       y       z     vdW  Elec       q    Type
REMARK                         _______ _______ _______ _____ _____    ______ ____
ROOT
ATOM      1  O   UNL     1      -3.446   9.491  17.558  0.00  0.00    +0.000 OA
ATOM      2  C   UNL     1      -2.618  10.287  17.983  0.00  0.00    +0.000 C 
ATOM      3  C   UNL     1      -3.026  11.505  18.715  0.00  0.00    +0.000 C 
ATOM      4  C   UNL     1      -2.113  12.398  19.130  0.00  0.00    +0.000 C 
ATOM      5  C   UNL     1      -0.623  12.251  18.935  0.00  0.00    +0.000 C 
ATOM      6  C   UNL     1      -0.273  10.966  18.211  0.00  0.00    +0.000 C 
ATOM      7  C   UNL     1      -1.170  10.067  17.780  0.00  0.00    +0.000 C 
ATOM      8  O   UNL     1      -0.270  13.327  18.073  0.00  0.00    +0.000 OA
ATOM      9  C   UNL     1       1.105  13.668  18.110  0.00  0.00    +0.000 C 
ATOM     10  C   UNL     1       1.407  14.285  19.456  0.00  0.00    +0.000 C 
ATOM     11  C   UNL     1       1.095  13.221  20.511  0.00  0.00    +0.000 C 
ATOM     12  O   UNL     1       1.746  13.215  21.564  0.00  0.00    +0.000 OA
ATOM     13  N   UNL     1       0.045  12.336  20.251  0.00  0.00    +0.000 N 
ENDROOT
BRANCH  13  14
ATOM     14  C   UNL     1      -0.161  11.217  21.132  0.00  0.00    +0.000 A 
ATOM     15  C   UNL     1       0.744  10.148  21.119  0.00  0.00    +0.000 A 
ATOM     16  C   UNL     1       0.801   9.252  22.189  0.00  0.00    +0.000 A 
ATOM     17  C   UNL     1      -0.052   9.413  23.279  0.00  0.00    +0.000 A 
ATOM     18  C   UNL     1      -1.010  10.427  23.264  0.00  0.00    +0.000 A 
ATOM     19  C   UNL     1      -1.084  11.312  22.182  0.00  0.00    +0.000 A 
ENDBRANCH  13  14
BRANCH  10  20
ATOM     20  C   UNL     1       0.650  15.611  19.706  0.00  0.00    +0.000 C 
BRANCH  20  21
ATOM     21  C   UNL     1       0.657  16.654  18.588  0.00  0.00    +0.000 A 
ATOM     22  C   UNL     1      -0.560  17.242  18.196  0.00  0.00    +0.000 A 
ATOM     23  C   UNL     1      -0.620  18.154  17.136  0.00  0.00    +0.000 A 
ATOM     24  C   UNL     1       0.539  18.512  16.456  0.00  0.00    +0.000 A 
ATOM     25  C   UNL     1       1.763  17.995  16.875  0.00  0.00    +0.000 A 
ATOM     26  C   UNL     1       1.825  17.091  17.944  0.00  0.00    +0.000 A 
ENDBRANCH  20  21
ENDBRANCH  10  20
TORSDOF 3
ENDMDL
MODEL 3
REMARK VINA RESULT:      -7.2      2.468      5.762
REMARK  Name = 
REMARK  3 active torsions:
REMARK  status: ('A' for Active; 'I' for Inactive)
REMARK    1  A    between atoms: C_10  and  C_11
REMARK    2  A    between atoms: C_11  and  C_12
REMARK    3  A    between atoms: N_20  and  C_21
REMARK                            x       y       z     vdW  Elec       q    Type
REMARK                         _______ _______ _______ _____ _____    ______ ____
ROOT
ATOM      1  O   UNL     1       0.604   2.878  21.417  0.00  0.00    +0.000 OA
ATOM      2  C   UNL     1       1.389   3.288  20.572  0.00  0.00    +0.000 C 
ATOM      3  C   UNL     1       1.107   3.151  19.127  0.00  0.00    +0.000 C 
ATOM      4  C   UNL     1       1.999   3.556  18.209  0.00  0.00    +0.000 C 
ATOM      5  C   UNL     1       3.325   4.202  18.532  0.00  0.00    +0.000 C 
ATOM      6  C   UNL     1       3.533   4.345  20.026  0.00  0.00    +0.000 C 
ATOM      7  C   UNL     1       2.659   3.938  20.960  0.00  0.00    +0.000 C 
ATOM      8  O   UNL     1       4.297   3.276  18.060  0.00  0.00    +0.000 OA
ATOM      9  C   UNL     1       5.575   3.845  17.838  0.00  0.00    +0.000 C 
ATOM     10  C   UNL     1       5.484   4.774  16.650  0.00  0.00    +0.000 C 
ATOM     11  C   UNL     1       4.474   5.865  17.018  0.00  0.00    +0.000 C 
ATOM     12  O   UNL     1       4.616   6.997  16.538  0.00  0.00    +0.000 OA
ATOM     13  N   UNL     1       3.403   5.507  17.843  0.00  0.00    +0.000 N 
ENDROOT
BRANCH  13  14
ATOM     14  C   UNL     1       2.539   6.539  18.352  0.00  0.00    +0.000 A 
ATOM     15  C   UNL     1       2.422   6.725  19.735  0.00  0.00    +0.000 A 
ATOM     16  C   UNL     1       1.914   7.921  20.251  0.00  0.00    +0.000 A 
ATOM     17  C   UNL     1       1.513   8.938  19.387  0.00  0.00    +0.000 A 
ATOM     18  C   UNL     1       1.553   8.730  18.008  0.00  0.00    +0.000 A 
ATOM     19  C   UNL     1       2.039   7.524  17.490  0.00  0.00    +0.000 A 
ENDBRANCH  13  14
BRANCH  10  20
ATOM     20  C   UNL     1       5.124   4.051  15.331  0.00  0.00    +0.000 C 
BRANCH  20  21
ATOM     21  C   UNL     1       6.056   4.251  14.136  0.00  0.00    +0.000 A 
ATOM     22  C   UNL     1       7.108   5.179  14.239  0.00  0.00    +0.000 A 
ATOM     23  C   UNL     1       7.952   5.448  13.155  0.00  0.00    +0.000 A 
ATOM     24  C   UNL     1       7.773   4.780  11.948  0.00  0.00    +0.000 A 
ATOM     25  C   UNL     1       6.782   3.807  11.848  0.00  0.00    +0.000 A 
ATOM     26  C   UNL     1       5.945   3.529  12.937  0.00  0.00    +0.000 A 
ENDBRANCH  20  21
ENDBRANCH  10  20
TORSDOF 3
ENDMDL
MODEL 4
REMARK VINA RESULT:      -7.2      6.997     11.020
REMARK  Name = 
REMARK  3 active torsions:
REMARK  status: ('A' for Active; 'I' for Inactive)
REMARK    1  A    between atoms: C_10  and  C_11
REMARK    2  A    between atoms: C_11  and  C_12
REMARK    3  A    between atoms: N_20  and  C_21
REMARK                            x       y       z     vdW  Elec       q    Type
REMARK                         _______ _______ _______ _____ _____    ______ ____
ROOT
ATOM      1  O   UNL     1      -2.948   9.559  17.942  0.00  0.00    +0.000 OA
ATOM      2  C   UNL     1      -2.129  10.387  18.317  0.00  0.00    +0.000 C 
ATOM      3  C   UNL     1      -2.548  11.629  19.003  0.00  0.00    +0.000 C 
ATOM      4  C   UNL     1      -1.645  12.556  19.362  0.00  0.00    +0.000 C 
ATOM      5  C   UNL     1      -0.156  12.428  19.149  0.00  0.00    +0.000 C 
ATOM      6  C   UNL     1       0.206  11.119  18.476  0.00  0.00    +0.000 C 
ATOM      7  C   UNL     1      -0.681  10.184  18.100  0.00  0.00    +0.000 C 
ATOM      8  O   UNL     1       0.163  13.471  18.235  0.00  0.00    +0.000 OA
ATOM      9  C   UNL     1       1.531  13.838  18.234  0.00  0.00    +0.000 C 
ATOM     10  C   UNL     1       1.843  14.519  19.546  0.00  0.00    +0.000 C 
ATOM     11  C   UNL     1       1.568  13.497  20.652  0.00  0.00    +0.000 C 
ATOM     12  O   UNL     1       2.236  13.549  21.693  0.00  0.00    +0.000 OA
ATOM     13  N   UNL     1       0.531  12.582  20.448  0.00  0.00    +0.000 N 
ENDROOT
BRANCH  13  14
ATOM     14  C   UNL     1       0.360  11.499  21.380  0.00  0.00    +0.000 A 
ATOM     15  C   UNL     1      -0.608  11.597  22.387  0.00  0.00    +0.000 A 
ATOM     16  C   UNL     1      -1.061  10.455  23.053  0.00  0.00    +0.000 A 
ATOM     17  C   UNL     1      -0.543   9.205  22.721  0.00  0.00    +0.000 A 
ATOM     18  C   UNL     1       0.477   9.107  21.774  0.00  0.00    +0.000 A 
ATOM     19  C   UNL     1       0.948  10.253  21.124  0.00  0.00    +0.000 A 
ENDBRANCH  13  14
BRANCH  10  20
ATOM     20  C   UNL     1       1.066  15.841  19.751  0.00  0.00    +0.000 C 
BRANCH  20  21
ATOM     21  C   UNL     1       0.934  16.779  18.551  0.00  0.00    +0.000 A 
ATOM     22  C   UNL     1      -0.338  17.274  18.209  0.00  0.00    +0.000 A 
ATOM     23  C   UNL     1      -0.526  18.085  17.083  0.00  0.00    +0.000 A 
ATOM     24  C   UNL     1       0.558  18.433  16.285  0.00  0.00    +0.000 A 
ATOM     25  C   UNL     1       1.835  18.011  16.646  0.00  0.00    +0.000 A 
ATOM     26  C   UNL     1       2.024  17.210  17.780  0.00  0.00    +0.000 A 
ENDBRANCH  20  21
ENDBRANCH  10  20
TORSDOF 3
ENDMDL
MODEL 5
REMARK VINA RESULT:      -7.0      2.169      5.720
REMARK  Name = 
REMARK  3 active torsions:
REMARK  status: ('A' for Active; 'I' for Inactive)
REMARK    1  A    between atoms: C_10  and  C_11
REMARK    2  A    between atoms: C_11  and  C_12
REMARK    3  A    between atoms: N_20  and  C_21
REMARK                            x       y       z     vdW  Elec       q    Type
REMARK                         _______ _______ _______ _____ _____    ______ ____
ROOT
ATOM      1  O   UNL     1       4.108   0.589  18.460  0.00  0.00    +0.000 OA
ATOM      2  C   UNL     1       3.838   1.783  18.484  0.00  0.00    +0.000 C 
ATOM      3  C   UNL     1       4.237   2.640  19.623  0.00  0.00    +0.000 C 
ATOM      4  C   UNL     1       3.890   3.936  19.664  0.00  0.00    +0.000 C 
ATOM      5  C   UNL     1       3.113   4.649  18.583  0.00  0.00    +0.000 C 
ATOM      6  C   UNL     1       2.769   3.724  17.433  0.00  0.00    +0.000 C 
ATOM      7  C   UNL     1       3.097   2.424  17.377  0.00  0.00    +0.000 C 
ATOM      8  O   UNL     1       1.889   5.015  19.208  0.00  0.00    +0.000 OA
ATOM      9  C   UNL     1       1.200   6.066  18.554  0.00  0.00    +0.000 C 
ATOM     10  C   UNL     1       1.990   7.341  18.736  0.00  0.00    +0.000 C 
ATOM     11  C   UNL     1       3.355   7.112  18.081  0.00  0.00    +0.000 C 
ATOM     12  O   UNL     1       3.949   8.078  17.584  0.00  0.00    +0.000 OA
ATOM     13  N   UNL     1       3.890   5.821  18.127  0.00  0.00    +0.000 N 
ENDROOT
BRANCH  13  14
ATOM     14  C   UNL     1       5.080   5.530  17.371  0.00  0.00    +0.000 A 
ATOM     15  C   UNL     1       6.276   5.249  18.043  0.00  0.00    +0.000 A 
ATOM     16  C   UNL     1       7.327   4.604  17.385  0.00  0.00    +0.000 A 
ATOM     17  C   UNL     1       7.191   4.239  16.047  0.00  0.00    +0.000 A 
ATOM     18  C   UNL     1       6.033   4.584  15.349  0.00  0.00    +0.000 A 
ATOM     19  C   UNL     1       4.990   5.252  16.001  0.00  0.00    +0.000 A 
ENDBRANCH  13  14
BRANCH  10  20
ATOM     20  C   UNL     1       2.107   7.784  20.214  0.00  0.00    +0.000 C 
BRANCH  20  21
ATOM     21  C   UNL     1       1.136   8.856  20.710  0.00  0.00    +0.000 A 
ATOM     22  C   UNL     1       0.888   8.965  22.091  0.00  0.00    +0.000 A 
ATOM     23  C   UNL     1      -0.039   9.885  22.595  0.00  0.00    +0.000 A 
ATOM     24  C   UNL     1      -0.724  10.731  21.729  0.00  0.00    +0.000 A 
ATOM     25  C   UNL     1      -0.441  10.688  20.366  0.00  0.00    +0.000 A 
ATOM     26  C   UNL     1       0.496   9.774  19.864  0.00  0.00    +0.000 A 
ENDBRANCH  20  21
ENDBRANCH  10  20
TORSDOF 3
ENDMDL
MODEL 6
REMARK VINA RESULT:      -7.0      2.039      5.625
REMARK  Name = 
REMARK  3 active torsions:
REMARK  status: ('A' for Active; 'I' for Inactive)
REMARK    1  A    between atoms: C_10  and  C_11
REMARK    2  A    between atoms: C_11  and  C_12
REMARK    3  A    between atoms: N_20  and  C_21
REMARK                            x       y       z     vdW  Elec       q    Type
REMARK                         _______ _______ _______ _____ _____    ______ ____
ROOT
ATOM      1  O   UNL     1       4.093   0.206  18.954  0.00  0.00    +0.000 OA
ATOM      2  C   UNL     1       3.856   1.400  18.822  0.00  0.00    +0.000 C 
ATOM      3  C   UNL     1       4.321   2.391  19.817  0.00  0.00    +0.000 C 
ATOM      4  C   UNL     1       4.010   3.691  19.690  0.00  0.00    +0.000 C 
ATOM      5  C   UNL     1       3.212   4.273  18.547  0.00  0.00    +0.000 C 
ATOM      6  C   UNL     1       2.801   3.210  17.549  0.00  0.00    +0.000 C 
ATOM      7  C   UNL     1       3.092   1.904  17.662  0.00  0.00    +0.000 C 
ATOM      8  O   UNL     1       2.022   4.760  19.156  0.00  0.00    +0.000 OA
ATOM      9  C   UNL     1       1.337   5.732  18.387  0.00  0.00    +0.000 C 
ATOM     10  C   UNL     1       2.168   6.994  18.364  0.00  0.00    +0.000 C 
ATOM     11  C   UNL     1       3.500   6.635  17.702  0.00  0.00    +0.000 C 
ATOM     12  O   UNL     1       4.100   7.504  17.056  0.00  0.00    +0.000 OA
ATOM     13  N   UNL     1       4.002   5.346  17.908  0.00  0.00    +0.000 N 
ENDROOT
BRANCH  13  14
ATOM     14  C   UNL     1       5.154   4.916  17.161  0.00  0.00    +0.000 A 
ATOM     15  C   UNL     1       5.067   4.777  15.770  0.00  0.00    +0.000 A 
ATOM     16  C   UNL     1       6.222   4.738  14.984  0.00  0.00    +0.000 A 
ATOM     17  C   UNL     1       7.476   4.833  15.585  0.00  0.00    +0.000 A 
ATOM     18  C   UNL     1       7.575   4.894  16.975  0.00  0.00    +0.000 A 
ATOM     19  C   UNL     1       6.419   4.909  17.764  0.00  0.00    +0.000 A 
ENDBRANCH  13  14
BRANCH  10  20
ATOM     20  C   UNL     1       2.351   7.633  19.762  0.00  0.00    +0.000 C 
BRANCH  20  21
ATOM     21  C   UNL     1       1.304   8.648  20.220  0.00  0.00    +0.000 A 
ATOM     22  C   UNL     1       0.900   9.661  19.329  0.00  0.00    +0.000 A 
ATOM     23  C   UNL     1      -0.007  10.653  19.718  0.00  0.00    +0.000 A 
ATOM     24  C   UNL     1      -0.545  10.645  21.000  0.00  0.00    +0.000 A 
ATOM     25  C   UNL     1      -0.212   9.611  21.873  0.00  0.00    +0.000 A 
ATOM     26  C   UNL     1       0.687   8.611  21.479  0.00  0.00    +0.000 A 
ENDBRANCH  20  21
ENDBRANCH  10  20
TORSDOF 3
ENDMDL
MODEL 7
REMARK VINA RESULT:      -6.8      2.175      6.050
REMARK  Name = 
REMARK  3 active torsions:
REMARK  status: ('A' for Active; 'I' for Inactive)
REMARK    1  A    between atoms: C_10  and  C_11
REMARK    2  A    between atoms: C_11  and  C_12
REMARK    3  A    between atoms: N_20  and  C_21
REMARK                            x       y       z     vdW  Elec       q    Type
REMARK                         _______ _______ _______ _____ _____    ______ ____
ROOT
ATOM      1  O   UNL     1       4.183   1.566  17.219  0.00  0.00    +0.000 OA
ATOM      2  C   UNL     1       3.825   2.691  17.542  0.00  0.00    +0.000 C 
ATOM      3  C   UNL     1       2.566   3.275  17.029  0.00  0.00    +0.000 C 
ATOM      4  C   UNL     1       2.209   4.530  17.347  0.00  0.00    +0.000 C 
ATOM      5  C   UNL     1       3.001   5.441  18.254  0.00  0.00    +0.000 C 
ATOM      6  C   UNL     1       4.256   4.768  18.772  0.00  0.00    +0.000 C 
ATOM      7  C   UNL     1       4.636   3.519  18.458  0.00  0.00    +0.000 C 
ATOM      8  O   UNL     1       3.415   6.510  17.412  0.00  0.00    +0.000 OA
ATOM      9  C   UNL     1       3.772   7.689  18.110  0.00  0.00    +0.000 C 
ATOM     10  C   UNL     1       2.521   8.285  18.712  0.00  0.00    +0.000 C 
ATOM     11  C   UNL     1       1.957   7.243  19.681  0.00  0.00    +0.000 C 
ATOM     12  O   UNL     1       1.334   7.630  20.679  0.00  0.00    +0.000 OA
ATOM     13  N   UNL     1       2.130   5.893  19.359  0.00  0.00    +0.000 N 
ENDROOT
BRANCH  13  14
ATOM     14  C   UNL     1       1.774   4.892  20.328  0.00  0.00    +0.000 A 
ATOM     15  C   UNL     1       0.735   3.995  20.049  0.00  0.00    +0.000 A 
ATOM     16  C   UNL     1       0.613   2.802  20.767  0.00  0.00    +0.000 A 
ATOM     17  C   UNL     1       1.525   2.500  21.776  0.00  0.00    +0.000 A 
ATOM     18  C   UNL     1       2.516   3.423  22.113  0.00  0.00    +0.000 A 
ATOM     19  C   UNL     1       2.625   4.628  21.410  0.00  0.00    +0.000 A 
ENDBRANCH  13  14
BRANCH  10  20
ATOM     20  C   UNL     1       1.485   8.734  17.653  0.00  0.00    +0.000 C 
BRANCH  20  21
ATOM     21  C   UNL     1       0.429   9.753  18.082  0.00  0.00    +0.000 A 
ATOM     22  C   UNL     1       0.785  10.758  19.001  0.00  0.00    +0.000 A 
ATOM     23  C   UNL     1      -0.158  11.677  19.476  0.00  0.00    +0.000 A 
ATOM     24  C   UNL     1      -1.473  11.623  19.029  0.00  0.00    +0.000 A 
ATOM     25  C   UNL     1      -1.829  10.680  18.067  0.00  0.00    +0.000 A 
ATOM     26  C   UNL     1      -0.882   9.768  17.582  0.00  0.00    +0.000 A 
ENDBRANCH  20  21
ENDBRANCH  10  20
TORSDOF 3
ENDMDL
MODEL 8
REMARK VINA RESULT:      -6.8      2.821      5.800
REMARK  Name = 
REMARK  3 active torsions:
REMARK  status: ('A' for Active; 'I' for Inactive)
REMARK    1  A    between atoms: C_10  and  C_11
REMARK    2  A    between atoms: C_11  and  C_12
REMARK    3  A    between atoms: N_20  and  C_21
REMARK                            x       y       z     vdW  Elec       q    Type
REMARK                         _______ _______ _______ _____ _____    ______ ____
ROOT
ATOM      1  O   UNL     1       1.501   2.244  20.261  0.00  0.00    +0.000 OA
ATOM      2  C   UNL     1       2.208   2.776  19.415  0.00  0.00    +0.000 C 
ATOM      3  C   UNL     1       1.674   3.142  18.085  0.00  0.00    +0.000 C 
ATOM      4  C   UNL     1       2.471   3.676  17.146  0.00  0.00    +0.000 C 
ATOM      5  C   UNL     1       3.937   3.984  17.342  0.00  0.00    +0.000 C 
ATOM      6  C   UNL     1       4.408   3.618  18.735  0.00  0.00    +0.000 C 
ATOM      7  C   UNL     1       3.630   3.075  19.684  0.00  0.00    +0.000 C 
ATOM      8  O   UNL     1       4.606   3.118  16.432  0.00  0.00    +0.000 OA
ATOM      9  C   UNL     1       5.922   3.530  16.107  0.00  0.00    +0.000 C 
ATOM     10  C   UNL     1       5.835   4.788  15.274  0.00  0.00    +0.000 C 
ATOM     11  C   UNL     1       5.146   5.846  16.140  0.00  0.00    +0.000 C 
ATOM     12  O   UNL     1       5.441   7.037  15.975  0.00  0.00    +0.000 OA
ATOM     13  N   UNL     1       4.172   5.412  17.043  0.00  0.00    +0.000 N 
ENDROOT
BRANCH  13  14
ATOM     14  C   UNL     1       3.633   6.349  17.994  0.00  0.00    +0.000 A 
ATOM     15  C   UNL     1       2.961   7.490  17.539  0.00  0.00    +0.000 A 
ATOM     16  C   UNL     1       2.114   8.204  18.391  0.00  0.00    +0.000 A 
ATOM     17  C   UNL     1       1.938   7.786  19.708  0.00  0.00    +0.000 A 
ATOM     18  C   UNL     1       2.664   6.697  20.192  0.00  0.00    +0.000 A 
ATOM     19  C   UNL     1       3.530   5.995  19.346  0.00  0.00    +0.000 A 
ENDBRANCH  13  14
BRANCH  10  20
ATOM     20  C   UNL     1       5.125   4.576  13.915  0.00  0.00    +0.000 C 
BRANCH  20  21
ATOM     21  C   UNL     1       5.834   3.713  12.872  0.00  0.00    +0.000 A 
ATOM     22  C   UNL     1       5.102   2.716  12.200  0.00  0.00    +0.000 A 
ATOM     23  C   UNL     1       5.716   1.855  11.283  0.00  0.00    +0.000 A 
ATOM     24  C   UNL     1       7.072   1.984  11.002  0.00  0.00    +0.000 A 
ATOM     25  C   UNL     1       7.798   3.010  11.603  0.00  0.00    +0.000 A 
ATOM     26  C   UNL     1       7.181   3.879  12.513  0.00  0.00    +0.000 A 
ENDBRANCH  20  21
ENDBRANCH  10  20
TORSDOF 3
ENDMDL
MODEL 9
REMARK VINA RESULT:      -6.7      3.069      6.321
REMARK  Name = 
REMARK  3 active torsions:
REMARK  status: ('A' for Active; 'I' for Inactive)
REMARK    1  A    between atoms: C_10  and  C_11
REMARK    2  A    between atoms: C_11  and  C_12
REMARK    3  A    between atoms: N_20  and  C_21
REMARK                            x       y       z     vdW  Elec       q    Type
REMARK                         _______ _______ _______ _____ _____    ______ ____
ROOT
ATOM      1  O   UNL     1       2.238   7.237  20.118  0.00  0.00    +0.000 OA
ATOM      2  C   UNL     1       2.956   6.687  19.293  0.00  0.00    +0.000 C 
ATOM      3  C   UNL     1       3.008   7.148  17.888  0.00  0.00    +0.000 C 
ATOM      4  C   UNL     1       3.758   6.504  16.979  0.00  0.00    +0.000 C 
ATOM      5  C   UNL     1       4.627   5.306  17.281  0.00  0.00    +0.000 C 
ATOM      6  C   UNL     1       4.555   4.912  18.742  0.00  0.00    +0.000 C 
ATOM      7  C   UNL     1       3.804   5.535  19.664  0.00  0.00    +0.000 C 
ATOM      8  O   UNL     1       4.044   4.247  16.531  0.00  0.00    +0.000 OA
ATOM      9  C   UNL     1       4.921   3.160  16.292  0.00  0.00    +0.000 C 
ATOM     10  C   UNL     1       5.994   3.616  15.331  0.00  0.00    +0.000 C 
ATOM     11  C   UNL     1       6.743   4.762  16.016  0.00  0.00    +0.000 C 
ATOM     12  O   UNL     1       7.943   4.929  15.760  0.00  0.00    +0.000 OA
ATOM     13  N   UNL     1       6.013   5.602  16.863  0.00  0.00    +0.000 N 
ENDROOT
BRANCH  13  14
ATOM     14  C   UNL     1       6.715   6.574  17.658  0.00  0.00    +0.000 A 
ATOM     15  C   UNL     1       7.532   6.148  18.713  0.00  0.00    +0.000 A 
ATOM     16  C   UNL     1       8.503   6.999  19.249  0.00  0.00    +0.000 A 
ATOM     17  C   UNL     1       8.660   8.285  18.738  0.00  0.00    +0.000 A 
ATOM     18  C   UNL     1       7.799   8.745  17.741  0.00  0.00    +0.000 A 
ATOM     19  C   UNL     1       6.811   7.902  17.220  0.00  0.00    +0.000 A 
ENDBRANCH  13  14
BRANCH  10  20
ATOM     20  C   UNL     1       5.444   4.012  13.940  0.00  0.00    +0.000 C 
BRANCH  20  21
ATOM     21  C   UNL     1       6.005   3.279  12.722  0.00  0.00    +0.000 A 
ATOM     22  C   UNL     1       5.221   2.289  12.101  0.00  0.00    +0.000 A 
ATOM     23  C   UNL     1       5.710   1.542  11.022  0.00  0.00    +0.000 A 
ATOM     24  C   UNL     1       6.987   1.783  10.528  0.00  0.00    +0.000 A 
ATOM     25  C   UNL     1       7.752   2.806  11.083  0.00  0.00    +0.000 A 
ATOM     26  C   UNL     1       7.258   3.561  12.155  0.00  0.00    +0.000 A 
ENDBRANCH  20  21
ENDBRANCH  10  20
TORSDOF 3
ENDMDL
