MODEL 1
REMARK VINA RESULT:      -7.3      0.000      0.000
REMARK  Name = 
REMARK  8 active torsions:
REMARK  status: ('A' for Active; 'I' for Inactive)
REMARK    1  A    between atoms: C_2  and  C_3
REMARK    2  A    between atoms: C_2  and  C_17
REMARK    3  A    between atoms: C_3  and  C_4
REMARK    4  A    between atoms: C_4  and  C_5
REMARK    5  A    between atoms: C_5  and  C_6
REMARK    6  A    between atoms: C_6  and  C_7
REMARK    7  A    between atoms: C_10  and  C_11
REMARK    8  A    between atoms: C_17  and  C_20
REMARK                            x       y       z     vdW  Elec       q    Type
REMARK                         _______ _______ _______ _____ _____    ______ ____
ROOT
ATOM      1  C   UNL     1       4.295   5.526  18.850  0.00  0.00    +0.000 C 
ENDROOT
BRANCH   1   2
ATOM      2  C   UNL     1       4.662   4.186  18.208  0.00  0.00    +0.000 C 
BRANCH   2   3
ATOM      3  C   UNL     1       3.470   3.575  17.471  0.00  0.00    +0.000 C 
BRANCH   3   5
ATOM      4  O   UNL     1       3.094   1.505  18.648  0.00  0.00    +0.000 OA
ATOM      5  C   UNL     1       2.665   2.620  18.345  0.00  0.00    +0.000 C 
BRANCH   5   6
ATOM      6  C   UNL     1       1.308   3.120  18.794  0.00  0.00    +0.000 C 
ATOM      7  F   UNL     1       0.941   4.225  18.071  0.00  0.00    +0.000 F 
ATOM      8  F   UNL     1       0.315   2.209  18.561  0.00  0.00    +0.000 F 
BRANCH   6   9
ATOM      9  C   UNL     1       1.391   3.468  20.280  0.00  0.00    +0.000 C 
ATOM     10  F   UNL     1       2.658   3.694  20.708  0.00  0.00    +0.000 F 
ATOM     11  F   UNL     1       0.694   4.600  20.560  0.00  0.00    +0.000 F 
ATOM     12  F   UNL     1       0.873   2.495  21.069  0.00  0.00    +0.000 F 
ENDBRANCH   6   9
ENDBRANCH   5   6
ENDBRANCH   3   5
ENDBRANCH   2   3
ENDBRANCH   1   2
BRANCH   1  13
ATOM     13  C   UNL     1       3.672   6.484  17.831  0.00  0.00    +0.000 C 
BRANCH  13  14
ATOM     14  C   UNL     1       2.716   7.458  18.479  0.00  0.00    +0.000 A 
ATOM     15  C   UNL     1       2.225   8.555  17.767  0.00  0.00    +0.000 A 
ATOM     16  C   UNL     1       1.335   9.455  18.365  0.00  0.00    +0.000 A 
ATOM     17  C   UNL     1       0.932   9.278  19.698  0.00  0.00    +0.000 A 
ATOM     18  C   UNL     1       1.434   8.182  20.414  0.00  0.00    +0.000 A 
ATOM     19  C   UNL     1       2.321   7.284  19.812  0.00  0.00    +0.000 A 
BRANCH  17  20
ATOM     20  C   UNL     1      -0.039  10.231  20.353  0.00  0.00    +0.000 C 
ATOM     21  F   UNL     1       0.532  11.399  20.764  0.00  0.00    +0.000 F 
ATOM     22  F   UNL     1      -1.062  10.588  19.528  0.00  0.00    +0.000 F 
ATOM     23  F   UNL     1      -0.623   9.694  21.461  0.00  0.00    +0.000 F 
ENDBRANCH  17  20
ENDBRANCH  13  14
ENDBRANCH   1  13
TORSDOF 8
ENDMDL
MODEL 2
REMARK VINA RESULT:      -7.3      3.614      4.784
REMARK  Name = 
REMARK  8 active torsions:
REMARK  status: ('A' for Active; 'I' for Inactive)
REMARK    1  A    between atoms: C_2  and  C_3
REMARK    2  A    between atoms: C_2  and  C_17
REMARK    3  A    between atoms: C_3  and  C_4
REMARK    4  A    between atoms: C_4  and  C_5
REMARK    5  A    between atoms: C_5  and  C_6
REMARK    6  A    between atoms: C_6  and  C_7
REMARK    7  A    between atoms: C_10  and  C_11
REMARK    8  A    between atoms: C_17  and  C_20
REMARK                            x       y       z     vdW  Elec       q    Type
REMARK                         _______ _______ _______ _____ _____    ______ ____
ROOT
ATOM      1  C   UNL     1       3.579   3.832  16.871  0.00  0.00    +0.000 C 
ENDROOT
BRANCH   1   2
ATOM      2  C   UNL     1       5.030   3.903  16.386  0.00  0.00    +0.000 C 
BRANCH   2   3
ATOM      3  C   UNL     1       5.344   5.263  15.764  0.00  0.00    +0.000 C 
BRANCH   3   5
ATOM      4  O   UNL     1       7.707   5.358  15.297  0.00  0.00    +0.000 OA
ATOM      5  C   UNL     1       6.777   5.713  16.024  0.00  0.00    +0.000 C 
BRANCH   5   6
ATOM      6  C   UNL     1       6.983   6.600  17.234  0.00  0.00    +0.000 C 
ATOM      7  F   UNL     1       7.975   7.514  16.994  0.00  0.00    +0.000 F 
ATOM      8  F   UNL     1       5.879   7.356  17.517  0.00  0.00    +0.000 F 
BRANCH   6   9
ATOM      9  C   UNL     1       7.358   5.715  18.422  0.00  0.00    +0.000 C 
ATOM     10  F   UNL     1       6.316   5.462  19.252  0.00  0.00    +0.000 F 
ATOM     11  F   UNL     1       7.809   4.502  18.008  0.00  0.00    +0.000 F 
ATOM     12  F   UNL     1       8.346   6.253  19.177  0.00  0.00    +0.000 F 
ENDBRANCH   6   9
ENDBRANCH   5   6
ENDBRANCH   3   5
ENDBRANCH   2   3
ENDBRANCH   1   2
BRANCH   1  13
ATOM     13  C   UNL     1       3.502   3.715  18.396  0.00  0.00    +0.000 C 
BRANCH  13  14
ATOM     14  C   UNL     1       2.909   4.950  19.030  0.00  0.00    +0.000 A 
ATOM     15  C   UNL     1       2.989   6.189  18.389  0.00  0.00    +0.000 A 
ATOM     16  C   UNL     1       2.434   7.334  18.974  0.00  0.00    +0.000 A 
ATOM     17  C   UNL     1       1.800   7.258  20.224  0.00  0.00    +0.000 A 
ATOM     18  C   UNL     1       1.730   6.017  20.871  0.00  0.00    +0.000 A 
ATOM     19  C   UNL     1       2.283   4.874  20.281  0.00  0.00    +0.000 A 
BRANCH  17  20
ATOM     20  C   UNL     1       1.184   8.480  20.862  0.00  0.00    +0.000 C 
ATOM     21  F   UNL     1       1.760   8.830  22.046  0.00  0.00    +0.000 F 
ATOM     22  F   UNL     1       1.266   9.585  20.068  0.00  0.00    +0.000 F 
ATOM     23  F   UNL     1      -0.141   8.312  21.129  0.00  0.00    +0.000 F 
ENDBRANCH  17  20
ENDBRANCH  13  14
ENDBRANCH   1  13
TORSDOF 8
ENDMDL
MODEL 3
REMARK VINA RESULT:      -7.3      3.605      4.881
REMARK  Name = 
REMARK  8 active torsions:
REMARK  status: ('A' for Active; 'I' for Inactive)
REMARK    1  A    between atoms: C_2  and  C_3
REMARK    2  A    between atoms: C_2  and  C_17
REMARK    3  A    between atoms: C_3  and  C_4
REMARK    4  A    between atoms: C_4  and  C_5
REMARK    5  A    between atoms: C_5  and  C_6
REMARK    6  A    between atoms: C_6  and  C_7
REMARK    7  A    between atoms: C_10  and  C_11
REMARK    8  A    between atoms: C_17  and  C_20
REMARK                            x       y       z     vdW  Elec       q    Type
REMARK                         _______ _______ _______ _____ _____    ______ ____
ROOT
ATOM      1  C   UNL     1       3.569   3.795  17.011  0.00  0.00    +0.000 C 
ENDROOT
BRANCH   1   2
ATOM      2  C   UNL     1       5.038   3.875  16.586  0.00  0.00    +0.000 C 
BRANCH   2   3
ATOM      3  C   UNL     1       5.334   5.179  15.847  0.00  0.00    +0.000 C 
BRANCH   3   5
ATOM      4  O   UNL     1       7.676   5.347  15.301  0.00  0.00    +0.000 OA
ATOM      5  C   UNL     1       6.762   5.667  16.063  0.00  0.00    +0.000 C 
BRANCH   5   6
ATOM      6  C   UNL     1       6.984   6.546  17.276  0.00  0.00    +0.000 C 
ATOM      7  F   UNL     1       7.948   7.485  17.017  0.00  0.00    +0.000 F 
ATOM      8  F   UNL     1       5.872   7.274  17.600  0.00  0.00    +0.000 F 
BRANCH   6   9
ATOM      9  C   UNL     1       7.413   5.658  18.443  0.00  0.00    +0.000 C 
ATOM     10  F   UNL     1       6.382   5.284  19.240  0.00  0.00    +0.000 F 
ATOM     11  F   UNL     1       7.981   4.505  18.000  0.00  0.00    +0.000 F 
ATOM     12  F   UNL     1       8.333   6.256  19.238  0.00  0.00    +0.000 F 
ENDBRANCH   6   9
ENDBRANCH   5   6
ENDBRANCH   3   5
ENDBRANCH   2   3
ENDBRANCH   1   2
BRANCH   1  13
ATOM     13  C   UNL     1       3.430   3.677  18.532  0.00  0.00    +0.000 C 
BRANCH  13  14
ATOM     14  C   UNL     1       2.840   4.924  19.146  0.00  0.00    +0.000 A 
ATOM     15  C   UNL     1       2.177   4.867  20.374  0.00  0.00    +0.000 A 
ATOM     16  C   UNL     1       1.635   6.024  20.948  0.00  0.00    +0.000 A 
ATOM     17  C   UNL     1       1.736   7.259  20.290  0.00  0.00    +0.000 A 
ATOM     18  C   UNL     1       2.392   7.312  19.052  0.00  0.00    +0.000 A 
ATOM     19  C   UNL     1       2.935   6.155  18.484  0.00  0.00    +0.000 A 
BRANCH  17  20
ATOM     20  C   UNL     1       1.169   8.518  20.901  0.00  0.00    +0.000 C 
ATOM     21  F   UNL     1       1.199   9.595  20.066  0.00  0.00    +0.000 F 
ATOM     22  F   UNL     1      -0.133   8.378  21.279  0.00  0.00    +0.000 F 
ATOM     23  F   UNL     1       1.843   8.898  22.022  0.00  0.00    +0.000 F 
ENDBRANCH  17  20
ENDBRANCH  13  14
ENDBRANCH   1  13
TORSDOF 8
ENDMDL
MODEL 4
REMARK VINA RESULT:      -7.2      3.830      6.047
REMARK  Name = 
REMARK  8 active torsions:
REMARK  status: ('A' for Active; 'I' for Inactive)
REMARK    1  A    between atoms: C_2  and  C_3
REMARK    2  A    between atoms: C_2  and  C_17
REMARK    3  A    between atoms: C_3  and  C_4
REMARK    4  A    between atoms: C_4  and  C_5
REMARK    5  A    between atoms: C_5  and  C_6
REMARK    6  A    between atoms: C_6  and  C_7
REMARK    7  A    between atoms: C_10  and  C_11
REMARK    8  A    between atoms: C_17  and  C_20
REMARK                            x       y       z     vdW  Elec       q    Type
REMARK                         _______ _______ _______ _____ _____    ______ ____
ROOT
ATOM      1  C   UNL     1       4.640   7.200  17.108  0.00  0.00    +0.000 C 
ENDROOT
BRANCH   1   2
ATOM      2  C   UNL     1       4.801   6.592  15.712  0.00  0.00    +0.000 C 
BRANCH   2   3
ATOM      3  C   UNL     1       5.789   5.427  15.721  0.00  0.00    +0.000 C 
BRANCH   3   5
ATOM      4  O   UNL     1       7.836   6.590  16.236  0.00  0.00    +0.000 OA
ATOM      5  C   UNL     1       7.031   5.714  16.557  0.00  0.00    +0.000 C 
BRANCH   5   6
ATOM      6  C   UNL     1       7.216   4.848  17.785  0.00  0.00    +0.000 C 
ATOM      7  F   UNL     1       6.148   4.003  17.941  0.00  0.00    +0.000 F 
ATOM      8  F   UNL     1       8.298   4.019  17.677  0.00  0.00    +0.000 F 
BRANCH   6   9
ATOM      9  C   UNL     1       7.348   5.761  19.003  0.00  0.00    +0.000 C 
ATOM     10  F   UNL     1       6.226   5.807  19.764  0.00  0.00    +0.000 F 
ATOM     11  F   UNL     1       8.342   5.339  19.828  0.00  0.00    +0.000 F 
ATOM     12  F   UNL     1       7.650   7.038  18.663  0.00  0.00    +0.000 F 
ENDBRANCH   6   9
ENDBRANCH   5   6
ENDBRANCH   3   5
ENDBRANCH   2   3
ENDBRANCH   1   2
BRANCH   1  13
ATOM     13  C   UNL     1       3.173   7.216  17.547  0.00  0.00    +0.000 C 
BRANCH  13  14
ATOM     14  C   UNL     1       2.825   6.024  18.406  0.00  0.00    +0.000 A 
ATOM     15  C   UNL     1       2.876   6.111  19.800  0.00  0.00    +0.000 A 
ATOM     16  C   UNL     1       2.548   5.008  20.597  0.00  0.00    +0.000 A 
ATOM     17  C   UNL     1       2.175   3.790  20.009  0.00  0.00    +0.000 A 
ATOM     18  C   UNL     1       2.133   3.701  18.611  0.00  0.00    +0.000 A 
ATOM     19  C   UNL     1       2.459   4.806  17.817  0.00  0.00    +0.000 A 
BRANCH  17  20
ATOM     20  C   UNL     1       1.804   2.595  20.855  0.00  0.00    +0.000 C 
ATOM     21  F   UNL     1       2.714   2.309  21.828  0.00  0.00    +0.000 F 
ATOM     22  F   UNL     1       0.613   2.755  21.496  0.00  0.00    +0.000 F 
ATOM     23  F   UNL     1       1.681   1.457  20.117  0.00  0.00    +0.000 F 
ENDBRANCH  17  20
ENDBRANCH  13  14
ENDBRANCH   1  13
TORSDOF 8
ENDMDL
MODEL 5
REMARK VINA RESULT:      -7.0      1.439      2.449
REMARK  Name = 
REMARK  8 active torsions:
REMARK  status: ('A' for Active; 'I' for Inactive)
REMARK    1  A    between atoms: C_2  and  C_3
REMARK    2  A    between atoms: C_2  and  C_17
REMARK    3  A    between atoms: C_3  and  C_4
REMARK    4  A    between atoms: C_4  and  C_5
REMARK    5  A    between atoms: C_5  and  C_6
REMARK    6  A    between atoms: C_6  and  C_7
REMARK    7  A    between atoms: C_10  and  C_11
REMARK    8  A    between atoms: C_17  and  C_20
REMARK                            x       y       z     vdW  Elec       q    Type
REMARK                         _______ _______ _______ _____ _____    ______ ____
ROOT
ATOM      1  C   UNL     1       5.269   4.355  17.336  0.00  0.00    +0.000 C 
ENDROOT
BRANCH   1   2
ATOM      2  C   UNL     1       3.925   3.877  16.777  0.00  0.00    +0.000 C 
BRANCH   2   3
ATOM      3  C   UNL     1       3.259   2.870  17.714  0.00  0.00    +0.000 C 
BRANCH   3   5
ATOM      4  O   UNL     1       1.243   4.173  17.492  0.00  0.00    +0.000 OA
ATOM      5  C   UNL     1       1.828   3.256  18.072  0.00  0.00    +0.000 C 
BRANCH   5   6
ATOM      6  C   UNL     1       1.188   2.460  19.190  0.00  0.00    +0.000 C 
ATOM      7  F   UNL     1      -0.125   2.196  18.898  0.00  0.00    +0.000 F 
ATOM      8  F   UNL     1       1.761   1.228  19.344  0.00  0.00    +0.000 F 
BRANCH   6   9
ATOM      9  C   UNL     1       1.289   3.274  20.479  0.00  0.00    +0.000 C 
ATOM     10  F   UNL     1       0.843   2.605  21.572  0.00  0.00    +0.000 F 
ATOM     11  F   UNL     1       2.577   3.611  20.748  0.00  0.00    +0.000 F 
ATOM     12  F   UNL     1       0.594   4.435  20.414  0.00  0.00    +0.000 F 
ENDBRANCH   6   9
ENDBRANCH   5   6
ENDBRANCH   3   5
ENDBRANCH   2   3
ENDBRANCH   1   2
BRANCH   1  13
ATOM     13  C   UNL     1       5.095   5.071  18.678  0.00  0.00    +0.000 C 
BRANCH  13  14
ATOM     14  C   UNL     1       4.090   6.194  18.596  0.00  0.00    +0.000 A 
ATOM     15  C   UNL     1       3.110   6.346  19.580  0.00  0.00    +0.000 A 
ATOM     16  C   UNL     1       2.180   7.391  19.508  0.00  0.00    +0.000 A 
ATOM     17  C   UNL     1       2.208   8.296  18.436  0.00  0.00    +0.000 A 
ATOM     18  C   UNL     1       3.186   8.136  17.444  0.00  0.00    +0.000 A 
ATOM     19  C   UNL     1       4.115   7.092  17.521  0.00  0.00    +0.000 A 
BRANCH  17  20
ATOM     20  C   UNL     1       1.222   9.436  18.351  0.00  0.00    +0.000 C 
ATOM     21  F   UNL     1       0.203   9.216  17.473  0.00  0.00    +0.000 F 
ATOM     22  F   UNL     1       0.629   9.708  19.547  0.00  0.00    +0.000 F 
ATOM     23  F   UNL     1       1.809  10.599  17.953  0.00  0.00    +0.000 F 
ENDBRANCH  17  20
ENDBRANCH  13  14
ENDBRANCH   1  13
TORSDOF 8
ENDMDL
MODEL 6
REMARK VINA RESULT:      -7.0      1.066      1.702
REMARK  Name = 
REMARK  8 active torsions:
REMARK  status: ('A' for Active; 'I' for Inactive)
REMARK    1  A    between atoms: C_2  and  C_3
REMARK    2  A    between atoms: C_2  and  C_17
REMARK    3  A    between atoms: C_3  and  C_4
REMARK    4  A    between atoms: C_4  and  C_5
REMARK    5  A    between atoms: C_5  and  C_6
REMARK    6  A    between atoms: C_6  and  C_7
REMARK    7  A    between atoms: C_10  and  C_11
REMARK    8  A    between atoms: C_17  and  C_20
REMARK                            x       y       z     vdW  Elec       q    Type
REMARK                         _______ _______ _______ _____ _____    ______ ____
ROOT
ATOM      1  C   UNL     1       4.344   6.199  17.998  0.00  0.00    +0.000 C 
ENDROOT
BRANCH   1   2
ATOM      2  C   UNL     1       3.921   4.753  17.726  0.00  0.00    +0.000 C 
BRANCH   2   3
ATOM      3  C   UNL     1       4.066   3.885  18.976  0.00  0.00    +0.000 C 
BRANCH   3   5
ATOM      4  O   UNL     1       3.304   1.649  18.495  0.00  0.00    +0.000 OA
ATOM      5  C   UNL     1       3.061   2.739  19.016  0.00  0.00    +0.000 C 
BRANCH   5   6
ATOM      6  C   UNL     1       1.751   3.033  19.717  0.00  0.00    +0.000 C 
ATOM      7  F   UNL     1       1.250   4.241  19.308  0.00  0.00    +0.000 F 
ATOM      8  F   UNL     1       0.777   2.129  19.396  0.00  0.00    +0.000 F 
BRANCH   6   9
ATOM      9  C   UNL     1       2.004   3.050  21.224  0.00  0.00    +0.000 C 
ATOM     10  F   UNL     1       3.086   2.321  21.594  0.00  0.00    +0.000 F 
ATOM     11  F   UNL     1       2.234   4.313  21.669  0.00  0.00    +0.000 F 
ATOM     12  F   UNL     1       0.948   2.580  21.932  0.00  0.00    +0.000 F 
ENDBRANCH   6   9
ENDBRANCH   5   6
ENDBRANCH   3   5
ENDBRANCH   2   3
ENDBRANCH   1   2
BRANCH   1  13
ATOM     13  C   UNL     1       3.293   7.194  17.498  0.00  0.00    +0.000 C 
BRANCH  13  14
ATOM     14  C   UNL     1       2.445   7.737  18.624  0.00  0.00    +0.000 A 
ATOM     15  C   UNL     1       2.331   7.041  19.829  0.00  0.00    +0.000 A 
ATOM     16  C   UNL     1       1.550   7.546  20.875  0.00  0.00    +0.000 A 
ATOM     17  C   UNL     1       0.855   8.755  20.725  0.00  0.00    +0.000 A 
ATOM     18  C   UNL     1       0.962   9.448  19.511  0.00  0.00    +0.000 A 
ATOM     19  C   UNL     1       1.746   8.941  18.469  0.00  0.00    +0.000 A 
BRANCH  17  20
ATOM     20  C   UNL     1       0.020   9.321  21.848  0.00  0.00    +0.000 C 
ATOM     21  F   UNL     1      -0.647  10.462  21.515  0.00  0.00    +0.000 F 
ATOM     22  F   UNL     1      -0.931   8.449  22.286  0.00  0.00    +0.000 F 
ATOM     23  F   UNL     1       0.768   9.636  22.942  0.00  0.00    +0.000 F 
ENDBRANCH  17  20
ENDBRANCH  13  14
ENDBRANCH   1  13
TORSDOF 8
ENDMDL
MODEL 7
REMARK VINA RESULT:      -7.0      3.985      6.791
REMARK  Name = 
REMARK  8 active torsions:
REMARK  status: ('A' for Active; 'I' for Inactive)
REMARK    1  A    between atoms: C_2  and  C_3
REMARK    2  A    between atoms: C_2  and  C_17
REMARK    3  A    between atoms: C_3  and  C_4
REMARK    4  A    between atoms: C_4  and  C_5
REMARK    5  A    between atoms: C_5  and  C_6
REMARK    6  A    between atoms: C_6  and  C_7
REMARK    7  A    between atoms: C_10  and  C_11
REMARK    8  A    between atoms: C_17  and  C_20
REMARK                            x       y       z     vdW  Elec       q    Type
REMARK                         _______ _______ _______ _____ _____    ______ ____
ROOT
ATOM      1  C   UNL     1       4.407   6.485  17.830  0.00  0.00    +0.000 C 
ENDROOT
BRANCH   1   2
ATOM      2  C   UNL     1       3.616   6.004  19.050  0.00  0.00    +0.000 C 
BRANCH   2   3
ATOM      3  C   UNL     1       2.574   4.956  18.662  0.00  0.00    +0.000 C 
BRANCH   3   5
ATOM      4  O   UNL     1       4.006   3.057  19.055  0.00  0.00    +0.000 OA
ATOM      5  C   UNL     1       2.897   3.572  19.212  0.00  0.00    +0.000 C 
BRANCH   5   6
ATOM      6  C   UNL     1       1.769   2.870  19.940  0.00  0.00    +0.000 C 
ATOM      7  F   UNL     1       0.567   3.453  19.636  0.00  0.00    +0.000 F 
ATOM      8  F   UNL     1       1.630   1.567  19.548  0.00  0.00    +0.000 F 
BRANCH   6   9
ATOM      9  C   UNL     1       2.035   2.962  21.442  0.00  0.00    +0.000 C 
ATOM     10  F   UNL     1       2.295   4.225  21.864  0.00  0.00    +0.000 F 
ATOM     11  F   UNL     1       0.958   2.544  22.158  0.00  0.00    +0.000 F 
ATOM     12  F   UNL     1       3.078   2.190  21.832  0.00  0.00    +0.000 F 
ENDBRANCH   6   9
ENDBRANCH   5   6
ENDBRANCH   3   5
ENDBRANCH   2   3
ENDBRANCH   1   2
BRANCH   1  13
ATOM     13  C   UNL     1       5.725   5.721  17.678  0.00  0.00    +0.000 C 
BRANCH  13  14
ATOM     14  C   UNL     1       5.903   5.170  16.284  0.00  0.00    +0.000 A 
ATOM     15  C   UNL     1       4.945   4.320  15.726  0.00  0.00    +0.000 A 
ATOM     16  C   UNL     1       5.107   3.812  14.431  0.00  0.00    +0.000 A 
ATOM     17  C   UNL     1       6.244   4.139  13.675  0.00  0.00    +0.000 A 
ATOM     18  C   UNL     1       7.209   4.984  14.240  0.00  0.00    +0.000 A 
ATOM     19  C   UNL     1       7.042   5.491  15.534  0.00  0.00    +0.000 A 
BRANCH  17  20
ATOM     20  C   UNL     1       6.426   3.612  12.272  0.00  0.00    +0.000 C 
ATOM     21  F   UNL     1       5.260   3.479  11.580  0.00  0.00    +0.000 F 
ATOM     22  F   UNL     1       7.221   4.414  11.510  0.00  0.00    +0.000 F 
ATOM     23  F   UNL     1       7.011   2.382  12.253  0.00  0.00    +0.000 F 
ENDBRANCH  17  20
ENDBRANCH  13  14
ENDBRANCH   1  13
TORSDOF 8
ENDMDL
MODEL 8
REMARK VINA RESULT:      -6.9      3.745      5.050
REMARK  Name = 
REMARK  8 active torsions:
REMARK  status: ('A' for Active; 'I' for Inactive)
REMARK    1  A    between atoms: C_2  and  C_3
REMARK    2  A    between atoms: C_2  and  C_17
REMARK    3  A    between atoms: C_3  and  C_4
REMARK    4  A    between atoms: C_4  and  C_5
REMARK    5  A    between atoms: C_5  and  C_6
REMARK    6  A    between atoms: C_6  and  C_7
REMARK    7  A    between atoms: C_10  and  C_11
REMARK    8  A    between atoms: C_17  and  C_20
REMARK                            x       y       z     vdW  Elec       q    Type
REMARK                         _______ _______ _______ _____ _____    ______ ____
ROOT
ATOM      1  C   UNL     1       4.373   3.667  17.750  0.00  0.00    +0.000 C 
ENDROOT
BRANCH   1   2
ATOM      2  C   UNL     1       5.120   3.841  16.424  0.00  0.00    +0.000 C 
BRANCH   2   3
ATOM      3  C   UNL     1       5.951   5.123  16.416  0.00  0.00    +0.000 C 
BRANCH   3   5
ATOM      4  O   UNL     1       8.069   4.181  17.078  0.00  0.00    +0.000 OA
ATOM      5  C   UNL     1       7.196   5.024  17.291  0.00  0.00    +0.000 C 
BRANCH   5   6
ATOM      6  C   UNL     1       7.277   6.008  18.439  0.00  0.00    +0.000 C 
ATOM      7  F   UNL     1       6.075   6.081  19.093  0.00  0.00    +0.000 F 
ATOM      8  F   UNL     1       8.168   5.614  19.399  0.00  0.00    +0.000 F 
BRANCH   6   9
ATOM      9  C   UNL     1       7.654   7.377  17.875  0.00  0.00    +0.000 C 
ATOM     10  F   UNL     1       8.175   7.316  16.624  0.00  0.00    +0.000 F 
ATOM     11  F   UNL     1       6.567   8.189  17.787  0.00  0.00    +0.000 F 
ATOM     12  F   UNL     1       8.556   8.027  18.650  0.00  0.00    +0.000 F 
ENDBRANCH   6   9
ENDBRANCH   5   6
ENDBRANCH   3   5
ENDBRANCH   2   3
ENDBRANCH   1   2
BRANCH   1  13
ATOM     13  C   UNL     1       2.884   3.992  17.601  0.00  0.00    +0.000 C 
BRANCH  13  14
ATOM     14  C   UNL     1       2.460   5.130  18.498  0.00  0.00    +0.000 A 
ATOM     15  C   UNL     1       1.908   4.878  19.756  0.00  0.00    +0.000 A 
ATOM     16  C   UNL     1       1.519   5.933  20.591  0.00  0.00    +0.000 A 
ATOM     17  C   UNL     1       1.664   7.264  20.170  0.00  0.00    +0.000 A 
ATOM     18  C   UNL     1       2.208   7.515  18.903  0.00  0.00    +0.000 A 
ATOM     19  C   UNL     1       2.598   6.458  18.073  0.00  0.00    +0.000 A 
BRANCH  17  20
ATOM     20  C   UNL     1       1.263   8.413  21.063  0.00  0.00    +0.000 C 
ATOM     21  F   UNL     1       2.053   8.553  22.165  0.00  0.00    +0.000 F 
ATOM     22  F   UNL     1       1.304   9.615  20.423  0.00  0.00    +0.000 F 
ATOM     23  F   UNL     1      -0.009   8.284  21.533  0.00  0.00    +0.000 F 
ENDBRANCH  17  20
ENDBRANCH  13  14
ENDBRANCH   1  13
TORSDOF 8
ENDMDL
MODEL 9
REMARK VINA RESULT:      -6.9      3.807      6.419
REMARK  Name = 
REMARK  8 active torsions:
REMARK  status: ('A' for Active; 'I' for Inactive)
REMARK    1  A    between atoms: C_2  and  C_3
REMARK    2  A    between atoms: C_2  and  C_17
REMARK    3  A    between atoms: C_3  and  C_4
REMARK    4  A    between atoms: C_4  and  C_5
REMARK    5  A    between atoms: C_5  and  C_6
REMARK    6  A    between atoms: C_6  and  C_7
REMARK    7  A    between atoms: C_10  and  C_11
REMARK    8  A    between atoms: C_17  and  C_20
REMARK                            x       y       z     vdW  Elec       q    Type
REMARK                         _______ _______ _______ _____ _____    ______ ____
ROOT
ATOM      1  C   UNL     1       6.428   5.595  19.273  0.00  0.00    +0.000 C 
ENDROOT
BRANCH   1   2
ATOM      2  C   UNL     1       5.002   5.043  19.346  0.00  0.00    +0.000 C 
BRANCH   2   3
ATOM      3  C   UNL     1       4.976   3.532  19.119  0.00  0.00    +0.000 C 
BRANCH   3   5
ATOM      4  O   UNL     1       3.153   2.412  20.229  0.00  0.00    +0.000 OA
ATOM      5  C   UNL     1       3.570   2.949  19.201  0.00  0.00    +0.000 C 
BRANCH   5   6
ATOM      6  C   UNL     1       2.736   3.054  17.941  0.00  0.00    +0.000 C 
ATOM      7  F   UNL     1       3.446   3.677  16.948  0.00  0.00    +0.000 F 
ATOM      8  F   UNL     1       2.421   1.828  17.424  0.00  0.00    +0.000 F 
BRANCH   6   9
ATOM      9  C   UNL     1       1.473   3.851  18.265  0.00  0.00    +0.000 C 
ATOM     10  F   UNL     1       1.661   4.786  19.229  0.00  0.00    +0.000 F 
ATOM     11  F   UNL     1       1.023   4.524  17.174  0.00  0.00    +0.000 F 
ATOM     12  F   UNL     1       0.452   3.059  18.675  0.00  0.00    +0.000 F 
ENDBRANCH   6   9
ENDBRANCH   5   6
ENDBRANCH   3   5
ENDBRANCH   2   3
ENDBRANCH   1   2
BRANCH   1  13
ATOM     13  C   UNL     1       6.605   6.536  18.078  0.00  0.00    +0.000 C 
BRANCH  13  14
ATOM     14  C   UNL     1       6.415   5.823  16.761  0.00  0.00    +0.000 A 
ATOM     15  C   UNL     1       5.380   6.187  15.897  0.00  0.00    +0.000 A 
ATOM     16  C   UNL     1       5.206   5.530  14.673  0.00  0.00    +0.000 A 
ATOM     17  C   UNL     1       6.062   4.482  14.299  0.00  0.00    +0.000 A 
ATOM     18  C   UNL     1       7.093   4.111  15.172  0.00  0.00    +0.000 A 
ATOM     19  C   UNL     1       7.266   4.772  16.393  0.00  0.00    +0.000 A 
BRANCH  17  20
ATOM     20  C   UNL     1       5.896   3.773  12.977  0.00  0.00    +0.000 C 
ATOM     21  F   UNL     1       6.691   4.268  11.986  0.00  0.00    +0.000 F 
ATOM     22  F   UNL     1       6.185   2.444  13.054  0.00  0.00    +0.000 F 
ATOM     23  F   UNL     1       4.621   3.851  12.503  0.00  0.00    +0.000 F 
ENDBRANCH  17  20
ENDBRANCH  13  14
ENDBRANCH   1  13
TORSDOF 8
ENDMDL
