MODEL 1
REMARK VINA RESULT:      -7.9      0.000      0.000
REMARK  Name = 
REMARK  4 active torsions:
REMARK  status: ('A' for Active; 'I' for Inactive)
REMARK    1  A    between atoms: C_1  and  C_2
REMARK    2  A    between atoms: C_2  and  N_3
REMARK    3  A    between atoms: C_2  and  C_19
REMARK    4  A    between atoms: C_9  and  C_10
REMARK                            x       y       z     vdW  Elec       q    Type
REMARK                         _______ _______ _______ _____ _____    ______ ____
ROOT
ATOM      1  N   UNL     1       2.639   6.412  18.290  0.00  0.00    +0.000 N 
ATOM      2  C   UNL     1       2.175   6.914  19.479  0.00  0.00    +0.000 C 
ATOM      3  O   UNL     1       2.199   6.255  20.516  0.00  0.00    +0.000 OA
ATOM      4  N   UNL     1       1.624   8.188  19.404  0.00  0.00    +0.000 N 
ATOM      5  C   UNL     1       1.300   8.852  20.670  0.00  0.00    +0.000 C 
ATOM      6  C   UNL     1       0.082   9.769  20.566  0.00  0.00    +0.000 C 
ATOM      7  C   UNL     1       0.142  10.738  19.376  0.00  0.00    +0.000 C 
ATOM      8  C   UNL     1       0.428   9.939  18.099  0.00  0.00    +0.000 C 
ATOM      9  C   UNL     1       1.650   9.035  18.209  0.00  0.00    +0.000 C 
ATOM     10  H   UNL     1       3.056   7.081  17.667  0.00  0.00    +0.000 HD
ENDROOT
BRANCH   7  11
ATOM     11  C   UNL     1       1.104  11.907  19.580  0.00  0.00    +0.000 A 
ATOM     12  C   UNL     1       1.206  12.510  20.776  0.00  0.00    +0.000 A 
ATOM     13  C   UNL     1       2.148  13.630  20.919  0.00  0.00    +0.000 A 
ATOM     14  O   UNL     1       2.281  14.227  21.982  0.00  0.00    +0.000 OA
ATOM     15  N   UNL     1       2.848  13.947  19.794  0.00  0.00    +0.000 N 
ATOM     16  C   UNL     1       2.670  13.270  18.631  0.00  0.00    +0.000 A 
ATOM     17  N   UNL     1       1.842  12.293  18.484  0.00  0.00    +0.000 NA
ATOM     18  H   UNL     1       3.501  14.712  19.861  0.00  0.00    +0.000 HD
ENDBRANCH   7  11
BRANCH   1  20
ATOM     19  C   UNL     1       1.980   4.102  17.928  0.00  0.00    +0.000 C 
ATOM     20  C   UNL     1       3.152   5.056  18.174  0.00  0.00    +0.000 C 
BRANCH  20  21
ATOM     21  C   UNL     1       4.239   4.995  17.109  0.00  0.00    +0.000 A 
ATOM     22  C   UNL     1       4.720   6.199  16.561  0.00  0.00    +0.000 A 
ATOM     23  C   UNL     1       5.694   6.196  15.559  0.00  0.00    +0.000 A 
ATOM     24  C   UNL     1       6.196   4.988  15.088  0.00  0.00    +0.000 A 
ATOM     25 CL   UNL     1       7.385   4.978  13.844  0.00  0.00    +0.000 Cl
ATOM     26  C   UNL     1       5.734   3.784  15.613  0.00  0.00    +0.000 A 
ATOM     27  C   UNL     1       4.756   3.787  16.613  0.00  0.00    +0.000 A 
ENDBRANCH  20  21
ENDBRANCH   1  20
TORSDOF 3
ENDMDL
MODEL 2
REMARK VINA RESULT:      -7.7      1.038      1.286
REMARK  Name = 
REMARK  4 active torsions:
REMARK  status: ('A' for Active; 'I' for Inactive)
REMARK    1  A    between atoms: C_1  and  C_2
REMARK    2  A    between atoms: C_2  and  N_3
REMARK    3  A    between atoms: C_2  and  C_19
REMARK    4  A    between atoms: C_9  and  C_10
REMARK                            x       y       z     vdW  Elec       q    Type
REMARK                         _______ _______ _______ _____ _____    ______ ____
ROOT
ATOM      1  N   UNL     1       2.491   6.502  18.373  0.00  0.00    +0.000 N 
ATOM      2  C   UNL     1       2.093   7.026  19.576  0.00  0.00    +0.000 C 
ATOM      3  O   UNL     1       2.141   6.375  20.617  0.00  0.00    +0.000 OA
ATOM      4  N   UNL     1       1.580   8.317  19.514  0.00  0.00    +0.000 N 
ATOM      5  C   UNL     1       1.331   9.000  20.786  0.00  0.00    +0.000 C 
ATOM      6  C   UNL     1       0.139   9.954  20.727  0.00  0.00    +0.000 C 
ATOM      7  C   UNL     1       0.179  10.912  19.527  0.00  0.00    +0.000 C 
ATOM      8  C   UNL     1       0.385  10.095  18.246  0.00  0.00    +0.000 C 
ATOM      9  C   UNL     1       1.582   9.154  18.311  0.00  0.00    +0.000 C 
ATOM     10  H   UNL     1       2.901   7.152  17.727  0.00  0.00    +0.000 HD
ENDROOT
BRANCH   7  11
ATOM     11  C   UNL     1       1.185  12.052  19.680  0.00  0.00    +0.000 A 
ATOM     12  C   UNL     1       1.733  12.631  18.599  0.00  0.00    +0.000 A 
ATOM     13  C   UNL     1       2.695  13.725  18.802  0.00  0.00    +0.000 A 
ATOM     14  O   UNL     1       3.237  14.289  17.857  0.00  0.00    +0.000 OA
ATOM     15  N   UNL     1       2.933  14.055  20.102  0.00  0.00    +0.000 N 
ATOM     16  C   UNL     1       2.322  13.404  21.125  0.00  0.00    +0.000 A 
ATOM     17  N   UNL     1       1.485  12.438  20.966  0.00  0.00    +0.000 NA
ATOM     18  H   UNL     1       3.590  14.801  20.272  0.00  0.00    +0.000 HD
ENDBRANCH   7  11
BRANCH   1  20
ATOM     19  C   UNL     1       1.758   4.227  17.937  0.00  0.00    +0.000 C 
ATOM     20  C   UNL     1       2.956   5.130  18.247  0.00  0.00    +0.000 C 
BRANCH  20  21
ATOM     21  C   UNL     1       4.079   5.047  17.222  0.00  0.00    +0.000 A 
ATOM     22  C   UNL     1       4.594   6.241  16.683  0.00  0.00    +0.000 A 
ATOM     23  C   UNL     1       5.603   6.219  15.717  0.00  0.00    +0.000 A 
ATOM     24  C   UNL     1       6.107   5.001  15.272  0.00  0.00    +0.000 A 
ATOM     25 CL   UNL     1       7.339   4.967  14.071  0.00  0.00    +0.000 Cl
ATOM     26  C   UNL     1       5.611   3.807  15.788  0.00  0.00    +0.000 A 
ATOM     27  C   UNL     1       4.599   3.829  16.753  0.00  0.00    +0.000 A 
ENDBRANCH  20  21
ENDBRANCH   1  20
TORSDOF 3
ENDMDL
MODEL 3
REMARK VINA RESULT:      -7.5      0.736      1.214
REMARK  Name = 
REMARK  4 active torsions:
REMARK  status: ('A' for Active; 'I' for Inactive)
REMARK    1  A    between atoms: C_1  and  C_2
REMARK    2  A    between atoms: C_2  and  N_3
REMARK    3  A    between atoms: C_2  and  C_19
REMARK    4  A    between atoms: C_9  and  C_10
REMARK                            x       y       z     vdW  Elec       q    Type
REMARK                         _______ _______ _______ _____ _____    ______ ____
ROOT
ATOM      1  N   UNL     1       2.405   6.897  18.830  0.00  0.00    +0.000 N 
ATOM      2  C   UNL     1       1.886   7.446  19.974  0.00  0.00    +0.000 C 
ATOM      3  O   UNL     1       1.905   6.850  21.048  0.00  0.00    +0.000 OA
ATOM      4  N   UNL     1       1.289   8.691  19.810  0.00  0.00    +0.000 N 
ATOM      5  C   UNL     1       0.901   9.413  21.025  0.00  0.00    +0.000 C 
ATOM      6  C   UNL     1      -0.349  10.271  20.834  0.00  0.00    +0.000 C 
ATOM      7  C   UNL     1      -0.291  11.172  19.592  0.00  0.00    +0.000 C 
ATOM      8  C   UNL     1       0.064  10.314  18.372  0.00  0.00    +0.000 C 
ATOM      9  C   UNL     1       1.316   9.468  18.568  0.00  0.00    +0.000 C 
ATOM     10  H   UNL     1       2.813   7.545  18.180  0.00  0.00    +0.000 HD
ENDROOT
BRANCH   7  11
ATOM     11  C   UNL     1       0.618  12.390  19.753  0.00  0.00    +0.000 A 
ATOM     12  C   UNL     1       0.916  12.865  20.973  0.00  0.00    +0.000 A 
ATOM     13  C   UNL     1       1.796  14.039  21.073  0.00  0.00    +0.000 A 
ATOM     14  O   UNL     1       2.099  14.526  22.157  0.00  0.00    +0.000 OA
ATOM     15  N   UNL     1       2.240  14.534  19.884  0.00  0.00    +0.000 N 
ATOM     16  C   UNL     1       1.878  13.975  18.701  0.00  0.00    +0.000 A 
ATOM     17  N   UNL     1       1.101  12.953  18.594  0.00  0.00    +0.000 NA
ATOM     18  H   UNL     1       2.845  15.340  19.921  0.00  0.00    +0.000 HD
ENDBRANCH   7  11
BRANCH   1  20
ATOM     19  C   UNL     1       1.835   4.535  18.824  0.00  0.00    +0.000 C 
ATOM     20  C   UNL     1       2.974   5.559  18.807  0.00  0.00    +0.000 C 
BRANCH  20  21
ATOM     21  C   UNL     1       3.926   5.412  17.627  0.00  0.00    +0.000 A 
ATOM     22  C   UNL     1       4.304   4.120  17.218  0.00  0.00    +0.000 A 
ATOM     23  C   UNL     1       5.200   3.932  16.162  0.00  0.00    +0.000 A 
ATOM     24  C   UNL     1       5.733   5.036  15.505  0.00  0.00    +0.000 A 
ATOM     25 CL   UNL     1       6.848   4.810  14.212  0.00  0.00    +0.000 Cl
ATOM     26  C   UNL     1       5.376   6.324  15.894  0.00  0.00    +0.000 A 
ATOM     27  C   UNL     1       4.483   6.512  16.953  0.00  0.00    +0.000 A 
ENDBRANCH  20  21
ENDBRANCH   1  20
TORSDOF 3
ENDMDL
MODEL 4
REMARK VINA RESULT:      -7.1      5.603      7.636
REMARK  Name = 
REMARK  4 active torsions:
REMARK  status: ('A' for Active; 'I' for Inactive)
REMARK    1  A    between atoms: C_1  and  C_2
REMARK    2  A    between atoms: C_2  and  N_3
REMARK    3  A    between atoms: C_2  and  C_19
REMARK    4  A    between atoms: C_9  and  C_10
REMARK                            x       y       z     vdW  Elec       q    Type
REMARK                         _______ _______ _______ _____ _____    ______ ____
ROOT
ATOM      1  N   UNL     1      -0.779  11.504  18.948  0.00  0.00    +0.000 N 
ATOM      2  C   UNL     1      -1.689  10.869  18.144  0.00  0.00    +0.000 C 
ATOM      3  O   UNL     1      -1.341  10.119  17.235  0.00  0.00    +0.000 OA
ATOM      4  N   UNL     1      -3.019  11.186  18.395  0.00  0.00    +0.000 N 
ATOM      5  C   UNL     1      -4.039  10.389  17.709  0.00  0.00    +0.000 C 
ATOM      6  C   UNL     1      -5.299  11.190  17.380  0.00  0.00    +0.000 C 
ATOM      7  C   UNL     1      -5.855  11.977  18.576  0.00  0.00    +0.000 C 
ATOM      8  C   UNL     1      -4.726  12.818  19.184  0.00  0.00    +0.000 C 
ATOM      9  C   UNL     1      -3.478  12.010  19.517  0.00  0.00    +0.000 C 
ATOM     10  H   UNL     1      -1.066  11.655  19.899  0.00  0.00    +0.000 HD
ENDROOT
BRANCH   7  11
ATOM     11  C   UNL     1      -6.578  11.109  19.604  0.00  0.00    +0.000 A 
ATOM     12  C   UNL     1      -6.903  11.604  20.810  0.00  0.00    +0.000 A 
ATOM     13  C   UNL     1      -7.599  10.727  21.763  0.00  0.00    +0.000 A 
ATOM     14  O   UNL     1      -7.916  11.116  22.882  0.00  0.00    +0.000 OA
ATOM     15  N   UNL     1      -7.860   9.469  21.311  0.00  0.00    +0.000 N 
ATOM     16  C   UNL     1      -7.488   9.068  20.068  0.00  0.00    +0.000 A 
ATOM     17  N   UNL     1      -6.869   9.819  19.224  0.00  0.00    +0.000 NA
ATOM     18  H   UNL     1      -8.336   8.844  21.943  0.00  0.00    +0.000 HD
ENDBRANCH   7  11
BRANCH   1  20
ATOM     19  C   UNL     1       1.375  12.449  19.555  0.00  0.00    +0.000 C 
ATOM     20  C   UNL     1       0.655  11.362  18.752  0.00  0.00    +0.000 C 
BRANCH  20  21
ATOM     21  C   UNL     1       1.094   9.944  19.091  0.00  0.00    +0.000 A 
ATOM     22  C   UNL     1       0.867   9.456  20.391  0.00  0.00    +0.000 A 
ATOM     23  C   UNL     1       1.279   8.173  20.762  0.00  0.00    +0.000 A 
ATOM     24  C   UNL     1       1.929   7.363  19.837  0.00  0.00    +0.000 A 
ATOM     25 CL   UNL     1       2.452   5.788  20.293  0.00  0.00    +0.000 Cl
ATOM     26  C   UNL     1       2.168   7.825  18.546  0.00  0.00    +0.000 A 
ATOM     27  C   UNL     1       1.759   9.110  18.176  0.00  0.00    +0.000 A 
ENDBRANCH  20  21
ENDBRANCH   1  20
TORSDOF 3
ENDMDL
MODEL 5
REMARK VINA RESULT:      -7.1      1.641      1.854
REMARK  Name = 
REMARK  4 active torsions:
REMARK  status: ('A' for Active; 'I' for Inactive)
REMARK    1  A    between atoms: C_1  and  C_2
REMARK    2  A    between atoms: C_2  and  N_3
REMARK    3  A    between atoms: C_2  and  C_19
REMARK    4  A    between atoms: C_9  and  C_10
REMARK                            x       y       z     vdW  Elec       q    Type
REMARK                         _______ _______ _______ _____ _____    ______ ____
ROOT
ATOM      1  N   UNL     1       2.220   7.298  19.154  0.00  0.00    +0.000 N 
ATOM      2  C   UNL     1       1.731   8.054  20.188  0.00  0.00    +0.000 C 
ATOM      3  O   UNL     1       1.869   7.716  21.362  0.00  0.00    +0.000 OA
ATOM      4  N   UNL     1       1.021   9.186  19.805  0.00  0.00    +0.000 N 
ATOM      5  C   UNL     1       0.653  10.134  20.860  0.00  0.00    +0.000 C 
ATOM      6  C   UNL     1      -0.675  10.841  20.590  0.00  0.00    +0.000 C 
ATOM      7  C   UNL     1      -0.774  11.441  19.180  0.00  0.00    +0.000 C 
ATOM      8  C   UNL     1      -0.427  10.357  18.152  0.00  0.00    +0.000 C 
ATOM      9  C   UNL     1       0.903   9.665  18.426  0.00  0.00    +0.000 C 
ATOM     10  H   UNL     1       2.529   7.811  18.346  0.00  0.00    +0.000 HD
ENDROOT
BRANCH   7  11
ATOM     11  C   UNL     1       0.037  12.723  18.996  0.00  0.00    +0.000 A 
ATOM     12  C   UNL     1       1.333  12.669  18.651  0.00  0.00    +0.000 A 
ATOM     13  C   UNL     1       2.068  13.933  18.486  0.00  0.00    +0.000 A 
ATOM     14  O   UNL     1       3.256  13.951  18.179  0.00  0.00    +0.000 OA
ATOM     15  N   UNL     1       1.336  15.062  18.697  0.00  0.00    +0.000 N 
ATOM     16  C   UNL     1       0.024  15.005  19.043  0.00  0.00    +0.000 A 
ATOM     17  N   UNL     1      -0.632  13.908  19.202  0.00  0.00    +0.000 NA
ATOM     18  H   UNL     1       1.814  15.944  18.593  0.00  0.00    +0.000 HD
ENDBRANCH   7  11
BRANCH   1  20
ATOM     19  C   UNL     1       1.858   4.975  19.763  0.00  0.00    +0.000 C 
ATOM     20  C   UNL     1       2.898   6.031  19.378  0.00  0.00    +0.000 C 
BRANCH  20  21
ATOM     21  C   UNL     1       3.740   5.664  18.163  0.00  0.00    +0.000 A 
ATOM     22  C   UNL     1       4.343   6.694  17.419  0.00  0.00    +0.000 A 
ATOM     23  C   UNL     1       5.099   6.412  16.279  0.00  0.00    +0.000 A 
ATOM     24  C   UNL     1       5.257   5.094  15.864  0.00  0.00    +0.000 A 
ATOM     25 CL   UNL     1       6.175   4.742  14.452  0.00  0.00    +0.000 Cl
ATOM     26  C   UNL     1       4.667   4.058  16.582  0.00  0.00    +0.000 A 
ATOM     27  C   UNL     1       3.908   4.340  17.722  0.00  0.00    +0.000 A 
ENDBRANCH  20  21
ENDBRANCH   1  20
TORSDOF 3
ENDMDL
MODEL 6
REMARK VINA RESULT:      -7.1      1.535      1.613
REMARK  Name = 
REMARK  4 active torsions:
REMARK  status: ('A' for Active; 'I' for Inactive)
REMARK    1  A    between atoms: C_1  and  C_2
REMARK    2  A    between atoms: C_2  and  N_3
REMARK    3  A    between atoms: C_2  and  C_19
REMARK    4  A    between atoms: C_9  and  C_10
REMARK                            x       y       z     vdW  Elec       q    Type
REMARK                         _______ _______ _______ _____ _____    ______ ____
ROOT
ATOM      1  N   UNL     1       2.273   7.197  18.985  0.00  0.00    +0.000 N 
ATOM      2  C   UNL     1       1.793   7.940  20.033  0.00  0.00    +0.000 C 
ATOM      3  O   UNL     1       1.936   7.585  21.201  0.00  0.00    +0.000 OA
ATOM      4  N   UNL     1       1.087   9.081  19.670  0.00  0.00    +0.000 N 
ATOM      5  C   UNL     1       0.730  10.016  20.740  0.00  0.00    +0.000 C 
ATOM      6  C   UNL     1      -0.596  10.733  20.487  0.00  0.00    +0.000 C 
ATOM      7  C   UNL     1      -0.698  11.355  19.086  0.00  0.00    +0.000 C 
ATOM      8  C   UNL     1      -0.362  10.284  18.042  0.00  0.00    +0.000 C 
ATOM      9  C   UNL     1       0.965   9.581  18.298  0.00  0.00    +0.000 C 
ATOM     10  H   UNL     1       2.581   7.719  18.184  0.00  0.00    +0.000 HD
ENDROOT
BRANCH   7  11
ATOM     11  C   UNL     1       0.119  12.635  18.917  0.00  0.00    +0.000 A 
ATOM     12  C   UNL     1      -0.446  13.838  19.106  0.00  0.00    +0.000 A 
ATOM     13  C   UNL     1       0.385  15.039  18.932  0.00  0.00    +0.000 A 
ATOM     14  O   UNL     1      -0.074  16.166  19.082  0.00  0.00    +0.000 OA
ATOM     15  N   UNL     1       1.683  14.802  18.595  0.00  0.00    +0.000 N 
ATOM     16  C   UNL     1       2.156  13.541  18.428  0.00  0.00    +0.000 A 
ATOM     17  N   UNL     1       1.441  12.478  18.567  0.00  0.00    +0.000 NA
ATOM     18  H   UNL     1       2.277  15.607  18.467  0.00  0.00    +0.000 HD
ENDBRANCH   7  11
BRANCH   1  20
ATOM     19  C   UNL     1       1.895   4.852  19.496  0.00  0.00    +0.000 C 
ATOM     20  C   UNL     1       2.945   5.923  19.187  0.00  0.00    +0.000 C 
BRANCH  20  21
ATOM     21  C   UNL     1       3.831   5.600  17.992  0.00  0.00    +0.000 A 
ATOM     22  C   UNL     1       4.375   6.662  17.245  0.00  0.00    +0.000 A 
ATOM     23  C   UNL     1       5.168   6.419  16.120  0.00  0.00    +0.000 A 
ATOM     24  C   UNL     1       5.423   5.111  15.725  0.00  0.00    +0.000 A 
ATOM     25 CL   UNL     1       6.388   4.806  14.332  0.00  0.00    +0.000 Cl
ATOM     26  C   UNL     1       4.894   4.044  16.446  0.00  0.00    +0.000 A 
ATOM     27  C   UNL     1       4.097   4.287  17.570  0.00  0.00    +0.000 A 
ENDBRANCH  20  21
ENDBRANCH   1  20
TORSDOF 3
ENDMDL
MODEL 7
REMARK VINA RESULT:      -7.0      3.904      8.651
REMARK  Name = 
REMARK  4 active torsions:
REMARK  status: ('A' for Active; 'I' for Inactive)
REMARK    1  A    between atoms: C_1  and  C_2
REMARK    2  A    between atoms: C_2  and  N_3
REMARK    3  A    between atoms: C_2  and  C_19
REMARK    4  A    between atoms: C_9  and  C_10
REMARK                            x       y       z     vdW  Elec       q    Type
REMARK                         _______ _______ _______ _____ _____    ______ ____
ROOT
ATOM      1  N   UNL     1       2.949   7.262  18.251  0.00  0.00    +0.000 N 
ATOM      2  C   UNL     1       3.185   5.924  18.067  0.00  0.00    +0.000 C 
ATOM      3  O   UNL     1       2.401   5.065  18.464  0.00  0.00    +0.000 OA
ATOM      4  N   UNL     1       4.398   5.619  17.460  0.00  0.00    +0.000 N 
ATOM      5  C   UNL     1       4.613   4.227  17.056  0.00  0.00    +0.000 C 
ATOM      6  C   UNL     1       6.076   3.797  17.154  0.00  0.00    +0.000 C 
ATOM      7  C   UNL     1       7.049   4.776  16.480  0.00  0.00    +0.000 C 
ATOM      8  C   UNL     1       6.780   6.189  17.012  0.00  0.00    +0.000 C 
ATOM      9  C   UNL     1       5.320   6.611  16.902  0.00  0.00    +0.000 C 
ATOM     10  H   UNL     1       3.292   7.869  17.527  0.00  0.00    +0.000 HD
ENDROOT
BRANCH   7  11
ATOM     11  C   UNL     1       7.045   4.699  14.954  0.00  0.00    +0.000 A 
ATOM     12  C   UNL     1       6.206   3.870  14.313  0.00  0.00    +0.000 A 
ATOM     13  C   UNL     1       6.243   3.835  12.843  0.00  0.00    +0.000 A 
ATOM     14  O   UNL     1       5.508   3.094  12.198  0.00  0.00    +0.000 OA
ATOM     15  N   UNL     1       7.143   4.678  12.264  0.00  0.00    +0.000 N 
ATOM     16  C   UNL     1       7.947   5.480  13.008  0.00  0.00    +0.000 A 
ATOM     17  N   UNL     1       7.936   5.516  14.296  0.00  0.00    +0.000 NA
ATOM     18  H   UNL     1       7.192   4.675  11.257  0.00  0.00    +0.000 HD
ENDBRANCH   7  11
BRANCH   1  20
ATOM     19  C   UNL     1       1.814   7.224  20.398  0.00  0.00    +0.000 C 
ATOM     20  C   UNL     1       1.776   7.747  18.960  0.00  0.00    +0.000 C 
BRANCH  20  21
ATOM     21  C   UNL     1       1.685   9.263  18.851  0.00  0.00    +0.000 A 
ATOM     22  C   UNL     1       0.837   9.957  19.734  0.00  0.00    +0.000 A 
ATOM     23  C   UNL     1       0.694  11.345  19.654  0.00  0.00    +0.000 A 
ATOM     24  C   UNL     1       1.394  12.057  18.686  0.00  0.00    +0.000 A 
ATOM     25 CL   UNL     1       1.210  13.764  18.574  0.00  0.00    +0.000 Cl
ATOM     26  C   UNL     1       2.236  11.392  17.800  0.00  0.00    +0.000 A 
ATOM     27  C   UNL     1       2.377  10.003  17.877  0.00  0.00    +0.000 A 
ENDBRANCH  20  21
ENDBRANCH   1  20
TORSDOF 3
ENDMDL
MODEL 8
REMARK VINA RESULT:      -6.9      1.318      1.558
REMARK  Name = 
REMARK  4 active torsions:
REMARK  status: ('A' for Active; 'I' for Inactive)
REMARK    1  A    between atoms: C_1  and  C_2
REMARK    2  A    between atoms: C_2  and  N_3
REMARK    3  A    between atoms: C_2  and  C_19
REMARK    4  A    between atoms: C_9  and  C_10
REMARK                            x       y       z     vdW  Elec       q    Type
REMARK                         _______ _______ _______ _____ _____    ______ ____
ROOT
ATOM      1  N   UNL     1       2.040   6.578  18.734  0.00  0.00    +0.000 N 
ATOM      2  C   UNL     1       1.662   7.239  19.875  0.00  0.00    +0.000 C 
ATOM      3  O   UNL     1       1.588   6.671  20.962  0.00  0.00    +0.000 OA
ATOM      4  N   UNL     1       1.315   8.573  19.694  0.00  0.00    +0.000 N 
ATOM      5  C   UNL     1       1.102   9.379  20.899  0.00  0.00    +0.000 C 
ATOM      6  C   UNL     1       0.039  10.461  20.712  0.00  0.00    +0.000 C 
ATOM      7  C   UNL     1       0.244  11.310  19.449  0.00  0.00    +0.000 C 
ATOM      8  C   UNL     1       0.398  10.377  18.242  0.00  0.00    +0.000 C 
ATOM      9  C   UNL     1       1.466   9.307  18.435  0.00  0.00    +0.000 C 
ATOM     10  H   UNL     1       2.552   7.123  18.063  0.00  0.00    +0.000 HD
ENDROOT
BRANCH   7  11
ATOM     11  C   UNL     1       1.376  12.330  19.567  0.00  0.00    +0.000 A 
ATOM     12  C   UNL     1       1.754  12.797  20.768  0.00  0.00    +0.000 A 
ATOM     13  C   UNL     1       2.850  13.776  20.826  0.00  0.00    +0.000 A 
ATOM     14  O   UNL     1       3.237  14.246  21.891  0.00  0.00    +0.000 OA
ATOM     15  N   UNL     1       3.390  14.114  19.622  0.00  0.00    +0.000 N 
ATOM     16  C   UNL     1       2.932  13.580  18.461  0.00  0.00    +0.000 A 
ATOM     17  N   UNL     1       1.968  12.729  18.390  0.00  0.00    +0.000 NA
ATOM     18  H   UNL     1       4.143  14.786  19.630  0.00  0.00    +0.000 HD
ENDBRANCH   7  11
BRANCH   1  20
ATOM     19  C   UNL     1       1.385   4.452  17.760  0.00  0.00    +0.000 C 
ATOM     20  C   UNL     1       2.337   5.155  18.731  0.00  0.00    +0.000 C 
BRANCH  20  21
ATOM     21  C   UNL     1       3.813   4.927  18.432  0.00  0.00    +0.000 A 
ATOM     22  C   UNL     1       4.763   5.260  19.415  0.00  0.00    +0.000 A 
ATOM     23  C   UNL     1       6.131   5.099  19.178  0.00  0.00    +0.000 A 
ATOM     24  C   UNL     1       6.566   4.609  17.952  0.00  0.00    +0.000 A 
ATOM     25 CL   UNL     1       8.250   4.423  17.650  0.00  0.00    +0.000 Cl
ATOM     26  C   UNL     1       5.645   4.275  16.963  0.00  0.00    +0.000 A 
ATOM     27  C   UNL     1       4.276   4.439  17.199  0.00  0.00    +0.000 A 
ENDBRANCH  20  21
ENDBRANCH   1  20
TORSDOF 3
ENDMDL
MODEL 9
REMARK VINA RESULT:      -6.8      5.323      7.263
REMARK  Name = 
REMARK  4 active torsions:
REMARK  status: ('A' for Active; 'I' for Inactive)
REMARK    1  A    between atoms: C_1  and  C_2
REMARK    2  A    between atoms: C_2  and  N_3
REMARK    3  A    between atoms: C_2  and  C_19
REMARK    4  A    between atoms: C_9  and  C_10
REMARK                            x       y       z     vdW  Elec       q    Type
REMARK                         _______ _______ _______ _____ _____    ______ ____
ROOT
ATOM      1  N   UNL     1      -0.106  11.945  19.394  0.00  0.00    +0.000 N 
ATOM      2  C   UNL     1      -1.439  11.913  19.076  0.00  0.00    +0.000 C 
ATOM      3  O   UNL     1      -1.850  11.370  18.053  0.00  0.00    +0.000 OA
ATOM      4  N   UNL     1      -2.271  12.590  19.961  0.00  0.00    +0.000 N 
ATOM      5  C   UNL     1      -3.716  12.419  19.785  0.00  0.00    +0.000 C 
ATOM      6  C   UNL     1      -4.514  13.664  20.168  0.00  0.00    +0.000 C 
ATOM      7  C   UNL     1      -4.139  14.234  21.544  0.00  0.00    +0.000 C 
ATOM      8  C   UNL     1      -2.619  14.429  21.603  0.00  0.00    +0.000 C 
ATOM      9  C   UNL     1      -1.832  13.179  21.228  0.00  0.00    +0.000 C 
ATOM     10  H   UNL     1       0.110  11.918  20.375  0.00  0.00    +0.000 HD
ENDROOT
BRANCH   7  11
ATOM     11  C   UNL     1      -4.686  13.424  22.718  0.00  0.00    +0.000 A 
ATOM     12  C   UNL     1      -5.949  12.967  22.706  0.00  0.00    +0.000 A 
ATOM     13  C   UNL     1      -6.425  12.191  23.861  0.00  0.00    +0.000 A 
ATOM     14  O   UNL     1      -7.570  11.754  23.913  0.00  0.00    +0.000 OA
ATOM     15  N   UNL     1      -5.510  12.002  24.851  0.00  0.00    +0.000 N 
ATOM     16  C   UNL     1      -4.253  12.508  24.764  0.00  0.00    +0.000 A 
ATOM     17  N   UNL     1      -3.821  13.198  23.765  0.00  0.00    +0.000 NA
ATOM     18  H   UNL     1      -5.808  11.475  25.657  0.00  0.00    +0.000 HD
ENDBRANCH   7  11
BRANCH   1  20
ATOM     19  C   UNL     1       2.082  12.353  18.420  0.00  0.00    +0.000 C 
ATOM     20  C   UNL     1       0.909  11.374  18.523  0.00  0.00    +0.000 C 
BRANCH  20  21
ATOM     21  C   UNL     1       1.297   9.984  19.009  0.00  0.00    +0.000 A 
ATOM     22  C   UNL     1       1.943   9.109  18.116  0.00  0.00    +0.000 A 
ATOM     23  C   UNL     1       2.291   7.812  18.503  0.00  0.00    +0.000 A 
ATOM     24  C   UNL     1       1.994   7.372  19.788  0.00  0.00    +0.000 A 
ATOM     25 CL   UNL     1       2.408   5.771  20.265  0.00  0.00    +0.000 Cl
ATOM     26  C   UNL     1       1.353   8.219  20.688  0.00  0.00    +0.000 A 
ATOM     27  C   UNL     1       1.001   9.515  20.300  0.00  0.00    +0.000 A 
ENDBRANCH  20  21
ENDBRANCH   1  20
TORSDOF 3
ENDMDL
