MODEL 1
REMARK VINA RESULT:      -8.2      0.000      0.000
REMARK  Name = 
REMARK  14 active torsions:
REMARK  status: ('A' for Active; 'I' for Inactive)
REMARK    1  A    between atoms: C_1  and  C_2
REMARK    2  A    between atoms: C_5  and  O_6
REMARK    3  A    between atoms: O_6  and  C_7
REMARK    4  A    between atoms: C_7  and  C_8
REMARK    5  A    between atoms: C_8  and  O_9
REMARK    6  A    between atoms: C_8  and  C_10
REMARK    7  A    between atoms: C_10  and  N_11
REMARK    8  A    between atoms: N_11  and  C_12
REMARK    9  A    between atoms: C_12  and  C_13
REMARK   10  A    between atoms: C_12  and  C_14
REMARK   11  A    between atoms: C_14  and  C_15
REMARK   12  A    between atoms: C_15  and  N_16
REMARK   13  A    between atoms: N_23  and  C_24
REMARK   14  A    between atoms: N_27  and  C_28
REMARK                            x       y       z     vdW  Elec       q    Type
REMARK                         _______ _______ _______ _____ _____    ______ ____
ROOT
ATOM      1  N   UNL     1       1.344   4.666  20.122  0.00  0.00    +0.000 NA
ATOM      2  H   UNL     1       1.360   4.238  21.047  0.00  0.00    +0.000 HD
ENDROOT
BRANCH   1   3
ATOM      3  C   UNL     1       2.234   5.832  20.091  0.00  0.00    +0.000 C 
ATOM      4  C   UNL     1       2.374   6.418  18.680  0.00  0.00    +0.000 C 
BRANCH   3   5
ATOM      5  C   UNL     1       1.658   6.921  21.024  0.00  0.00    +0.000 C 
BRANCH   5   6
ATOM      6  C   UNL     1       1.567   8.296  20.357  0.00  0.00    +0.000 C 
BRANCH   6   7
ATOM      7  N   UNL     1       0.844   9.258  21.162  0.00  0.00    +0.000 N 
ATOM      8  C   UNL     1       0.750   9.239  22.530  0.00  0.00    +0.000 A 
ATOM      9  N   UNL     1       0.075  10.276  22.984  0.00  0.00    +0.000 NA
ATOM     10  C   UNL     1      -0.263  10.974  21.864  0.00  0.00    +0.000 A 
ATOM     11  C   UNL     1       0.194  10.377  20.730  0.00  0.00    +0.000 A 
ATOM     12  C   UNL     1      -0.026  10.902  19.429  0.00  0.00    +0.000 A 
ATOM     13  O   UNL     1       0.376  10.347  18.409  0.00  0.00    +0.000 OA
ATOM     14  N   UNL     1      -0.746  12.099  19.445  0.00  0.00    +0.000 N 
ATOM     15  C   UNL     1      -1.030  12.738  18.174  0.00  0.00    +0.000 C 
ATOM     16  C   UNL     1      -1.241  12.746  20.595  0.00  0.00    +0.000 A 
ATOM     17  O   UNL     1      -1.881  13.799  20.506  0.00  0.00    +0.000 OA
ATOM     18  N   UNL     1      -0.978  12.146  21.827  0.00  0.00    +0.000 N 
ATOM     19  C   UNL     1      -1.452  12.746  23.062  0.00  0.00    +0.000 C 
ENDBRANCH   6   7
ENDBRANCH   5   6
ENDBRANCH   3   5
ENDBRANCH   1   3
BRANCH   1  20
ATOM     20  C   UNL     1       1.664   3.602  19.166  0.00  0.00    +0.000 C 
BRANCH  20  21
ATOM     21  C   UNL     1       2.521   2.502  19.841  0.00  0.00    +0.000 C 
BRANCH  21  22
ATOM     22  O   UNL     1       2.463   2.688  21.259  0.00  0.00    +0.000 OA
ATOM     23  H   UNL     1       3.031   3.444  21.485  0.00  0.00    +0.000 HD
ENDBRANCH  21  22
BRANCH  21  24
ATOM     24  C   UNL     1       3.961   2.593  19.311  0.00  0.00    +0.000 C 
BRANCH  24  25
ATOM     25  O   UNL     1       4.049   3.222  18.040  0.00  0.00    +0.000 OA
BRANCH  25  30
ATOM     26  C   UNL     1       7.138   4.664  13.187  0.00  0.00    +0.000 C 
ATOM     27  C   UNL     1       6.796   4.696  14.629  0.00  0.00    +0.000 A 
ATOM     28  C   UNL     1       5.801   4.042  15.321  0.00  0.00    +0.000 A 
ATOM     29  C   UNL     1       5.875   4.390  16.705  0.00  0.00    +0.000 A 
ATOM     30  C   UNL     1       5.159   4.065  17.897  0.00  0.00    +0.000 A 
ATOM     31  C   UNL     1       5.572   4.634  19.114  0.00  0.00    +0.000 A 
ATOM     32  C   UNL     1       6.653   5.509  19.173  0.00  0.00    +0.000 A 
ATOM     33  C   UNL     1       7.364   5.845  18.020  0.00  0.00    +0.000 A 
ATOM     34  C   UNL     1       6.957   5.274  16.808  0.00  0.00    +0.000 A 
ATOM     35  N   UNL     1       7.488   5.442  15.546  0.00  0.00    +0.000 N 
ATOM     36  H   UNL     1       8.280   6.034  15.335  0.00  0.00    +0.000 HD
ENDBRANCH  25  30
ENDBRANCH  24  25
ENDBRANCH  21  24
ENDBRANCH  20  21
ENDBRANCH   1  20
TORSDOF 10
ENDMDL
MODEL 2
REMARK VINA RESULT:      -8.0      1.702      2.964
REMARK  Name = 
REMARK  14 active torsions:
REMARK  status: ('A' for Active; 'I' for Inactive)
REMARK    1  A    between atoms: C_1  and  C_2
REMARK    2  A    between atoms: C_5  and  O_6
REMARK    3  A    between atoms: O_6  and  C_7
REMARK    4  A    between atoms: C_7  and  C_8
REMARK    5  A    between atoms: C_8  and  O_9
REMARK    6  A    between atoms: C_8  and  C_10
REMARK    7  A    between atoms: C_10  and  N_11
REMARK    8  A    between atoms: N_11  and  C_12
REMARK    9  A    between atoms: C_12  and  C_13
REMARK   10  A    between atoms: C_12  and  C_14
REMARK   11  A    between atoms: C_14  and  C_15
REMARK   12  A    between atoms: C_15  and  N_16
REMARK   13  A    between atoms: N_23  and  C_24
REMARK   14  A    between atoms: N_27  and  C_28
REMARK                            x       y       z     vdW  Elec       q    Type
REMARK                         _______ _______ _______ _____ _____    ______ ____
ROOT
ATOM      1  N   UNL     1       1.327   2.716  19.391  0.00  0.00    +0.000 NA
ATOM      2  H   UNL     1       0.482   2.260  19.050  0.00  0.00    +0.000 HD
ENDROOT
BRANCH   1   3
ATOM      3  C   UNL     1       1.014   3.551  20.556  0.00  0.00    +0.000 C 
ATOM      4  C   UNL     1       2.109   3.488  21.628  0.00  0.00    +0.000 C 
BRANCH   3   5
ATOM      5  C   UNL     1       0.863   5.017  20.088  0.00  0.00    +0.000 C 
BRANCH   5   6
ATOM      6  C   UNL     1       2.025   5.910  20.530  0.00  0.00    +0.000 C 
BRANCH   6   7
ATOM      7  N   UNL     1       2.127   7.121  19.744  0.00  0.00    +0.000 N 
ATOM      8  C   UNL     1       2.735   7.225  18.519  0.00  0.00    +0.000 A 
ATOM      9  N   UNL     1       2.619   8.441  18.023  0.00  0.00    +0.000 NA
ATOM     10  C   UNL     1       1.911   9.123  18.964  0.00  0.00    +0.000 A 
ATOM     11  C   UNL     1       1.593   8.343  20.033  0.00  0.00    +0.000 A 
ATOM     12  C   UNL     1       0.858   8.815  21.152  0.00  0.00    +0.000 A 
ATOM     13  O   UNL     1       0.589   8.108  22.120  0.00  0.00    +0.000 OA
ATOM     14  N   UNL     1       0.489  10.157  21.029  0.00  0.00    +0.000 N 
ATOM     15  C   UNL     1      -0.272  10.755  22.109  0.00  0.00    +0.000 C 
ATOM     16  C   UNL     1       0.803  10.999  19.943  0.00  0.00    +0.000 A 
ATOM     17  O   UNL     1       0.441  12.181  19.931  0.00  0.00    +0.000 OA
ATOM     18  N   UNL     1       1.534  10.442  18.894  0.00  0.00    +0.000 N 
ATOM     19  C   UNL     1       1.901  11.240  17.737  0.00  0.00    +0.000 C 
ENDBRANCH   6   7
ENDBRANCH   5   6
ENDBRANCH   3   5
ENDBRANCH   1   3
BRANCH   1  20
ATOM     20  C   UNL     1       2.308   1.652  19.623  0.00  0.00    +0.000 C 
BRANCH  20  21
ATOM     21  C   UNL     1       3.493   1.776  18.634  0.00  0.00    +0.000 C 
BRANCH  21  22
ATOM     22  O   UNL     1       4.084   0.483  18.469  0.00  0.00    +0.000 OA
ATOM     23  H   UNL     1       4.598   0.286  19.271  0.00  0.00    +0.000 HD
ENDBRANCH  21  22
BRANCH  21  24
ATOM     24  C   UNL     1       4.499   2.800  19.182  0.00  0.00    +0.000 C 
BRANCH  24  25
ATOM     25  O   UNL     1       4.253   4.123  18.726  0.00  0.00    +0.000 OA
BRANCH  25  30
ATOM     26  C   UNL     1       6.337   3.904  13.178  0.00  0.00    +0.000 C 
ATOM     27  C   UNL     1       6.317   4.334  14.597  0.00  0.00    +0.000 A 
ATOM     28  C   UNL     1       5.442   4.009  15.610  0.00  0.00    +0.000 A 
ATOM     29  C   UNL     1       5.841   4.671  16.813  0.00  0.00    +0.000 A 
ATOM     30  C   UNL     1       5.373   4.747  18.160  0.00  0.00    +0.000 A 
ATOM     31  C   UNL     1       6.083   5.534  19.082  0.00  0.00    +0.000 A 
ATOM     32  C   UNL     1       7.220   6.243  18.703  0.00  0.00    +0.000 A 
ATOM     33  C   UNL     1       7.692   6.188  17.391  0.00  0.00    +0.000 A 
ATOM     34  C   UNL     1       6.989   5.399  16.473  0.00  0.00    +0.000 A 
ATOM     35  N   UNL     1       7.249   5.179  15.136  0.00  0.00    +0.000 N 
ATOM     36  H   UNL     1       8.023   5.590  14.631  0.00  0.00    +0.000 HD
ENDBRANCH  25  30
ENDBRANCH  24  25
ENDBRANCH  21  24
ENDBRANCH  20  21
ENDBRANCH   1  20
TORSDOF 10
ENDMDL
MODEL 3
REMARK VINA RESULT:      -8.0      1.083      2.090
REMARK  Name = 
REMARK  14 active torsions:
REMARK  status: ('A' for Active; 'I' for Inactive)
REMARK    1  A    between atoms: C_1  and  C_2
REMARK    2  A    between atoms: C_5  and  O_6
REMARK    3  A    between atoms: O_6  and  C_7
REMARK    4  A    between atoms: C_7  and  C_8
REMARK    5  A    between atoms: C_8  and  O_9
REMARK    6  A    between atoms: C_8  and  C_10
REMARK    7  A    between atoms: C_10  and  N_11
REMARK    8  A    between atoms: N_11  and  C_12
REMARK    9  A    between atoms: C_12  and  C_13
REMARK   10  A    between atoms: C_12  and  C_14
REMARK   11  A    between atoms: C_14  and  C_15
REMARK   12  A    between atoms: C_15  and  N_16
REMARK   13  A    between atoms: N_23  and  C_24
REMARK   14  A    between atoms: N_27  and  C_28
REMARK                            x       y       z     vdW  Elec       q    Type
REMARK                         _______ _______ _______ _____ _____    ______ ____
ROOT
ATOM      1  N   UNL     1       1.433   4.785  20.155  0.00  0.00    +0.000 NA
ATOM      2  H   UNL     1       0.925   4.533  21.002  0.00  0.00    +0.000 HD
ENDROOT
BRANCH   1   3
ATOM      3  C   UNL     1       2.074   6.095  20.326  0.00  0.00    +0.000 C 
ATOM      4  C   UNL     1       2.668   6.625  19.014  0.00  0.00    +0.000 C 
BRANCH   3   5
ATOM      5  C   UNL     1       1.016   7.102  20.832  0.00  0.00    +0.000 C 
BRANCH   5   6
ATOM      6  C   UNL     1       1.602   8.481  21.143  0.00  0.00    +0.000 C 
BRANCH   6   7
ATOM      7  N   UNL     1       0.639   9.368  21.762  0.00  0.00    +0.000 N 
ATOM      8  C   UNL     1       0.422   9.488  23.111  0.00  0.00    +0.000 A 
ATOM      9  N   UNL     1      -0.475  10.417  23.377  0.00  0.00    +0.000 NA
ATOM     10  C   UNL     1      -0.831  10.901  22.154  0.00  0.00    +0.000 A 
ATOM     11  C   UNL     1      -0.165  10.279  21.143  0.00  0.00    +0.000 A 
ATOM     12  C   UNL     1      -0.355  10.598  19.772  0.00  0.00    +0.000 A 
ATOM     13  O   UNL     1       0.238  10.021  18.865  0.00  0.00    +0.000 OA
ATOM     14  N   UNL     1      -1.285  11.623  19.580  0.00  0.00    +0.000 N 
ATOM     15  C   UNL     1      -1.562  12.044  18.220  0.00  0.00    +0.000 C 
ATOM     16  C   UNL     1      -1.998  12.288  20.599  0.00  0.00    +0.000 A 
ATOM     17  O   UNL     1      -2.813  13.176  20.327  0.00  0.00    +0.000 OA
ATOM     18  N   UNL     1      -1.745  11.897  21.914  0.00  0.00    +0.000 N 
ATOM     19  C   UNL     1      -2.437  12.529  23.023  0.00  0.00    +0.000 C 
ENDBRANCH   6   7
ENDBRANCH   5   6
ENDBRANCH   3   5
ENDBRANCH   1   3
BRANCH   1  20
ATOM     20  C   UNL     1       2.341   3.672  19.867  0.00  0.00    +0.000 C 
BRANCH  20  21
ATOM     21  C   UNL     1       1.947   2.975  18.541  0.00  0.00    +0.000 C 
BRANCH  21  22
ATOM     22  O   UNL     1       1.878   1.565  18.772  0.00  0.00    +0.000 OA
ATOM     23  H   UNL     1       2.766   1.260  19.021  0.00  0.00    +0.000 HD
ENDBRANCH  21  22
BRANCH  21  24
ATOM     24  C   UNL     1       2.983   3.329  17.463  0.00  0.00    +0.000 C 
BRANCH  24  25
ATOM     25  O   UNL     1       4.221   3.771  18.002  0.00  0.00    +0.000 OA
BRANCH  25  30
ATOM     26  C   UNL     1       8.177   8.181  18.262  0.00  0.00    +0.000 C 
ATOM     27  C   UNL     1       7.458   7.048  17.633  0.00  0.00    +0.000 A 
ATOM     28  C   UNL     1       6.450   6.251  18.129  0.00  0.00    +0.000 A 
ATOM     29  C   UNL     1       6.076   5.288  17.141  0.00  0.00    +0.000 A 
ATOM     30  C   UNL     1       5.133   4.220  17.037  0.00  0.00    +0.000 A 
ATOM     31  C   UNL     1       5.068   3.486  15.841  0.00  0.00    +0.000 A 
ATOM     32  C   UNL     1       5.906   3.776  14.768  0.00  0.00    +0.000 A 
ATOM     33  C   UNL     1       6.838   4.811  14.849  0.00  0.00    +0.000 A 
ATOM     34  C   UNL     1       6.900   5.547  16.039  0.00  0.00    +0.000 A 
ATOM     35  N   UNL     1       7.722   6.606  16.364  0.00  0.00    +0.000 N 
ATOM     36  H   UNL     1       8.419   6.998  15.745  0.00  0.00    +0.000 HD
ENDBRANCH  25  30
ENDBRANCH  24  25
ENDBRANCH  21  24
ENDBRANCH  20  21
ENDBRANCH   1  20
TORSDOF 10
ENDMDL
MODEL 4
REMARK VINA RESULT:      -7.9      1.766      2.974
REMARK  Name = 
REMARK  14 active torsions:
REMARK  status: ('A' for Active; 'I' for Inactive)
REMARK    1  A    between atoms: C_1  and  C_2
REMARK    2  A    between atoms: C_5  and  O_6
REMARK    3  A    between atoms: O_6  and  C_7
REMARK    4  A    between atoms: C_7  and  C_8
REMARK    5  A    between atoms: C_8  and  O_9
REMARK    6  A    between atoms: C_8  and  C_10
REMARK    7  A    between atoms: C_10  and  N_11
REMARK    8  A    between atoms: N_11  and  C_12
REMARK    9  A    between atoms: C_12  and  C_13
REMARK   10  A    between atoms: C_12  and  C_14
REMARK   11  A    between atoms: C_14  and  C_15
REMARK   12  A    between atoms: C_15  and  N_16
REMARK   13  A    between atoms: N_23  and  C_24
REMARK   14  A    between atoms: N_27  and  C_28
REMARK                            x       y       z     vdW  Elec       q    Type
REMARK                         _______ _______ _______ _____ _____    ______ ____
ROOT
ATOM      1  N   UNL     1       1.961   7.021  20.964  0.00  0.00    +0.000 NA
ATOM      2  H   UNL     1       2.805   7.258  21.485  0.00  0.00    +0.000 HD
ENDROOT
BRANCH   1   3
ATOM      3  C   UNL     1       1.051   8.172  20.932  0.00  0.00    +0.000 C 
ATOM      4  C   UNL     1       1.223   9.084  22.154  0.00  0.00    +0.000 C 
BRANCH   3   5
ATOM      5  C   UNL     1       1.339   8.996  19.656  0.00  0.00    +0.000 C 
BRANCH   5   6
ATOM      6  C   UNL     1       0.834  10.438  19.746  0.00  0.00    +0.000 C 
BRANCH   6   7
ATOM      7  N   UNL     1      -0.417  10.635  19.046  0.00  0.00    +0.000 N 
ATOM      8  C   UNL     1      -0.743  10.089  17.831  0.00  0.00    +0.000 A 
ATOM      9  N   UNL     1      -1.973  10.401  17.473  0.00  0.00    +0.000 NA
ATOM     10  C   UNL     1      -2.438  11.166  18.499  0.00  0.00    +0.000 A 
ATOM     11  C   UNL     1      -1.509  11.328  19.480  0.00  0.00    +0.000 A 
ATOM     12  C   UNL     1      -1.743  12.084  20.660  0.00  0.00    +0.000 A 
ATOM     13  O   UNL     1      -0.893  12.239  21.533  0.00  0.00    +0.000 OA
ATOM     14  N   UNL     1      -3.030  12.627  20.706  0.00  0.00    +0.000 N 
ATOM     15  C   UNL     1      -3.393  13.417  21.866  0.00  0.00    +0.000 C 
ATOM     16  C   UNL     1      -4.018  12.487  19.710  0.00  0.00    +0.000 A 
ATOM     17  O   UNL     1      -5.127  13.018  19.836  0.00  0.00    +0.000 OA
ATOM     18  N   UNL     1      -3.688  11.730  18.586  0.00  0.00    +0.000 N 
ATOM     19  C   UNL     1      -4.646  11.536  17.512  0.00  0.00    +0.000 C 
ENDBRANCH   6   7
ENDBRANCH   5   6
ENDBRANCH   3   5
ENDBRANCH   1   3
BRANCH   1  20
ATOM     20  C   UNL     1       2.404   6.531  19.656  0.00  0.00    +0.000 C 
BRANCH  20  21
ATOM     21  C   UNL     1       2.120   5.015  19.517  0.00  0.00    +0.000 C 
BRANCH  21  22
ATOM     22  O   UNL     1       2.527   4.364  20.724  0.00  0.00    +0.000 OA
ATOM     23  H   UNL     1       3.404   3.973  20.571  0.00  0.00    +0.000 HD
ENDBRANCH  21  22
BRANCH  21  24
ATOM     24  C   UNL     1       2.874   4.474  18.293  0.00  0.00    +0.000 C 
BRANCH  24  25
ATOM     25  O   UNL     1       4.077   3.798  18.632  0.00  0.00    +0.000 OA
BRANCH  25  30
ATOM     26  C   UNL     1       6.496   4.080  13.225  0.00  0.00    +0.000 C 
ATOM     27  C   UNL     1       6.394   4.368  14.675  0.00  0.00    +0.000 A 
ATOM     28  C   UNL     1       5.454   3.965  15.597  0.00  0.00    +0.000 A 
ATOM     29  C   UNL     1       5.788   4.497  16.881  0.00  0.00    +0.000 A 
ATOM     30  C   UNL     1       5.239   4.450  18.199  0.00  0.00    +0.000 A 
ATOM     31  C   UNL     1       5.902   5.128  19.235  0.00  0.00    +0.000 A 
ATOM     32  C   UNL     1       7.071   5.846  18.998  0.00  0.00    +0.000 A 
ATOM     33  C   UNL     1       7.622   5.910  17.717  0.00  0.00    +0.000 A 
ATOM     34  C   UNL     1       6.965   5.230  16.685  0.00  0.00    +0.000 A 
ATOM     35  N   UNL     1       7.304   5.137  15.351  0.00  0.00    +0.000 N 
ATOM     36  H   UNL     1       8.114   5.578  14.936  0.00  0.00    +0.000 HD
ENDBRANCH  25  30
ENDBRANCH  24  25
ENDBRANCH  21  24
ENDBRANCH  20  21
ENDBRANCH   1  20
TORSDOF 10
ENDMDL
MODEL 5
REMARK VINA RESULT:      -7.8      2.584      9.010
REMARK  Name = 
REMARK  14 active torsions:
REMARK  status: ('A' for Active; 'I' for Inactive)
REMARK    1  A    between atoms: C_1  and  C_2
REMARK    2  A    between atoms: C_5  and  O_6
REMARK    3  A    between atoms: O_6  and  C_7
REMARK    4  A    between atoms: C_7  and  C_8
REMARK    5  A    between atoms: C_8  and  O_9
REMARK    6  A    between atoms: C_8  and  C_10
REMARK    7  A    between atoms: C_10  and  N_11
REMARK    8  A    between atoms: N_11  and  C_12
REMARK    9  A    between atoms: C_12  and  C_13
REMARK   10  A    between atoms: C_12  and  C_14
REMARK   11  A    between atoms: C_14  and  C_15
REMARK   12  A    between atoms: C_15  and  N_16
REMARK   13  A    between atoms: N_23  and  C_24
REMARK   14  A    between atoms: N_27  and  C_28
REMARK                            x       y       z     vdW  Elec       q    Type
REMARK                         _______ _______ _______ _____ _____    ______ ____
ROOT
ATOM      1  N   UNL     1       1.860   5.562  19.076  0.00  0.00    +0.000 NA
ATOM      2  H   UNL     1       2.426   5.064  18.390  0.00  0.00    +0.000 HD
ENDROOT
BRANCH   1   3
ATOM      3  C   UNL     1       1.751   4.771  20.307  0.00  0.00    +0.000 C 
ATOM      4  C   UNL     1       0.869   3.528  20.123  0.00  0.00    +0.000 C 
BRANCH   3   5
ATOM      5  C   UNL     1       3.166   4.314  20.731  0.00  0.00    +0.000 C 
BRANCH   5   6
ATOM      6  C   UNL     1       3.630   3.049  20.006  0.00  0.00    +0.000 C 
BRANCH   6   7
ATOM      7  N   UNL     1       4.008   3.302  18.631  0.00  0.00    +0.000 N 
ATOM      8  C   UNL     1       3.368   2.803  17.526  0.00  0.00    +0.000 A 
ATOM      9  N   UNL     1       3.906   3.252  16.410  0.00  0.00    +0.000 NA
ATOM     10  C   UNL     1       4.917   4.064  16.827  0.00  0.00    +0.000 A 
ATOM     11  C   UNL     1       5.006   4.117  18.184  0.00  0.00    +0.000 A 
ATOM     12  C   UNL     1       5.977   4.892  18.872  0.00  0.00    +0.000 A 
ATOM     13  O   UNL     1       6.061   4.921  20.097  0.00  0.00    +0.000 OA
ATOM     14  N   UNL     1       6.816   5.599  18.006  0.00  0.00    +0.000 N 
ATOM     15  C   UNL     1       7.848   6.434  18.591  0.00  0.00    +0.000 C 
ATOM     16  C   UNL     1       6.759   5.568  16.598  0.00  0.00    +0.000 A 
ATOM     17  O   UNL     1       7.556   6.221  15.916  0.00  0.00    +0.000 OA
ATOM     18  N   UNL     1       5.773   4.770  16.017  0.00  0.00    +0.000 N 
ATOM     19  C   UNL     1       5.645   4.680  14.574  0.00  0.00    +0.000 C 
ENDBRANCH   6   7
ENDBRANCH   5   6
ENDBRANCH   3   5
ENDBRANCH   1   3
BRANCH   1  20
ATOM     20  C   UNL     1       2.464   6.888  19.230  0.00  0.00    +0.000 C 
BRANCH  20  21
ATOM     21  C   UNL     1       2.540   7.615  17.864  0.00  0.00    +0.000 C 
BRANCH  21  22
ATOM     22  O   UNL     1       3.863   7.460  17.341  0.00  0.00    +0.000 OA
ATOM     23  H   UNL     1       3.856   7.763  16.418  0.00  0.00    +0.000 HD
ENDBRANCH  21  22
BRANCH  21  24
ATOM     24  C   UNL     1       2.173   9.093  18.062  0.00  0.00    +0.000 C 
BRANCH  24  25
ATOM     25  O   UNL     1       1.237   9.301  19.111  0.00  0.00    +0.000 OA
BRANCH  25  30
ATOM     26  C   UNL     1      -3.653  10.529  15.989  0.00  0.00    +0.000 C 
ATOM     27  C   UNL     1      -2.532  10.823  16.913  0.00  0.00    +0.000 A 
ATOM     28  C   UNL     1      -1.513  10.011  17.358  0.00  0.00    +0.000 A 
ATOM     29  C   UNL     1      -0.664  10.752  18.239  0.00  0.00    +0.000 A 
ATOM     30  C   UNL     1       0.516  10.497  19.002  0.00  0.00    +0.000 A 
ATOM     31  C   UNL     1       1.070  11.539  19.764  0.00  0.00    +0.000 A 
ATOM     32  C   UNL     1       0.486  12.803  19.793  0.00  0.00    +0.000 A 
ATOM     33  C   UNL     1      -0.670  13.073  19.060  0.00  0.00    +0.000 A 
ATOM     34  C   UNL     1      -1.219  12.037  18.296  0.00  0.00    +0.000 A 
ATOM     35  N   UNL     1      -2.341  12.049  17.492  0.00  0.00    +0.000 N 
ATOM     36  H   UNL     1      -2.935  12.856  17.355  0.00  0.00    +0.000 HD
ENDBRANCH  25  30
ENDBRANCH  24  25
ENDBRANCH  21  24
ENDBRANCH  20  21
ENDBRANCH   1  20
TORSDOF 10
ENDMDL
MODEL 6
REMARK VINA RESULT:      -7.8      1.424      2.317
REMARK  Name = 
REMARK  14 active torsions:
REMARK  status: ('A' for Active; 'I' for Inactive)
REMARK    1  A    between atoms: C_1  and  C_2
REMARK    2  A    between atoms: C_5  and  O_6
REMARK    3  A    between atoms: O_6  and  C_7
REMARK    4  A    between atoms: C_7  and  C_8
REMARK    5  A    between atoms: C_8  and  O_9
REMARK    6  A    between atoms: C_8  and  C_10
REMARK    7  A    between atoms: C_10  and  N_11
REMARK    8  A    between atoms: N_11  and  C_12
REMARK    9  A    between atoms: C_12  and  C_13
REMARK   10  A    between atoms: C_12  and  C_14
REMARK   11  A    between atoms: C_14  and  C_15
REMARK   12  A    between atoms: C_15  and  N_16
REMARK   13  A    between atoms: N_23  and  C_24
REMARK   14  A    between atoms: N_27  and  C_28
REMARK                            x       y       z     vdW  Elec       q    Type
REMARK                         _______ _______ _______ _____ _____    ______ ____
ROOT
ATOM      1  N   UNL     1       2.843   5.257  19.559  0.00  0.00    +0.000 NA
ATOM      2  H   UNL     1       3.843   5.080  19.647  0.00  0.00    +0.000 HD
ENDROOT
BRANCH   1   3
ATOM      3  C   UNL     1       2.497   5.499  18.153  0.00  0.00    +0.000 C 
ATOM      4  C   UNL     1       1.387   4.562  17.659  0.00  0.00    +0.000 C 
BRANCH   3   5
ATOM      5  C   UNL     1       2.013   6.960  18.007  0.00  0.00    +0.000 C 
BRANCH   5   6
ATOM      6  C   UNL     1       2.102   7.755  19.311  0.00  0.00    +0.000 C 
BRANCH   6   7
ATOM      7  N   UNL     1       1.666   9.127  19.158  0.00  0.00    +0.000 N 
ATOM      8  C   UNL     1       1.894   9.916  18.059  0.00  0.00    +0.000 A 
ATOM      9  N   UNL     1       1.327  11.099  18.186  0.00  0.00    +0.000 NA
ATOM     10  C   UNL     1       0.717  11.052  19.403  0.00  0.00    +0.000 A 
ATOM     11  C   UNL     1       0.906   9.856  20.024  0.00  0.00    +0.000 A 
ATOM     12  C   UNL     1       0.374   9.550  21.306  0.00  0.00    +0.000 A 
ATOM     13  O   UNL     1       0.562   8.474  21.867  0.00  0.00    +0.000 OA
ATOM     14  N   UNL     1      -0.370  10.603  21.846  0.00  0.00    +0.000 N 
ATOM     15  C   UNL     1      -0.970  10.410  23.152  0.00  0.00    +0.000 C 
ATOM     16  C   UNL     1      -0.583  11.856  21.238  0.00  0.00    +0.000 A 
ATOM     17  O   UNL     1      -1.248  12.731  21.803  0.00  0.00    +0.000 OA
ATOM     18  N   UNL     1      -0.014  12.061  19.981  0.00  0.00    +0.000 N 
ATOM     19  C   UNL     1      -0.184  13.323  19.284  0.00  0.00    +0.000 C 
ENDBRANCH   6   7
ENDBRANCH   5   6
ENDBRANCH   3   5
ENDBRANCH   1   3
BRANCH   1  20
ATOM     20  C   UNL     1       2.163   4.122  20.190  0.00  0.00    +0.000 C 
BRANCH  20  21
ATOM     21  C   UNL     1       3.131   2.923  20.344  0.00  0.00    +0.000 C 
BRANCH  21  22
ATOM     22  O   UNL     1       3.052   2.447  21.691  0.00  0.00    +0.000 OA
ATOM     23  H   UNL     1       3.889   1.998  21.899  0.00  0.00    +0.000 HD
ENDBRANCH  21  22
BRANCH  21  24
ATOM     24  C   UNL     1       4.553   3.377  19.981  0.00  0.00    +0.000 C 
BRANCH  24  25
ATOM     25  O   UNL     1       4.866   3.187  18.608  0.00  0.00    +0.000 OA
BRANCH  25  30
ATOM     26  C   UNL     1       6.612   4.096  13.014  0.00  0.00    +0.000 C 
ATOM     27  C   UNL     1       6.549   4.368  14.469  0.00  0.00    +0.000 A 
ATOM     28  C   UNL     1       5.862   3.712  15.466  0.00  0.00    +0.000 A 
ATOM     29  C   UNL     1       6.121   4.347  16.721  0.00  0.00    +0.000 A 
ATOM     30  C   UNL     1       5.727   4.159  18.080  0.00  0.00    +0.000 A 
ATOM     31  C   UNL     1       6.232   5.029  19.060  0.00  0.00    +0.000 A 
ATOM     32  C   UNL     1       7.096   6.070  18.728  0.00  0.00    +0.000 A 
ATOM     33  C   UNL     1       7.490   6.275  17.404  0.00  0.00    +0.000 A 
ATOM     34  C   UNL     1       6.992   5.404  16.428  0.00  0.00    +0.000 A 
ATOM     35  N   UNL     1       7.228   5.394  15.069  0.00  0.00    +0.000 N 
ATOM     36  H   UNL     1       7.823   6.057  14.589  0.00  0.00    +0.000 HD
ENDBRANCH  25  30
ENDBRANCH  24  25
ENDBRANCH  21  24
ENDBRANCH  20  21
ENDBRANCH   1  20
TORSDOF 10
ENDMDL
MODEL 7
REMARK VINA RESULT:      -7.8      1.907      3.578
REMARK  Name = 
REMARK  14 active torsions:
REMARK  status: ('A' for Active; 'I' for Inactive)
REMARK    1  A    between atoms: C_1  and  C_2
REMARK    2  A    between atoms: C_5  and  O_6
REMARK    3  A    between atoms: O_6  and  C_7
REMARK    4  A    between atoms: C_7  and  C_8
REMARK    5  A    between atoms: C_8  and  O_9
REMARK    6  A    between atoms: C_8  and  C_10
REMARK    7  A    between atoms: C_10  and  N_11
REMARK    8  A    between atoms: N_11  and  C_12
REMARK    9  A    between atoms: C_12  and  C_13
REMARK   10  A    between atoms: C_12  and  C_14
REMARK   11  A    between atoms: C_14  and  C_15
REMARK   12  A    between atoms: C_15  and  N_16
REMARK   13  A    between atoms: N_23  and  C_24
REMARK   14  A    between atoms: N_27  and  C_28
REMARK                            x       y       z     vdW  Elec       q    Type
REMARK                         _______ _______ _______ _____ _____    ______ ____
ROOT
ATOM      1  N   UNL     1       2.711   2.805  18.118  0.00  0.00    +0.000 NA
ATOM      2  H   UNL     1       2.650   2.254  17.262  0.00  0.00    +0.000 HD
ENDROOT
BRANCH   1   3
ATOM      3  C   UNL     1       1.556   3.704  18.221  0.00  0.00    +0.000 C 
ATOM      4  C   UNL     1       0.959   3.725  19.634  0.00  0.00    +0.000 C 
BRANCH   3   5
ATOM      5  C   UNL     1       2.009   5.136  17.854  0.00  0.00    +0.000 C 
BRANCH   5   6
ATOM      6  C   UNL     1       2.309   6.002  19.080  0.00  0.00    +0.000 C 
BRANCH   6   7
ATOM      7  N   UNL     1       2.130   7.416  18.821  0.00  0.00    +0.000 N 
ATOM      8  C   UNL     1       2.367   8.040  17.623  0.00  0.00    +0.000 A 
ATOM      9  N   UNL     1       2.060   9.321  17.675  0.00  0.00    +0.000 NA
ATOM     10  C   UNL     1       1.610   9.508  18.947  0.00  0.00    +0.000 A 
ATOM     11  C   UNL     1       1.640   8.359  19.676  0.00  0.00    +0.000 A 
ATOM     12  C   UNL     1       1.224   8.284  21.032  0.00  0.00    +0.000 A 
ATOM     13  O   UNL     1       1.270   7.246  21.687  0.00  0.00    +0.000 OA
ATOM     14  N   UNL     1       0.772   9.510  21.526  0.00  0.00    +0.000 N 
ATOM     15  C   UNL     1       0.315   9.561  22.902  0.00  0.00    +0.000 C 
ATOM     16  C   UNL     1       0.730  10.722  20.807  0.00  0.00    +0.000 A 
ATOM     17  O   UNL     1       0.325  11.761  21.338  0.00  0.00    +0.000 OA
ATOM     18  N   UNL     1       1.167  10.692  19.482  0.00  0.00    +0.000 N 
ATOM     19  C   UNL     1       1.158  11.896  18.670  0.00  0.00    +0.000 C 
ENDBRANCH   6   7
ENDBRANCH   5   6
ENDBRANCH   3   5
ENDBRANCH   1   3
BRANCH   1  20
ATOM     20  C   UNL     1       2.865   1.848  19.217  0.00  0.00    +0.000 C 
BRANCH  20  21
ATOM     21  C   UNL     1       4.087   2.216  20.094  0.00  0.00    +0.000 C 
BRANCH  21  22
ATOM     22  O   UNL     1       3.660   2.295  21.458  0.00  0.00    +0.000 OA
ATOM     23  H   UNL     1       3.208   1.463  21.677  0.00  0.00    +0.000 HD
ENDBRANCH  21  22
BRANCH  21  24
ATOM     24  C   UNL     1       4.675   3.548  19.601  0.00  0.00    +0.000 C 
BRANCH  24  25
ATOM     25  O   UNL     1       5.820   3.381  18.776  0.00  0.00    +0.000 OA
BRANCH  25  30
ATOM     26  C   UNL     1       8.666   8.581  18.620  0.00  0.00    +0.000 C 
ATOM     27  C   UNL     1       7.834   7.481  18.078  0.00  0.00    +0.000 A 
ATOM     28  C   UNL     1       7.413   6.312  18.671  0.00  0.00    +0.000 A 
ATOM     29  C   UNL     1       6.620   5.566  17.743  0.00  0.00    +0.000 A 
ATOM     30  C   UNL     1       5.920   4.322  17.743  0.00  0.00    +0.000 A 
ATOM     31  C   UNL     1       5.224   3.936  16.585  0.00  0.00    +0.000 A 
ATOM     32  C   UNL     1       5.215   4.736  15.446  0.00  0.00    +0.000 A 
ATOM     33  C   UNL     1       5.897   5.953  15.422  0.00  0.00    +0.000 A 
ATOM     34  C   UNL     1       6.586   6.341  16.578  0.00  0.00    +0.000 A 
ATOM     35  N   UNL     1       7.326   7.483  16.807  0.00  0.00    +0.000 N 
ATOM     36  H   UNL     1       7.468   8.217  16.125  0.00  0.00    +0.000 HD
ENDBRANCH  25  30
ENDBRANCH  24  25
ENDBRANCH  21  24
ENDBRANCH  20  21
ENDBRANCH   1  20
TORSDOF 10
ENDMDL
MODEL 8
REMARK VINA RESULT:      -7.7      1.607      2.990
REMARK  Name = 
REMARK  14 active torsions:
REMARK  status: ('A' for Active; 'I' for Inactive)
REMARK    1  A    between atoms: C_1  and  C_2
REMARK    2  A    between atoms: C_5  and  O_6
REMARK    3  A    between atoms: O_6  and  C_7
REMARK    4  A    between atoms: C_7  and  C_8
REMARK    5  A    between atoms: C_8  and  O_9
REMARK    6  A    between atoms: C_8  and  C_10
REMARK    7  A    between atoms: C_10  and  N_11
REMARK    8  A    between atoms: N_11  and  C_12
REMARK    9  A    between atoms: C_12  and  C_13
REMARK   10  A    between atoms: C_12  and  C_14
REMARK   11  A    between atoms: C_14  and  C_15
REMARK   12  A    between atoms: C_15  and  N_16
REMARK   13  A    between atoms: N_23  and  C_24
REMARK   14  A    between atoms: N_27  and  C_28
REMARK                            x       y       z     vdW  Elec       q    Type
REMARK                         _______ _______ _______ _____ _____    ______ ____
ROOT
ATOM      1  N   UNL     1       0.864   3.863  19.794  0.00  0.00    +0.000 NA
ATOM      2  H   UNL     1       0.856   2.862  19.982  0.00  0.00    +0.000 HD
ENDROOT
BRANCH   1   3
ATOM      3  C   UNL     1       1.601   4.568  20.850  0.00  0.00    +0.000 C 
ATOM      4  C   UNL     1       2.884   3.830  21.255  0.00  0.00    +0.000 C 
BRANCH   3   5
ATOM      5  C   UNL     1       1.982   5.975  20.335  0.00  0.00    +0.000 C 
BRANCH   5   6
ATOM      6  C   UNL     1       1.260   7.101  21.078  0.00  0.00    +0.000 C 
BRANCH   6   7
ATOM      7  N   UNL     1       1.272   8.350  20.345  0.00  0.00    +0.000 N 
ATOM      8  C   UNL     1       1.823   8.537  19.103  0.00  0.00    +0.000 A 
ATOM      9  N   UNL     1       1.630   9.766  18.668  0.00  0.00    +0.000 NA
ATOM     10  C   UNL     1       0.930  10.371  19.667  0.00  0.00    +0.000 A 
ATOM     11  C   UNL     1       0.694   9.530  20.710  0.00  0.00    +0.000 A 
ATOM     12  C   UNL     1      -0.015   9.916  21.879  0.00  0.00    +0.000 A 
ATOM     13  O   UNL     1      -0.209   9.155  22.823  0.00  0.00    +0.000 OA
ATOM     14  N   UNL     1      -0.452  11.243  21.831  0.00  0.00    +0.000 N 
ATOM     15  C   UNL     1      -1.194  11.754  22.967  0.00  0.00    +0.000 C 
ATOM     16  C   UNL     1      -0.223  12.146  20.774  0.00  0.00    +0.000 A 
ATOM     17  O   UNL     1      -0.640  13.308  20.831  0.00  0.00    +0.000 OA
ATOM     18  N   UNL     1       0.490  11.672  19.672  0.00  0.00    +0.000 N 
ATOM     19  C   UNL     1       0.769  12.536  18.540  0.00  0.00    +0.000 C 
ENDBRANCH   6   7
ENDBRANCH   5   6
ENDBRANCH   3   5
ENDBRANCH   1   3
BRANCH   1  20
ATOM     20  C   UNL     1       1.395   4.027  18.438  0.00  0.00    +0.000 C 
BRANCH  20  21
ATOM     21  C   UNL     1       2.021   2.703  17.933  0.00  0.00    +0.000 C 
BRANCH  21  22
ATOM     22  O   UNL     1       1.725   1.672  18.880  0.00  0.00    +0.000 OA
ATOM     23  H   UNL     1       2.540   1.477  19.373  0.00  0.00    +0.000 HD
ENDBRANCH  21  22
BRANCH  21  24
ATOM     24  C   UNL     1       3.534   2.900  17.755  0.00  0.00    +0.000 C 
BRANCH  24  25
ATOM     25  O   UNL     1       3.922   4.266  17.743  0.00  0.00    +0.000 OA
BRANCH  25  30
ATOM     26  C   UNL     1       8.183   8.377  18.085  0.00  0.00    +0.000 C 
ATOM     27  C   UNL     1       7.445   7.245  17.476  0.00  0.00    +0.000 A 
ATOM     28  C   UNL     1       6.325   6.576  17.917  0.00  0.00    +0.000 A 
ATOM     29  C   UNL     1       5.981   5.554  16.978  0.00  0.00    +0.000 A 
ATOM     30  C   UNL     1       4.969   4.554  16.857  0.00  0.00    +0.000 A 
ATOM     31  C   UNL     1       4.972   3.718  15.728  0.00  0.00    +0.000 A 
ATOM     32  C   UNL     1       5.943   3.843  14.738  0.00  0.00    +0.000 A 
ATOM     33  C   UNL     1       6.945   4.810  14.838  0.00  0.00    +0.000 A 
ATOM     34  C   UNL     1       6.939   5.647  15.961  0.00  0.00    +0.000 A 
ATOM     35  N   UNL     1       7.806   6.669  16.288  0.00  0.00    +0.000 N 
ATOM     36  H   UNL     1       8.598   6.948  15.723  0.00  0.00    +0.000 HD
ENDBRANCH  25  30
ENDBRANCH  24  25
ENDBRANCH  21  24
ENDBRANCH  20  21
ENDBRANCH   1  20
TORSDOF 10
ENDMDL
MODEL 9
REMARK VINA RESULT:      -7.7      1.662      2.801
REMARK  Name = 
REMARK  14 active torsions:
REMARK  status: ('A' for Active; 'I' for Inactive)
REMARK    1  A    between atoms: C_1  and  C_2
REMARK    2  A    between atoms: C_5  and  O_6
REMARK    3  A    between atoms: O_6  and  C_7
REMARK    4  A    between atoms: C_7  and  C_8
REMARK    5  A    between atoms: C_8  and  O_9
REMARK    6  A    between atoms: C_8  and  C_10
REMARK    7  A    between atoms: C_10  and  N_11
REMARK    8  A    between atoms: N_11  and  C_12
REMARK    9  A    between atoms: C_12  and  C_13
REMARK   10  A    between atoms: C_12  and  C_14
REMARK   11  A    between atoms: C_14  and  C_15
REMARK   12  A    between atoms: C_15  and  N_16
REMARK   13  A    between atoms: N_23  and  C_24
REMARK   14  A    between atoms: N_27  and  C_28
REMARK                            x       y       z     vdW  Elec       q    Type
REMARK                         _______ _______ _______ _____ _____    ______ ____
ROOT
ATOM      1  N   UNL     1       0.908   3.366  19.703  0.00  0.00    +0.000 NA
ATOM      2  H   UNL     1       0.035   2.861  19.855  0.00  0.00    +0.000 HD
ENDROOT
BRANCH   1   3
ATOM      3  C   UNL     1       1.480   3.780  20.990  0.00  0.00    +0.000 C 
ATOM      4  C   UNL     1       2.482   2.755  21.537  0.00  0.00    +0.000 C 
BRANCH   3   5
ATOM      5  C   UNL     1       2.208   5.130  20.798  0.00  0.00    +0.000 C 
BRANCH   5   6
ATOM      6  C   UNL     1       1.309   6.339  21.065  0.00  0.00    +0.000 C 
BRANCH   6   7
ATOM      7  N   UNL     1       1.615   7.462  20.203  0.00  0.00    +0.000 N 
ATOM      8  C   UNL     1       2.348   7.399  19.046  0.00  0.00    +0.000 A 
ATOM      9  N   UNL     1       2.411   8.571  18.447  0.00  0.00    +0.000 NA
ATOM     10  C   UNL     1       1.688   9.399  19.252  0.00  0.00    +0.000 A 
ATOM     11  C   UNL     1       1.186   8.749  20.338  0.00  0.00    +0.000 A 
ATOM     12  C   UNL     1       0.398   9.387  21.332  0.00  0.00    +0.000 A 
ATOM     13  O   UNL     1      -0.038   8.797  22.318  0.00  0.00    +0.000 OA
ATOM     14  N   UNL     1       0.186  10.742  21.066  0.00  0.00    +0.000 N 
ATOM     15  C   UNL     1      -0.611  11.503  22.010  0.00  0.00    +0.000 C 
ATOM     16  C   UNL     1       0.692  11.452  19.958  0.00  0.00    +0.000 A 
ATOM     17  O   UNL     1       0.459  12.657  19.817  0.00  0.00    +0.000 OA
ATOM     18  N   UNL     1       1.461  10.737  19.040  0.00  0.00    +0.000 N 
ATOM     19  C   UNL     1       2.021  11.391  17.871  0.00  0.00    +0.000 C 
ENDBRANCH   6   7
ENDBRANCH   5   6
ENDBRANCH   3   5
ENDBRANCH   1   3
BRANCH   1  20
ATOM     20  C   UNL     1       1.757   2.493  18.888  0.00  0.00    +0.000 C 
BRANCH  20  21
ATOM     21  C   UNL     1       2.680   3.332  17.970  0.00  0.00    +0.000 C 
BRANCH  21  22
ATOM     22  O   UNL     1       2.151   3.297  16.640  0.00  0.00    +0.000 OA
ATOM     23  H   UNL     1       1.224   3.588  16.680  0.00  0.00    +0.000 HD
ENDBRANCH  21  22
BRANCH  21  24
ATOM     24  C   UNL     1       4.104   2.760  18.034  0.00  0.00    +0.000 C 
BRANCH  24  25
ATOM     25  O   UNL     1       4.968   3.508  18.879  0.00  0.00    +0.000 OA
BRANCH  25  30
ATOM     26  C   UNL     1       6.335   3.811  13.116  0.00  0.00    +0.000 C 
ATOM     27  C   UNL     1       6.369   4.236  14.536  0.00  0.00    +0.000 A 
ATOM     28  C   UNL     1       5.751   3.692  15.640  0.00  0.00    +0.000 A 
ATOM     29  C   UNL     1       6.092   4.456  16.800  0.00  0.00    +0.000 A 
ATOM     30  C   UNL     1       5.789   4.414  18.195  0.00  0.00    +0.000 A 
ATOM     31  C   UNL     1       6.356   5.382  19.041  0.00  0.00    +0.000 A 
ATOM     32  C   UNL     1       7.193   6.377  18.543  0.00  0.00    +0.000 A 
ATOM     33  C   UNL     1       7.498   6.440  17.183  0.00  0.00    +0.000 A 
ATOM     34  C   UNL     1       6.938   5.472  16.340  0.00  0.00    +0.000 A 
ATOM     35  N   UNL     1       7.083   5.317  14.977  0.00  0.00    +0.000 N 
ATOM     36  H   UNL     1       7.644   5.922  14.391  0.00  0.00    +0.000 HD
ENDBRANCH  25  30
ENDBRANCH  24  25
ENDBRANCH  21  24
ENDBRANCH  20  21
ENDBRANCH   1  20
TORSDOF 10
ENDMDL
