MODEL 1
REMARK VINA RESULT:      -5.6      0.000      0.000
REMARK  Name = 
REMARK  5 active torsions:
REMARK  status: ('A' for Active; 'I' for Inactive)
REMARK    1  A    between atoms: C_2  and  C_3
REMARK    2  A    between atoms: C_3  and  N_4
REMARK    3  A    between atoms: N_4  and  C_5
REMARK    4  A    between atoms: C_5  and  C_6
REMARK    5  A    between atoms: C_5  and  C_11
REMARK                            x       y       z     vdW  Elec       q    Type
REMARK                         _______ _______ _______ _____ _____    ______ ____
ROOT
ATOM      1  C   UNL     1       6.096   5.286  17.697  0.00  0.00    +0.000 C 
ENDROOT
BRANCH   1   2
ATOM      2  C   UNL     1       4.823   5.651  18.512  0.00  0.00    +0.000 C 
ATOM      3  C   UNL     1       3.829   6.531  17.748  0.00  0.00    +0.000 C 
ATOM      4  C   UNL     1       2.433   6.111  18.183  0.00  0.00    +0.000 C 
ATOM      5  C   UNL     1       2.566   4.852  19.026  0.00  0.00    +0.000 C 
ATOM      6  C   UNL     1       4.026   4.431  18.993  0.00  0.00    +0.000 C 
ENDBRANCH   1   2
BRANCH   1   7
ATOM      7  C   UNL     1       7.420   5.538  18.522  0.00  0.00    +0.000 C 
ATOM      8  F   UNL     1       7.177   5.538  19.855  0.00  0.00    +0.000 F 
ATOM      9  F   UNL     1       8.309   4.542  18.287  0.00  0.00    +0.000 F 
ATOM     10  F   UNL     1       8.036   6.703  18.231  0.00  0.00    +0.000 F 
ENDBRANCH   1   7
BRANCH   1  11
ATOM     11  N   UNL     1       6.043   3.912  17.105  0.00  0.00    +0.000 NA
ATOM     12  H   UNL     1       6.892   3.410  17.387  0.00  0.00    +0.000 HD
BRANCH  11  13
ATOM     13  C   UNL     1       5.923   3.856  15.643  0.00  0.00    +0.000 C 
BRANCH  13  15
ATOM     14  N   UNL     1       7.678   5.440  14.437  0.00  0.00    +0.000 NA
ATOM     15  C   UNL     1       6.911   4.733  14.962  0.00  0.00    +0.000 C 
ENDBRANCH  13  15
ENDBRANCH  11  13
ENDBRANCH   1  11
TORSDOF 5
ENDMDL
MODEL 2
REMARK VINA RESULT:      -5.6      1.094      1.540
REMARK  Name = 
REMARK  5 active torsions:
REMARK  status: ('A' for Active; 'I' for Inactive)
REMARK    1  A    between atoms: C_2  and  C_3
REMARK    2  A    between atoms: C_3  and  N_4
REMARK    3  A    between atoms: N_4  and  C_5
REMARK    4  A    between atoms: C_5  and  C_6
REMARK    5  A    between atoms: C_5  and  C_11
REMARK                            x       y       z     vdW  Elec       q    Type
REMARK                         _______ _______ _______ _____ _____    ______ ____
ROOT
ATOM      1  C   UNL     1       5.520   4.665  17.382  0.00  0.00    +0.000 C 
ENDROOT
BRANCH   1   2
ATOM      2  C   UNL     1       4.225   4.358  18.187  0.00  0.00    +0.000 C 
ATOM      3  C   UNL     1       3.034   5.243  17.804  0.00  0.00    +0.000 C 
ATOM      4  C   UNL     1       1.784   4.384  17.923  0.00  0.00    +0.000 C 
ATOM      5  C   UNL     1       2.225   2.948  18.157  0.00  0.00    +0.000 C 
ATOM      6  C   UNL     1       3.740   2.910  18.047  0.00  0.00    +0.000 C 
ENDBRANCH   1   2
BRANCH   1   7
ATOM      7  C   UNL     1       6.683   5.195  18.311  0.00  0.00    +0.000 C 
ATOM      8  F   UNL     1       6.946   6.503  18.074  0.00  0.00    +0.000 F 
ATOM      9  F   UNL     1       6.315   5.102  19.613  0.00  0.00    +0.000 F 
ATOM     10  F   UNL     1       7.846   4.525  18.174  0.00  0.00    +0.000 F 
ENDBRANCH   1   7
BRANCH   1  11
ATOM     11  N   UNL     1       5.955   3.529  16.510  0.00  0.00    +0.000 NA
ATOM     12  H   UNL     1       6.911   3.269  16.779  0.00  0.00    +0.000 HD
BRANCH  11  13
ATOM     13  C   UNL     1       5.924   3.791  15.066  0.00  0.00    +0.000 C 
BRANCH  13  15
ATOM     14  N   UNL     1       7.800   5.513  14.323  0.00  0.00    +0.000 NA
ATOM     15  C   UNL     1       6.980   4.746  14.643  0.00  0.00    +0.000 C 
ENDBRANCH  13  15
ENDBRANCH  11  13
ENDBRANCH   1  11
TORSDOF 5
ENDMDL
MODEL 3
REMARK VINA RESULT:      -5.6      2.135      2.754
REMARK  Name = 
REMARK  5 active torsions:
REMARK  status: ('A' for Active; 'I' for Inactive)
REMARK    1  A    between atoms: C_2  and  C_3
REMARK    2  A    between atoms: C_3  and  N_4
REMARK    3  A    between atoms: N_4  and  C_5
REMARK    4  A    between atoms: C_5  and  C_6
REMARK    5  A    between atoms: C_5  and  C_11
REMARK                            x       y       z     vdW  Elec       q    Type
REMARK                         _______ _______ _______ _____ _____    ______ ____
ROOT
ATOM      1  C   UNL     1       4.244   4.751  17.088  0.00  0.00    +0.000 C 
ENDROOT
BRANCH   1   2
ATOM      2  C   UNL     1       3.274   4.250  18.196  0.00  0.00    +0.000 C 
ATOM      3  C   UNL     1       1.820   4.124  17.733  0.00  0.00    +0.000 C 
ATOM      4  C   UNL     1       1.224   2.924  18.456  0.00  0.00    +0.000 C 
ATOM      5  C   UNL     1       2.355   2.202  19.171  0.00  0.00    +0.000 C 
ATOM      6  C   UNL     1       3.655   2.882  18.777  0.00  0.00    +0.000 C 
ENDBRANCH   1   2
BRANCH   1   7
ATOM      7  C   UNL     1       4.589   6.284  17.252  0.00  0.00    +0.000 C 
ATOM      8  F   UNL     1       4.634   6.911  16.051  0.00  0.00    +0.000 F 
ATOM      9  F   UNL     1       3.623   6.902  17.977  0.00  0.00    +0.000 F 
ATOM     10  F   UNL     1       5.766   6.522  17.868  0.00  0.00    +0.000 F 
ENDBRANCH   1   7
BRANCH   1  11
ATOM     11  N   UNL     1       5.468   3.901  16.947  0.00  0.00    +0.000 NA
ATOM     12  H   UNL     1       6.229   4.348  17.471  0.00  0.00    +0.000 HD
BRANCH  11  13
ATOM     13  C   UNL     1       5.918   3.661  15.570  0.00  0.00    +0.000 C 
BRANCH  13  15
ATOM     14  N   UNL     1       7.709   5.438  14.750  0.00  0.00    +0.000 NA
ATOM     15  C   UNL     1       6.918   4.663  15.121  0.00  0.00    +0.000 C 
ENDBRANCH  13  15
ENDBRANCH  11  13
ENDBRANCH   1  11
TORSDOF 5
ENDMDL
MODEL 4
REMARK VINA RESULT:      -5.5      4.006      5.526
REMARK  Name = 
REMARK  5 active torsions:
REMARK  status: ('A' for Active; 'I' for Inactive)
REMARK    1  A    between atoms: C_2  and  C_3
REMARK    2  A    between atoms: C_3  and  N_4
REMARK    3  A    between atoms: N_4  and  C_5
REMARK    4  A    between atoms: C_5  and  C_6
REMARK    5  A    between atoms: C_5  and  C_11
REMARK                            x       y       z     vdW  Elec       q    Type
REMARK                         _______ _______ _______ _____ _____    ______ ____
ROOT
ATOM      1  C   UNL     1       3.079   3.954  18.414  0.00  0.00    +0.000 C 
ENDROOT
BRANCH   1   2
ATOM      2  C   UNL     1       3.673   4.747  17.215  0.00  0.00    +0.000 C 
ATOM      3  C   UNL     1       4.170   6.147  17.584  0.00  0.00    +0.000 C 
ATOM      4  C   UNL     1       5.394   6.428  16.725  0.00  0.00    +0.000 C 
ATOM      5  C   UNL     1       5.768   5.140  16.010  0.00  0.00    +0.000 C 
ATOM      6  C   UNL     1       4.854   4.044  16.534  0.00  0.00    +0.000 C 
ENDBRANCH   1   2
BRANCH   1   7
ATOM      7  C   UNL     1       1.506   3.843  18.329  0.00  0.00    +0.000 C 
ATOM      8  F   UNL     1       1.109   2.554  18.187  0.00  0.00    +0.000 F 
ATOM      9  F   UNL     1       0.947   4.297  19.478  0.00  0.00    +0.000 F 
ATOM     10  F   UNL     1       0.958   4.540  17.313  0.00  0.00    +0.000 F 
ENDBRANCH   1   7
BRANCH   1  11
ATOM     11  N   UNL     1       3.737   2.625  18.626  0.00  0.00    +0.000 NA
ATOM     12  H   UNL     1       3.040   1.893  18.450  0.00  0.00    +0.000 HD
BRANCH  11  13
ATOM     13  C   UNL     1       4.322   2.414  19.955  0.00  0.00    +0.000 C 
BRANCH  13  15
ATOM     14  N   UNL     1       2.546   2.657  21.911  0.00  0.00    +0.000 NA
ATOM     15  C   UNL     1       3.319   2.549  21.042  0.00  0.00    +0.000 C 
ENDBRANCH  13  15
ENDBRANCH  11  13
ENDBRANCH   1  11
TORSDOF 5
ENDMDL
MODEL 5
REMARK VINA RESULT:      -5.5      1.436      1.486
REMARK  Name = 
REMARK  5 active torsions:
REMARK  status: ('A' for Active; 'I' for Inactive)
REMARK    1  A    between atoms: C_2  and  C_3
REMARK    2  A    between atoms: C_3  and  N_4
REMARK    3  A    between atoms: N_4  and  C_5
REMARK    4  A    between atoms: C_5  and  C_6
REMARK    5  A    between atoms: C_5  and  C_11
REMARK                            x       y       z     vdW  Elec       q    Type
REMARK                         _______ _______ _______ _____ _____    ______ ____
ROOT
ATOM      1  C   UNL     1       5.860   4.909  17.109  0.00  0.00    +0.000 C 
ENDROOT
BRANCH   1   2
ATOM      2  C   UNL     1       4.581   4.524  17.906  0.00  0.00    +0.000 C 
ATOM      3  C   UNL     1       3.524   5.631  17.951  0.00  0.00    +0.000 C 
ATOM      4  C   UNL     1       2.163   4.950  17.923  0.00  0.00    +0.000 C 
ATOM      5  C   UNL     1       2.387   3.473  17.640  0.00  0.00    +0.000 C 
ATOM      6  C   UNL     1       3.868   3.279  17.365  0.00  0.00    +0.000 C 
ENDBRANCH   1   2
BRANCH   1   7
ATOM      7  C   UNL     1       7.079   5.229  18.062  0.00  0.00    +0.000 C 
ATOM      8  F   UNL     1       6.702   5.216  19.365  0.00  0.00    +0.000 F 
ATOM      9  F   UNL     1       8.036   4.278  17.926  0.00  0.00    +0.000 F 
ATOM     10  F   UNL     1       7.662   6.423  17.829  0.00  0.00    +0.000 F 
ENDBRANCH   1   7
BRANCH   1  11
ATOM     11  N   UNL     1       6.211   3.918  16.043  0.00  0.00    +0.000 NA
ATOM     12  H   UNL     1       6.843   3.221  16.452  0.00  0.00    +0.000 HD
BRANCH  11  13
ATOM     13  C   UNL     1       6.838   4.478  14.839  0.00  0.00    +0.000 C 
BRANCH  13  15
ATOM     14  N   UNL     1       5.846   3.415  12.620  0.00  0.00    +0.000 NA
ATOM     15  C   UNL     1       6.285   3.893  13.591  0.00  0.00    +0.000 C 
ENDBRANCH  13  15
ENDBRANCH  11  13
ENDBRANCH   1  11
TORSDOF 5
ENDMDL
MODEL 6
REMARK VINA RESULT:      -5.5      1.909      2.609
REMARK  Name = 
REMARK  5 active torsions:
REMARK  status: ('A' for Active; 'I' for Inactive)
REMARK    1  A    between atoms: C_2  and  C_3
REMARK    2  A    between atoms: C_3  and  N_4
REMARK    3  A    between atoms: N_4  and  C_5
REMARK    4  A    between atoms: C_5  and  C_6
REMARK    5  A    between atoms: C_5  and  C_11
REMARK                            x       y       z     vdW  Elec       q    Type
REMARK                         _______ _______ _______ _____ _____    ______ ____
ROOT
ATOM      1  C   UNL     1       4.534   4.224  17.477  0.00  0.00    +0.000 C 
ENDROOT
BRANCH   1   2
ATOM      2  C   UNL     1       3.049   3.761  17.459  0.00  0.00    +0.000 C 
ATOM      3  C   UNL     1       2.856   2.288  17.832  0.00  0.00    +0.000 C 
ATOM      4  C   UNL     1       1.543   2.189  18.596  0.00  0.00    +0.000 C 
ATOM      5  C   UNL     1       1.060   3.603  18.877  0.00  0.00    +0.000 C 
ATOM      6  C   UNL     1       2.141   4.560  18.402  0.00  0.00    +0.000 C 
ENDBRANCH   1   2
BRANCH   1   7
ATOM      7  C   UNL     1       5.062   4.460  18.947  0.00  0.00    +0.000 C 
ATOM      8  F   UNL     1       4.865   3.365  19.723  0.00  0.00    +0.000 F 
ATOM      9  F   UNL     1       6.399   4.687  18.929  0.00  0.00    +0.000 F 
ATOM     10  F   UNL     1       4.486   5.503  19.579  0.00  0.00    +0.000 F 
ENDBRANCH   1   7
BRANCH   1  11
ATOM     11  N   UNL     1       5.438   3.337  16.678  0.00  0.00    +0.000 NA
ATOM     12  H   UNL     1       6.242   3.091  17.266  0.00  0.00    +0.000 HD
BRANCH  11  13
ATOM     13  C   UNL     1       5.929   3.906  15.417  0.00  0.00    +0.000 C 
BRANCH  13  15
ATOM     14  N   UNL     1       7.453   6.039  15.822  0.00  0.00    +0.000 NA
ATOM     15  C   UNL     1       6.785   5.100  15.632  0.00  0.00    +0.000 C 
ENDBRANCH  13  15
ENDBRANCH  11  13
ENDBRANCH   1  11
TORSDOF 5
ENDMDL
MODEL 7
REMARK VINA RESULT:      -5.4      2.925      3.758
REMARK  Name = 
REMARK  5 active torsions:
REMARK  status: ('A' for Active; 'I' for Inactive)
REMARK    1  A    between atoms: C_2  and  C_3
REMARK    2  A    between atoms: C_3  and  N_4
REMARK    3  A    between atoms: N_4  and  C_5
REMARK    4  A    between atoms: C_5  and  C_6
REMARK    5  A    between atoms: C_5  and  C_11
REMARK                            x       y       z     vdW  Elec       q    Type
REMARK                         _______ _______ _______ _____ _____    ______ ____
ROOT
ATOM      1  C   UNL     1       4.122   3.373  18.566  0.00  0.00    +0.000 C 
ENDROOT
BRANCH   1   2
ATOM      2  C   UNL     1       3.161   3.819  19.704  0.00  0.00    +0.000 C 
ATOM      3  C   UNL     1       1.723   4.067  19.238  0.00  0.00    +0.000 C 
ATOM      4  C   UNL     1       0.805   3.632  20.371  0.00  0.00    +0.000 C 
ATOM      5  C   UNL     1       1.655   2.928  21.416  0.00  0.00    +0.000 C 
ATOM      6  C   UNL     1       3.065   2.815  20.860  0.00  0.00    +0.000 C 
ENDBRANCH   1   2
BRANCH   1   7
ATOM      7  C   UNL     1       3.694   3.963  17.164  0.00  0.00    +0.000 C 
ATOM      8  F   UNL     1       4.685   3.827  16.249  0.00  0.00    +0.000 F 
ATOM      9  F   UNL     1       2.624   3.283  16.682  0.00  0.00    +0.000 F 
ATOM     10  F   UNL     1       3.359   5.269  17.195  0.00  0.00    +0.000 F 
ENDBRANCH   1   7
BRANCH   1  11
ATOM     11  N   UNL     1       5.564   3.628  18.878  0.00  0.00    +0.000 NA
ATOM     12  H   UNL     1       5.819   3.057  19.691  0.00  0.00    +0.000 HD
BRANCH  11  13
ATOM     13  C   UNL     1       5.915   5.027  19.154  0.00  0.00    +0.000 C 
BRANCH  13  15
ATOM     14  N   UNL     1       7.536   6.028  17.307  0.00  0.00    +0.000 NA
ATOM     15  C   UNL     1       6.830   5.591  18.129  0.00  0.00    +0.000 C 
ENDBRANCH  13  15
ENDBRANCH  11  13
ENDBRANCH   1  11
TORSDOF 5
ENDMDL
MODEL 8
REMARK VINA RESULT:      -5.4      3.507      4.641
REMARK  Name = 
REMARK  5 active torsions:
REMARK  status: ('A' for Active; 'I' for Inactive)
REMARK    1  A    between atoms: C_2  and  C_3
REMARK    2  A    between atoms: C_3  and  N_4
REMARK    3  A    between atoms: N_4  and  C_5
REMARK    4  A    between atoms: C_5  and  C_6
REMARK    5  A    between atoms: C_5  and  C_11
REMARK                            x       y       z     vdW  Elec       q    Type
REMARK                         _______ _______ _______ _____ _____    ______ ____
ROOT
ATOM      1  C   UNL     1       2.992   5.770  18.463  0.00  0.00    +0.000 C 
ENDROOT
BRANCH   1   2
ATOM      2  C   UNL     1       1.715   4.944  18.790  0.00  0.00    +0.000 C 
ATOM      3  C   UNL     1       1.611   3.631  18.009  0.00  0.00    +0.000 C 
ATOM      4  C   UNL     1       0.955   2.613  18.932  0.00  0.00    +0.000 C 
ATOM      5  C   UNL     1       0.866   3.231  20.319  0.00  0.00    +0.000 C 
ATOM      6  C   UNL     1       1.586   4.568  20.272  0.00  0.00    +0.000 C 
ENDBRANCH   1   2
BRANCH   1   7
ATOM      7  C   UNL     1       2.684   7.316  18.350  0.00  0.00    +0.000 C 
ATOM      8  F   UNL     1       1.591   7.546  17.581  0.00  0.00    +0.000 F 
ATOM      9  F   UNL     1       2.411   7.825  19.576  0.00  0.00    +0.000 F 
ATOM     10  F   UNL     1       3.695   8.042  17.829  0.00  0.00    +0.000 F 
ENDBRANCH   1   7
BRANCH   1  11
ATOM     11  N   UNL     1       4.135   5.479  19.385  0.00  0.00    +0.000 NA
ATOM     12  H   UNL     1       4.648   6.354  19.542  0.00  0.00    +0.000 HD
BRANCH  11  13
ATOM     13  C   UNL     1       5.078   4.454  18.921  0.00  0.00    +0.000 C 
BRANCH  13  15
ATOM     14  N   UNL     1       4.681   2.127  20.133  0.00  0.00    +0.000 NA
ATOM     15  C   UNL     1       4.863   3.146  19.592  0.00  0.00    +0.000 C 
ENDBRANCH  13  15
ENDBRANCH  11  13
ENDBRANCH   1  11
TORSDOF 5
ENDMDL
MODEL 9
REMARK VINA RESULT:      -5.4      1.530      1.950
REMARK  Name = 
REMARK  5 active torsions:
REMARK  status: ('A' for Active; 'I' for Inactive)
REMARK    1  A    between atoms: C_2  and  C_3
REMARK    2  A    between atoms: C_3  and  N_4
REMARK    3  A    between atoms: N_4  and  C_5
REMARK    4  A    between atoms: C_5  and  C_6
REMARK    5  A    between atoms: C_5  and  C_11
REMARK                            x       y       z     vdW  Elec       q    Type
REMARK                         _______ _______ _______ _____ _____    ______ ____
ROOT
ATOM      1  C   UNL     1       5.466   4.847  17.317  0.00  0.00    +0.000 C 
ENDROOT
BRANCH   1   2
ATOM      2  C   UNL     1       4.204   4.275  18.022  0.00  0.00    +0.000 C 
ATOM      3  C   UNL     1       2.933   5.094  17.779  0.00  0.00    +0.000 C 
ATOM      4  C   UNL     1       1.774   4.111  17.712  0.00  0.00    +0.000 C 
ATOM      5  C   UNL     1       2.354   2.706  17.691  0.00  0.00    +0.000 C 
ATOM      6  C   UNL     1       3.866   2.836  17.611  0.00  0.00    +0.000 C 
ENDBRANCH   1   2
BRANCH   1   7
ATOM      7  C   UNL     1       6.519   5.411  18.352  0.00  0.00    +0.000 C 
ATOM      8  F   UNL     1       7.667   4.691  18.328  0.00  0.00    +0.000 F 
ATOM      9  F   UNL     1       6.851   6.685  18.027  0.00  0.00    +0.000 F 
ATOM     10  F   UNL     1       6.084   5.422  19.629  0.00  0.00    +0.000 F 
ENDBRANCH   1   7
BRANCH   1  11
ATOM     11  N   UNL     1       6.079   3.893  16.339  0.00  0.00    +0.000 NA
ATOM     12  H   UNL     1       6.752   3.307  16.845  0.00  0.00    +0.000 HD
BRANCH  11  13
ATOM     13  C   UNL     1       6.756   4.510  15.191  0.00  0.00    +0.000 C 
BRANCH  13  15
ATOM     14  N   UNL     1       5.936   3.525  12.868  0.00  0.00    +0.000 NA
ATOM     15  C   UNL     1       6.297   3.947  13.896  0.00  0.00    +0.000 C 
ENDBRANCH  13  15
ENDBRANCH  11  13
ENDBRANCH   1  11
TORSDOF 5
ENDMDL
