MODEL 1
REMARK VINA RESULT:      -7.2      0.000      0.000
REMARK  Name = 
REMARK  4 active torsions:
REMARK  status: ('A' for Active; 'I' for Inactive)
REMARK    1  A    between atoms: C_6  and  C_7
REMARK    2  A    between atoms: N_9  and  C_10
REMARK    3  A    between atoms: C_10  and  C_11
REMARK    4  A    between atoms: C_11  and  C_12
REMARK                            x       y       z     vdW  Elec       q    Type
REMARK                         _______ _______ _______ _____ _____    ______ ____
ROOT
ATOM      1  C   UNL     1       5.673   4.788  17.967  0.00  0.00    +0.000 C 
ATOM      2  O   UNL     1       5.721   3.915  18.828  0.00  0.00    +0.000 OA
ATOM      3  N   UNL     1       4.706   4.788  16.975  0.00  0.00    +0.000 N 
ATOM      4  H   UNL     1       4.528   5.668  16.502  0.00  0.00    +0.000 HD
ENDROOT
BRANCH   1  10
ATOM      5  N   UNL     1       8.078   5.630  19.914  0.00  0.00    +0.000 N 
ATOM      6  C   UNL     1       7.669   6.252  18.800  0.00  0.00    +0.000 A 
ATOM      7  N   UNL     1       8.265   7.356  18.347  0.00  0.00    +0.000 NA
ATOM      8  O   UNL     1       7.557   7.729  17.221  0.00  0.00    +0.000 OA
ATOM      9  N   UNL     1       6.515   6.850  16.965  0.00  0.00    +0.000 NA
ATOM     10  C   UNL     1       6.595   5.921  17.929  0.00  0.00    +0.000 A 
ATOM     11  H   UNL     1       8.806   6.107  20.445  0.00  0.00    +0.000 HD
ATOM     12  H   UNL     1       7.386   5.200  20.536  0.00  0.00    +0.000 HD
ENDBRANCH   1  10
BRANCH   3  13
ATOM     13  C   UNL     1       3.733   3.722  16.898  0.00  0.00    +0.000 C 
BRANCH  13  14
ATOM     14  C   UNL     1       2.343   4.115  17.408  0.00  0.00    +0.000 C 
BRANCH  14  15
ATOM     15  C   UNL     1       2.125   3.881  18.887  0.00  0.00    +0.000 A 
ATOM     16  C   UNL     1       2.298   4.902  19.833  0.00  0.00    +0.000 A 
ATOM     17  C   UNL     1       2.131   4.642  21.196  0.00  0.00    +0.000 A 
ATOM     18  C   UNL     1       1.770   3.367  21.626  0.00  0.00    +0.000 A 
ATOM     19  C   UNL     1       1.557   2.356  20.693  0.00  0.00    +0.000 A 
ATOM     20  C   UNL     1       1.731   2.611  19.332  0.00  0.00    +0.000 A 
ENDBRANCH  14  15
ENDBRANCH  13  14
ENDBRANCH   3  13
TORSDOF 4
ENDMDL
MODEL 2
REMARK VINA RESULT:      -7.2      0.098      1.172
REMARK  Name = 
REMARK  4 active torsions:
REMARK  status: ('A' for Active; 'I' for Inactive)
REMARK    1  A    between atoms: C_6  and  C_7
REMARK    2  A    between atoms: N_9  and  C_10
REMARK    3  A    between atoms: C_10  and  C_11
REMARK    4  A    between atoms: C_11  and  C_12
REMARK                            x       y       z     vdW  Elec       q    Type
REMARK                         _______ _______ _______ _____ _____    ______ ____
ROOT
ATOM      1  C   UNL     1       5.713   4.824  17.934  0.00  0.00    +0.000 C 
ATOM      2  O   UNL     1       5.806   3.939  18.780  0.00  0.00    +0.000 OA
ATOM      3  N   UNL     1       4.720   4.814  16.968  0.00  0.00    +0.000 N 
ATOM      4  H   UNL     1       4.507   5.696  16.514  0.00  0.00    +0.000 HD
ENDROOT
BRANCH   1  10
ATOM      5  N   UNL     1       8.164   5.683  19.814  0.00  0.00    +0.000 N 
ATOM      6  C   UNL     1       7.700   6.320  18.731  0.00  0.00    +0.000 A 
ATOM      7  N   UNL     1       8.250   7.449  18.283  0.00  0.00    +0.000 NA
ATOM      8  O   UNL     1       7.493   7.829  17.192  0.00  0.00    +0.000 OA
ATOM      9  N   UNL     1       6.465   6.930  16.953  0.00  0.00    +0.000 NA
ATOM     10  C   UNL     1       6.603   5.981  17.890  0.00  0.00    +0.000 A 
ATOM     11  H   UNL     1       8.899   6.167  20.330  0.00  0.00    +0.000 HD
ATOM     12  H   UNL     1       7.507   5.222  20.450  0.00  0.00    +0.000 HD
ENDBRANCH   1  10
BRANCH   3  13
ATOM     13  C   UNL     1       3.774   3.723  16.898  0.00  0.00    +0.000 C 
BRANCH  13  14
ATOM     14  C   UNL     1       2.375   4.086  17.408  0.00  0.00    +0.000 C 
BRANCH  14  15
ATOM     15  C   UNL     1       2.147   3.806  18.877  0.00  0.00    +0.000 A 
ATOM     16  C   UNL     1       1.664   2.570  19.330  0.00  0.00    +0.000 A 
ATOM     17  C   UNL     1       1.423   2.359  20.691  0.00  0.00    +0.000 A 
ATOM     18  C   UNL     1       1.680   3.371  21.613  0.00  0.00    +0.000 A 
ATOM     19  C   UNL     1       2.197   4.589  21.178  0.00  0.00    +0.000 A 
ATOM     20  C   UNL     1       2.431   4.804  19.820  0.00  0.00    +0.000 A 
ENDBRANCH  14  15
ENDBRANCH  13  14
ENDBRANCH   3  13
TORSDOF 4
ENDMDL
MODEL 3
REMARK VINA RESULT:      -7.1      1.963      2.444
REMARK  Name = 
REMARK  4 active torsions:
REMARK  status: ('A' for Active; 'I' for Inactive)
REMARK    1  A    between atoms: C_6  and  C_7
REMARK    2  A    between atoms: N_9  and  C_10
REMARK    3  A    between atoms: C_10  and  C_11
REMARK    4  A    between atoms: C_11  and  C_12
REMARK                            x       y       z     vdW  Elec       q    Type
REMARK                         _______ _______ _______ _____ _____    ______ ____
ROOT
ATOM      1  C   UNL     1       5.067   5.690  17.582  0.00  0.00    +0.000 C 
ATOM      2  O   UNL     1       5.227   5.077  18.633  0.00  0.00    +0.000 OA
ATOM      3  N   UNL     1       4.037   6.600  17.413  0.00  0.00    +0.000 N 
ATOM      4  H   UNL     1       4.139   7.282  16.668  0.00  0.00    +0.000 HD
ENDROOT
BRANCH   1  10
ATOM      5  N   UNL     1       7.945   4.304  17.294  0.00  0.00    +0.000 N 
ATOM      6  C   UNL     1       7.226   4.906  16.338  0.00  0.00    +0.000 A 
ATOM      7  N   UNL     1       7.654   4.992  15.077  0.00  0.00    +0.000 NA
ATOM      8  O   UNL     1       6.684   5.703  14.398  0.00  0.00    +0.000 OA
ATOM      9  N   UNL     1       5.640   6.061  15.237  0.00  0.00    +0.000 NA
ATOM     10  C   UNL     1       5.961   5.551  16.435  0.00  0.00    +0.000 A 
ATOM     11  H   UNL     1       8.879   4.004  17.020  0.00  0.00    +0.000 HD
ATOM     12  H   UNL     1       7.940   4.685  18.245  0.00  0.00    +0.000 HD
ENDBRANCH   1  10
BRANCH   3  13
ATOM     13  C   UNL     1       3.079   6.831  18.471  0.00  0.00    +0.000 C 
BRANCH  13  14
ATOM     14  C   UNL     1       1.806   5.988  18.346  0.00  0.00    +0.000 C 
BRANCH  14  15
ATOM     15  C   UNL     1       1.765   4.771  19.244  0.00  0.00    +0.000 A 
ATOM     16  C   UNL     1       1.387   3.508  18.764  0.00  0.00    +0.000 A 
ATOM     17  C   UNL     1       1.318   2.413  19.629  0.00  0.00    +0.000 A 
ATOM     18  C   UNL     1       1.646   2.562  20.975  0.00  0.00    +0.000 A 
ATOM     19  C   UNL     1       2.061   3.802  21.453  0.00  0.00    +0.000 A 
ATOM     20  C   UNL     1       2.123   4.898  20.593  0.00  0.00    +0.000 A 
ENDBRANCH  14  15
ENDBRANCH  13  14
ENDBRANCH   3  13
TORSDOF 4
ENDMDL
MODEL 4
REMARK VINA RESULT:      -7.1      1.572      1.885
REMARK  Name = 
REMARK  4 active torsions:
REMARK  status: ('A' for Active; 'I' for Inactive)
REMARK    1  A    between atoms: C_6  and  C_7
REMARK    2  A    between atoms: N_9  and  C_10
REMARK    3  A    between atoms: C_10  and  C_11
REMARK    4  A    between atoms: C_11  and  C_12
REMARK                            x       y       z     vdW  Elec       q    Type
REMARK                         _______ _______ _______ _____ _____    ______ ____
ROOT
ATOM      1  C   UNL     1       4.810   4.988  17.505  0.00  0.00    +0.000 C 
ATOM      2  O   UNL     1       4.418   5.952  16.855  0.00  0.00    +0.000 OA
ATOM      3  N   UNL     1       4.124   3.784  17.517  0.00  0.00    +0.000 N 
ATOM      4  H   UNL     1       4.641   2.959  17.803  0.00  0.00    +0.000 HD
ENDROOT
BRANCH   1  10
ATOM      5  N   UNL     1       7.861   4.489  16.653  0.00  0.00    +0.000 N 
ATOM      6  C   UNL     1       7.389   4.798  17.868  0.00  0.00    +0.000 A 
ATOM      7  N   UNL     1       8.192   4.950  18.922  0.00  0.00    +0.000 NA
ATOM      8  O   UNL     1       7.361   5.219  19.992  0.00  0.00    +0.000 OA
ATOM      9  N   UNL     1       6.030   5.239  19.605  0.00  0.00    +0.000 NA
ATOM     10  C   UNL     1       6.044   5.001  18.285  0.00  0.00    +0.000 A 
ATOM     11  H   UNL     1       8.858   4.282  16.606  0.00  0.00    +0.000 HD
ATOM     12  H   UNL     1       7.322   3.864  16.045  0.00  0.00    +0.000 HD
ENDBRANCH   1  10
BRANCH   3  13
ATOM     13  C   UNL     1       2.885   3.637  16.787  0.00  0.00    +0.000 C 
BRANCH  13  14
ATOM     14  C   UNL     1       1.650   4.102  17.565  0.00  0.00    +0.000 C 
BRANCH  14  15
ATOM     15  C   UNL     1       1.723   3.874  19.059  0.00  0.00    +0.000 A 
ATOM     16  C   UNL     1       2.052   4.905  19.951  0.00  0.00    +0.000 A 
ATOM     17  C   UNL     1       2.154   4.651  21.322  0.00  0.00    +0.000 A 
ATOM     18  C   UNL     1       1.908   3.372  21.817  0.00  0.00    +0.000 A 
ATOM     19  C   UNL     1       1.542   2.351  20.945  0.00  0.00    +0.000 A 
ATOM     20  C   UNL     1       1.447   2.600  19.575  0.00  0.00    +0.000 A 
ENDBRANCH  14  15
ENDBRANCH  13  14
ENDBRANCH   3  13
TORSDOF 4
ENDMDL
MODEL 5
REMARK VINA RESULT:      -7.1      2.754      3.521
REMARK  Name = 
REMARK  4 active torsions:
REMARK  status: ('A' for Active; 'I' for Inactive)
REMARK    1  A    between atoms: C_6  and  C_7
REMARK    2  A    between atoms: N_9  and  C_10
REMARK    3  A    between atoms: C_10  and  C_11
REMARK    4  A    between atoms: C_11  and  C_12
REMARK                            x       y       z     vdW  Elec       q    Type
REMARK                         _______ _______ _______ _____ _____    ______ ____
ROOT
ATOM      1  C   UNL     1       5.924   4.385  15.876  0.00  0.00    +0.000 C 
ATOM      2  O   UNL     1       5.446   3.274  16.086  0.00  0.00    +0.000 OA
ATOM      3  N   UNL     1       5.754   5.436  16.762  0.00  0.00    +0.000 N 
ATOM      4  H   UNL     1       6.410   6.207  16.696  0.00  0.00    +0.000 HD
ENDROOT
BRANCH   1  10
ATOM      5  N   UNL     1       5.890   3.200  12.896  0.00  0.00    +0.000 N 
ATOM      6  C   UNL     1       6.684   4.160  13.387  0.00  0.00    +0.000 A 
ATOM      7  N   UNL     1       7.601   4.774  12.637  0.00  0.00    +0.000 NA
ATOM      8  O   UNL     1       8.245   5.659  13.480  0.00  0.00    +0.000 OA
ATOM      9  N   UNL     1       7.725   5.602  14.764  0.00  0.00    +0.000 NA
ATOM     10  C   UNL     1       6.743   4.691  14.706  0.00  0.00    +0.000 A 
ATOM     11  H   UNL     1       6.096   2.901  11.943  0.00  0.00    +0.000 HD
ATOM     12  H   UNL     1       5.632   2.405  13.488  0.00  0.00    +0.000 HD
ENDBRANCH   1  10
BRANCH   3  13
ATOM     13  C   UNL     1       4.962   5.266  17.959  0.00  0.00    +0.000 C 
BRANCH  13  14
ATOM     14  C   UNL     1       3.494   5.669  17.792  0.00  0.00    +0.000 C 
BRANCH  14  15
ATOM     15  C   UNL     1       2.510   4.793  18.535  0.00  0.00    +0.000 A 
ATOM     16  C   UNL     1       2.088   5.092  19.839  0.00  0.00    +0.000 A 
ATOM     17  C   UNL     1       1.212   4.238  20.514  0.00  0.00    +0.000 A 
ATOM     18  C   UNL     1       0.732   3.090  19.888  0.00  0.00    +0.000 A 
ATOM     19  C   UNL     1       1.114   2.804  18.580  0.00  0.00    +0.000 A 
ATOM     20  C   UNL     1       1.995   3.650  17.907  0.00  0.00    +0.000 A 
ENDBRANCH  14  15
ENDBRANCH  13  14
ENDBRANCH   3  13
TORSDOF 4
ENDMDL
MODEL 6
REMARK VINA RESULT:      -6.9      3.080      3.869
REMARK  Name = 
REMARK  4 active torsions:
REMARK  status: ('A' for Active; 'I' for Inactive)
REMARK    1  A    between atoms: C_6  and  C_7
REMARK    2  A    between atoms: N_9  and  C_10
REMARK    3  A    between atoms: C_10  and  C_11
REMARK    4  A    between atoms: C_11  and  C_12
REMARK                            x       y       z     vdW  Elec       q    Type
REMARK                         _______ _______ _______ _____ _____    ______ ____
ROOT
ATOM      1  C   UNL     1       6.475   5.385  15.671  0.00  0.00    +0.000 C 
ATOM      2  O   UNL     1       7.452   5.863  16.240  0.00  0.00    +0.000 OA
ATOM      3  N   UNL     1       5.212   5.408  16.239  0.00  0.00    +0.000 N 
ATOM      4  H   UNL     1       4.421   5.291  15.615  0.00  0.00    +0.000 HD
ENDROOT
BRANCH   1  10
ATOM      5  N   UNL     1       8.520   5.843  13.244  0.00  0.00    +0.000 N 
ATOM      6  C   UNL     1       7.480   5.000  13.291  0.00  0.00    +0.000 A 
ATOM      7  N   UNL     1       7.168   4.202  12.269  0.00  0.00    +0.000 NA
ATOM      8  O   UNL     1       6.032   3.519  12.659  0.00  0.00    +0.000 OA
ATOM      9  N   UNL     1       5.633   3.889  13.934  0.00  0.00    +0.000 NA
ATOM     10  C   UNL     1       6.540   4.790  14.339  0.00  0.00    +0.000 A 
ATOM     11  H   UNL     1       8.997   5.906  12.345  0.00  0.00    +0.000 HD
ATOM     12  H   UNL     1       8.448   6.762  13.692  0.00  0.00    +0.000 HD
ENDBRANCH   1  10
BRANCH   3  13
ATOM     13  C   UNL     1       5.009   5.968  17.557  0.00  0.00    +0.000 C 
BRANCH  13  14
ATOM     14  C   UNL     1       3.593   6.504  17.789  0.00  0.00    +0.000 C 
BRANCH  14  15
ATOM     15  C   UNL     1       2.675   5.561  18.534  0.00  0.00    +0.000 A 
ATOM     16  C   UNL     1       2.357   5.750  19.887  0.00  0.00    +0.000 A 
ATOM     17  C   UNL     1       1.540   4.836  20.558  0.00  0.00    +0.000 A 
ATOM     18  C   UNL     1       1.016   3.737  19.880  0.00  0.00    +0.000 A 
ATOM     19  C   UNL     1       1.292   3.562  18.527  0.00  0.00    +0.000 A 
ATOM     20  C   UNL     1       2.114   4.469  17.858  0.00  0.00    +0.000 A 
ENDBRANCH  14  15
ENDBRANCH  13  14
ENDBRANCH   3  13
TORSDOF 4
ENDMDL
MODEL 7
REMARK VINA RESULT:      -6.9      1.213      1.370
REMARK  Name = 
REMARK  4 active torsions:
REMARK  status: ('A' for Active; 'I' for Inactive)
REMARK    1  A    between atoms: C_6  and  C_7
REMARK    2  A    between atoms: N_9  and  C_10
REMARK    3  A    between atoms: C_10  and  C_11
REMARK    4  A    between atoms: C_11  and  C_12
REMARK                            x       y       z     vdW  Elec       q    Type
REMARK                         _______ _______ _______ _____ _____    ______ ____
ROOT
ATOM      1  C   UNL     1       5.952   4.893  16.773  0.00  0.00    +0.000 C 
ATOM      2  O   UNL     1       6.395   4.038  16.012  0.00  0.00    +0.000 OA
ATOM      3  N   UNL     1       4.660   4.834  17.271  0.00  0.00    +0.000 N 
ATOM      4  H   UNL     1       4.462   5.370  18.109  0.00  0.00    +0.000 HD
ENDROOT
BRANCH   1  10
ATOM      5  N   UNL     1       7.850   5.199  19.340  0.00  0.00    +0.000 N 
ATOM      6  C   UNL     1       7.600   6.112  18.391  0.00  0.00    +0.000 A 
ATOM      7  N   UNL     1       8.159   7.323  18.409  0.00  0.00    +0.000 NA
ATOM      8  O   UNL     1       7.643   7.991  17.315  0.00  0.00    +0.000 OA
ATOM      9  N   UNL     1       6.761   7.191  16.606  0.00  0.00    +0.000 NA
ATOM     10  C   UNL     1       6.747   6.019  17.256  0.00  0.00    +0.000 A 
ATOM     11  H   UNL     1       8.414   5.522  20.125  0.00  0.00    +0.000 HD
ATOM     12  H   UNL     1       7.098   4.577  19.653  0.00  0.00    +0.000 HD
ENDBRANCH   1  10
BRANCH   3  13
ATOM     13  C   UNL     1       3.766   3.771  16.870  0.00  0.00    +0.000 C 
BRANCH  13  14
ATOM     14  C   UNL     1       3.770   2.570  17.820  0.00  0.00    +0.000 C 
BRANCH  14  15
ATOM     15  C   UNL     1       2.917   2.741  19.058  0.00  0.00    +0.000 A 
ATOM     16  C   UNL     1       3.443   2.583  20.348  0.00  0.00    +0.000 A 
ATOM     17  C   UNL     1       2.618   2.705  21.470  0.00  0.00    +0.000 A 
ATOM     18  C   UNL     1       1.266   3.006  21.315  0.00  0.00    +0.000 A 
ATOM     19  C   UNL     1       0.743   3.203  20.040  0.00  0.00    +0.000 A 
ATOM     20  C   UNL     1       1.562   3.074  18.919  0.00  0.00    +0.000 A 
ENDBRANCH  14  15
ENDBRANCH  13  14
ENDBRANCH   3  13
TORSDOF 4
ENDMDL
MODEL 8
REMARK VINA RESULT:      -6.9      3.128      6.169
REMARK  Name = 
REMARK  4 active torsions:
REMARK  status: ('A' for Active; 'I' for Inactive)
REMARK    1  A    between atoms: C_6  and  C_7
REMARK    2  A    between atoms: N_9  and  C_10
REMARK    3  A    between atoms: C_10  and  C_11
REMARK    4  A    between atoms: C_11  and  C_12
REMARK                            x       y       z     vdW  Elec       q    Type
REMARK                         _______ _______ _______ _____ _____    ______ ____
ROOT
ATOM      1  C   UNL     1       2.901   2.993  18.381  0.00  0.00    +0.000 C 
ATOM      2  O   UNL     1       2.187   2.469  17.531  0.00  0.00    +0.000 OA
ATOM      3  N   UNL     1       3.945   3.838  18.043  0.00  0.00    +0.000 N 
ATOM      4  H   UNL     1       4.285   4.466  18.764  0.00  0.00    +0.000 HD
ENDROOT
BRANCH   1  10
ATOM      5  N   UNL     1       0.283   3.319  20.204  0.00  0.00    +0.000 N 
ATOM      6  C   UNL     1       1.509   2.942  20.591  0.00  0.00    +0.000 A 
ATOM      7  N   UNL     1       1.789   2.633  21.858  0.00  0.00    +0.000 NA
ATOM      8  O   UNL     1       3.138   2.337  21.884  0.00  0.00    +0.000 OA
ATOM      9  N   UNL     1       3.705   2.458  20.624  0.00  0.00    +0.000 NA
ATOM     10  C   UNL     1       2.695   2.811  19.816  0.00  0.00    +0.000 A 
ATOM     11  H   UNL     1      -0.395   3.449  20.954  0.00  0.00    +0.000 HD
ATOM     12  H   UNL     1       0.180   4.037  19.481  0.00  0.00    +0.000 HD
ENDBRANCH   1  10
BRANCH   3  13
ATOM     13  C   UNL     1       4.258   4.101  16.656  0.00  0.00    +0.000 C 
BRANCH  13  14
ATOM     14  C   UNL     1       5.758   4.080  16.346  0.00  0.00    +0.000 C 
BRANCH  14  15
ATOM     15  C   UNL     1       6.577   5.088  17.121  0.00  0.00    +0.000 A 
ATOM     16  C   UNL     1       7.302   4.732  18.267  0.00  0.00    +0.000 A 
ATOM     17  C   UNL     1       8.013   5.697  18.985  0.00  0.00    +0.000 A 
ATOM     18  C   UNL     1       8.026   7.022  18.554  0.00  0.00    +0.000 A 
ATOM     19  C   UNL     1       7.342   7.379  17.395  0.00  0.00    +0.000 A 
ATOM     20  C   UNL     1       6.625   6.419  16.681  0.00  0.00    +0.000 A 
ENDBRANCH  14  15
ENDBRANCH  13  14
ENDBRANCH   3  13
TORSDOF 4
ENDMDL
MODEL 9
REMARK VINA RESULT:      -6.9      1.872      2.744
REMARK  Name = 
REMARK  4 active torsions:
REMARK  status: ('A' for Active; 'I' for Inactive)
REMARK    1  A    between atoms: C_6  and  C_7
REMARK    2  A    between atoms: N_9  and  C_10
REMARK    3  A    between atoms: C_10  and  C_11
REMARK    4  A    between atoms: C_11  and  C_12
REMARK                            x       y       z     vdW  Elec       q    Type
REMARK                         _______ _______ _______ _____ _____    ______ ____
ROOT
ATOM      1  C   UNL     1       4.912   6.172  17.505  0.00  0.00    +0.000 C 
ATOM      2  O   UNL     1       4.562   6.842  16.538  0.00  0.00    +0.000 OA
ATOM      3  N   UNL     1       4.132   6.066  18.645  0.00  0.00    +0.000 N 
ATOM      4  H   UNL     1       4.313   5.278  19.258  0.00  0.00    +0.000 HD
ENDROOT
BRANCH   1  10
ATOM      5  N   UNL     1       6.862   5.214  15.147  0.00  0.00    +0.000 N 
ATOM      6  C   UNL     1       7.006   5.009  16.463  0.00  0.00    +0.000 A 
ATOM      7  N   UNL     1       8.049   4.349  16.968  0.00  0.00    +0.000 NA
ATOM      8  O   UNL     1       7.838   4.300  18.332  0.00  0.00    +0.000 OA
ATOM      9  N   UNL     1       6.658   4.938  18.684  0.00  0.00    +0.000 NA
ATOM     10  C   UNL     1       6.150   5.398  17.531  0.00  0.00    +0.000 A 
ATOM     11  H   UNL     1       7.547   4.750  14.551  0.00  0.00    +0.000 HD
ATOM     12  H   UNL     1       5.927   5.186  14.730  0.00  0.00    +0.000 HD
ENDBRANCH   1  10
BRANCH   3  13
ATOM     13  C   UNL     1       2.882   6.785  18.749  0.00  0.00    +0.000 C 
BRANCH  13  14
ATOM     14  C   UNL     1       2.079   6.448  20.009  0.00  0.00    +0.000 C 
BRANCH  14  15
ATOM     15  C   UNL     1       1.856   4.969  20.239  0.00  0.00    +0.000 A 
ATOM     16  C   UNL     1       2.274   4.330  21.416  0.00  0.00    +0.000 A 
ATOM     17  C   UNL     1       2.092   2.954  21.578  0.00  0.00    +0.000 A 
ATOM     18  C   UNL     1       1.473   2.207  20.578  0.00  0.00    +0.000 A 
ATOM     19  C   UNL     1       1.019   2.838  19.423  0.00  0.00    +0.000 A 
ATOM     20  C   UNL     1       1.207   4.210  19.256  0.00  0.00    +0.000 A 
ENDBRANCH  14  15
ENDBRANCH  13  14
ENDBRANCH   3  13
TORSDOF 4
ENDMDL
