MODEL 1
REMARK VINA RESULT:      -8.1      0.000      0.000
REMARK  Name = 
REMARK  4 active torsions:
REMARK  status: ('A' for Active; 'I' for Inactive)
REMARK    1  A    between atoms: C_2  and  C_11
REMARK    2  A    between atoms: N_3  and  C_4
REMARK    3  A    between atoms: C_9  and  O_10
REMARK    4  A    between atoms: C_14  and  C_15
REMARK                            x       y       z     vdW  Elec       q    Type
REMARK                         _______ _______ _______ _____ _____    ______ ____
ROOT
ATOM      1  C   UNL     1       2.305   7.342  19.124  0.00  0.00    +0.000 A 
ATOM      2  C   UNL     1       1.872   7.339  20.453  0.00  0.00    +0.000 A 
ATOM      3  C   UNL     1       1.150   8.438  20.953  0.00  0.00    +0.000 A 
ATOM      4  C   UNL     1       0.844   9.547  20.142  0.00  0.00    +0.000 A 
ATOM      5  C   UNL     1       1.291   9.534  18.816  0.00  0.00    +0.000 A 
ATOM      6  C   UNL     1       2.006   8.444  18.314  0.00  0.00    +0.000 A 
ENDROOT
BRANCH   4   7
ATOM      7  C   UNL     1       0.033  10.650  20.680  0.00  0.00    +0.000 A 
ATOM      8  N   UNL     1       0.171  11.212  21.869  0.00  0.00    +0.000 NA
ATOM      9  C   UNL     1      -0.867  12.105  21.998  0.00  0.00    +0.000 A 
ATOM     10  C   UNL     1      -1.220  12.930  23.075  0.00  0.00    +0.000 A 
ATOM     11  C   UNL     1      -2.369  13.726  22.965  0.00  0.00    +0.000 A 
ATOM     12  C   UNL     1      -3.145  13.706  21.803  0.00  0.00    +0.000 A 
ATOM     13  C   UNL     1      -2.797  12.903  20.710  0.00  0.00    +0.000 A 
ATOM     14  C   UNL     1      -1.651  12.119  20.853  0.00  0.00    +0.000 A 
ATOM     15  N   UNL     1      -1.031  11.226  20.018  0.00  0.00    +0.000 N 
ATOM     16  H   UNL     1      -1.344  10.995  19.089  0.00  0.00    +0.000 HD
ENDBRANCH   4   7
BRANCH   1  18
ATOM     17  O   UNL     1       2.513   5.104  18.455  0.00  0.00    +0.000 OA
ATOM     18  C   UNL     1       3.039   6.214  18.484  0.00  0.00    +0.000 C 
ATOM     19  N   UNL     1       4.266   6.467  17.911  0.00  0.00    +0.000 N 
ATOM     20  H   UNL     1       4.522   7.437  17.789  0.00  0.00    +0.000 HD
BRANCH  19  21
ATOM     21  C   UNL     1       4.969   5.477  17.058  0.00  0.00    +0.000 C 
ATOM     22  C   UNL     1       5.117   6.083  15.651  0.00  0.00    +0.000 C 
ATOM     23  C   UNL     1       5.946   5.225  14.705  0.00  0.00    +0.000 C 
ATOM     24  C   UNL     1       7.324   4.954  15.286  0.00  0.00    +0.000 C 
ATOM     25  C   UNL     1       7.203   4.258  16.629  0.00  0.00    +0.000 C 
ATOM     26  C   UNL     1       6.347   5.029  17.638  0.00  0.00    +0.000 C 
BRANCH  26  27
ATOM     27  O   UNL     1       6.214   4.138  18.748  0.00  0.00    +0.000 OA
ATOM     28  H   UNL     1       5.371   4.351  19.205  0.00  0.00    +0.000 HD
ENDBRANCH  26  27
ENDBRANCH  19  21
ENDBRANCH   1  18
TORSDOF 4
ENDMDL
MODEL 2
REMARK VINA RESULT:      -7.9      6.594      8.738
REMARK  Name = 
REMARK  4 active torsions:
REMARK  status: ('A' for Active; 'I' for Inactive)
REMARK    1  A    between atoms: C_2  and  C_11
REMARK    2  A    between atoms: N_3  and  C_4
REMARK    3  A    between atoms: C_9  and  O_10
REMARK    4  A    between atoms: C_14  and  C_15
REMARK                            x       y       z     vdW  Elec       q    Type
REMARK                         _______ _______ _______ _____ _____    ______ ____
ROOT
ATOM      1  C   UNL     1       6.514   6.113  18.157  0.00  0.00    +0.000 A 
ATOM      2  C   UNL     1       7.643   6.118  18.981  0.00  0.00    +0.000 A 
ATOM      3  C   UNL     1       8.447   7.270  19.051  0.00  0.00    +0.000 A 
ATOM      4  C   UNL     1       8.140   8.429  18.314  0.00  0.00    +0.000 A 
ATOM      5  C   UNL     1       7.009   8.402  17.491  0.00  0.00    +0.000 A 
ATOM      6  C   UNL     1       6.205   7.262  17.419  0.00  0.00    +0.000 A 
ENDROOT
BRANCH   4   7
ATOM      7  C   UNL     1       8.968   9.636  18.461  0.00  0.00    +0.000 A 
ATOM      8  N   UNL     1       9.347  10.445  17.486  0.00  0.00    +0.000 NA
ATOM      9  C   UNL     1      10.202  11.360  18.054  0.00  0.00    +0.000 A 
ATOM     10  C   UNL     1      10.923  12.409  17.466  0.00  0.00    +0.000 A 
ATOM     11  C   UNL     1      11.773  13.178  18.274  0.00  0.00    +0.000 A 
ATOM     12  C   UNL     1      11.896  12.912  19.640  0.00  0.00    +0.000 A 
ATOM     13  C   UNL     1      11.169  11.882  20.248  0.00  0.00    +0.000 A 
ATOM     14  C   UNL     1      10.336  11.132  19.416  0.00  0.00    +0.000 A 
ATOM     15  N   UNL     1       9.507  10.067  19.655  0.00  0.00    +0.000 N 
ATOM     16  H   UNL     1       9.363   9.640  20.556  0.00  0.00    +0.000 HD
ENDBRANCH   4   7
BRANCH   1  18
ATOM     17  O   UNL     1       5.830   4.065  17.242  0.00  0.00    +0.000 OA
ATOM     18  C   UNL     1       5.573   4.963  18.040  0.00  0.00    +0.000 C 
ATOM     19  N   UNL     1       4.469   4.929  18.863  0.00  0.00    +0.000 N 
ATOM     20  H   UNL     1       4.450   5.587  19.630  0.00  0.00    +0.000 HD
BRANCH  19  21
ATOM     21  C   UNL     1       3.600   3.732  18.987  0.00  0.00    +0.000 C 
ATOM     22  C   UNL     1       3.073   3.677  20.432  0.00  0.00    +0.000 C 
ATOM     23  C   UNL     1       2.054   2.570  20.663  0.00  0.00    +0.000 C 
ATOM     24  C   UNL     1       0.883   2.700  19.702  0.00  0.00    +0.000 C 
ATOM     25  C   UNL     1       1.371   2.649  18.266  0.00  0.00    +0.000 C 
ATOM     26  C   UNL     1       2.436   3.703  17.949  0.00  0.00    +0.000 C 
BRANCH  26  27
ATOM     27  O   UNL     1       2.882   3.375  16.630  0.00  0.00    +0.000 OA
ATOM     28  H   UNL     1       2.575   4.085  16.025  0.00  0.00    +0.000 HD
ENDBRANCH  26  27
ENDBRANCH  19  21
ENDBRANCH   1  18
TORSDOF 4
ENDMDL
MODEL 3
REMARK VINA RESULT:      -7.9      0.958      1.408
REMARK  Name = 
REMARK  4 active torsions:
REMARK  status: ('A' for Active; 'I' for Inactive)
REMARK    1  A    between atoms: C_2  and  C_11
REMARK    2  A    between atoms: N_3  and  C_4
REMARK    3  A    between atoms: C_9  and  O_10
REMARK    4  A    between atoms: C_14  and  C_15
REMARK                            x       y       z     vdW  Elec       q    Type
REMARK                         _______ _______ _______ _____ _____    ______ ____
ROOT
ATOM      1  C   UNL     1       2.236   7.288  18.923  0.00  0.00    +0.000 A 
ATOM      2  C   UNL     1       1.931   8.503  18.303  0.00  0.00    +0.000 A 
ATOM      3  C   UNL     1       1.295   9.519  19.039  0.00  0.00    +0.000 A 
ATOM      4  C   UNL     1       0.960   9.346  20.395  0.00  0.00    +0.000 A 
ATOM      5  C   UNL     1       1.269   8.121  20.996  0.00  0.00    +0.000 A 
ATOM      6  C   UNL     1       1.903   7.110  20.271  0.00  0.00    +0.000 A 
ENDROOT
BRANCH   4   7
ATOM      7  C   UNL     1       0.352  10.453  21.150  0.00  0.00    +0.000 A 
ATOM      8  N   UNL     1      -0.662  10.358  21.992  0.00  0.00    +0.000 NA
ATOM      9  C   UNL     1      -0.975  11.644  22.366  0.00  0.00    +0.000 A 
ATOM     10  C   UNL     1      -1.995  12.118  23.204  0.00  0.00    +0.000 A 
ATOM     11  C   UNL     1      -2.125  13.502  23.389  0.00  0.00    +0.000 A 
ATOM     12  C   UNL     1      -1.253  14.394  22.758  0.00  0.00    +0.000 A 
ATOM     13  C   UNL     1      -0.218  13.938  21.935  0.00  0.00    +0.000 A 
ATOM     14  C   UNL     1      -0.117  12.555  21.767  0.00  0.00    +0.000 A 
ATOM     15  N   UNL     1       0.742  11.772  21.042  0.00  0.00    +0.000 N 
ATOM     16  H   UNL     1       1.502  12.119  20.480  0.00  0.00    +0.000 HD
ENDBRANCH   4   7
BRANCH   1  18
ATOM     17  O   UNL     1       2.322   5.135  17.998  0.00  0.00    +0.000 OA
ATOM     18  C   UNL     1       2.945   6.164  18.249  0.00  0.00    +0.000 C 
ATOM     19  N   UNL     1       4.265   6.335  17.893  0.00  0.00    +0.000 N 
ATOM     20  H   UNL     1       4.632   7.275  17.939  0.00  0.00    +0.000 HD
BRANCH  19  21
ATOM     21  C   UNL     1       4.990   5.375  17.025  0.00  0.00    +0.000 C 
ATOM     22  C   UNL     1       5.094   5.993  15.619  0.00  0.00    +0.000 C 
ATOM     23  C   UNL     1       5.939   5.170  14.656  0.00  0.00    +0.000 C 
ATOM     24  C   UNL     1       7.335   4.946  15.215  0.00  0.00    +0.000 C 
ATOM     25  C   UNL     1       7.260   4.239  16.555  0.00  0.00    +0.000 C 
ATOM     26  C   UNL     1       6.391   4.974  17.581  0.00  0.00    +0.000 C 
BRANCH  26  27
ATOM     27  O   UNL     1       6.307   4.073  18.688  0.00  0.00    +0.000 OA
ATOM     28  H   UNL     1       5.428   4.193  19.107  0.00  0.00    +0.000 HD
ENDBRANCH  26  27
ENDBRANCH  19  21
ENDBRANCH   1  18
TORSDOF 4
ENDMDL
MODEL 4
REMARK VINA RESULT:      -7.8      0.941      1.486
REMARK  Name = 
REMARK  4 active torsions:
REMARK  status: ('A' for Active; 'I' for Inactive)
REMARK    1  A    between atoms: C_2  and  C_11
REMARK    2  A    between atoms: N_3  and  C_4
REMARK    3  A    between atoms: C_9  and  O_10
REMARK    4  A    between atoms: C_14  and  C_15
REMARK                            x       y       z     vdW  Elec       q    Type
REMARK                         _______ _______ _______ _____ _____    ______ ____
ROOT
ATOM      1  C   UNL     1       2.284   7.450  18.809  0.00  0.00    +0.000 A 
ATOM      2  C   UNL     1       1.952   8.603  18.093  0.00  0.00    +0.000 A 
ATOM      3  C   UNL     1       1.321   9.674  18.752  0.00  0.00    +0.000 A 
ATOM      4  C   UNL     1       1.019   9.618  20.126  0.00  0.00    +0.000 A 
ATOM      5  C   UNL     1       1.355   8.453  20.824  0.00  0.00    +0.000 A 
ATOM      6  C   UNL     1       1.984   7.388  20.175  0.00  0.00    +0.000 A 
ENDROOT
BRANCH   4   7
ATOM      7  C   UNL     1       0.416  10.782  20.795  0.00  0.00    +0.000 A 
ATOM      8  N   UNL     1       0.828  12.034  20.702  0.00  0.00    +0.000 NA
ATOM      9  C   UNL     1       0.060  12.760  21.581  0.00  0.00    +0.000 A 
ATOM     10  C   UNL     1       0.108  14.122  21.912  0.00  0.00    +0.000 A 
ATOM     11  C   UNL     1      -0.772  14.609  22.889  0.00  0.00    +0.000 A 
ATOM     12  C   UNL     1      -1.686  13.759  23.517  0.00  0.00    +0.000 A 
ATOM     13  C   UNL     1      -1.762  12.402  23.186  0.00  0.00    +0.000 A 
ATOM     14  C   UNL     1      -0.869  11.946  22.213  0.00  0.00    +0.000 A 
ATOM     15  N   UNL     1      -0.654  10.710  21.661  0.00  0.00    +0.000 N 
ATOM     16  H   UNL     1      -1.168   9.877  21.899  0.00  0.00    +0.000 HD
ENDBRANCH   4   7
BRANCH   1  18
ATOM     17  O   UNL     1       2.333   5.291  17.896  0.00  0.00    +0.000 OA
ATOM     18  C   UNL     1       2.990   6.278  18.220  0.00  0.00    +0.000 C 
ATOM     19  N   UNL     1       4.350   6.359  18.020  0.00  0.00    +0.000 N 
ATOM     20  H   UNL     1       4.771   7.274  18.109  0.00  0.00    +0.000 HD
BRANCH  19  21
ATOM     21  C   UNL     1       5.106   5.348  17.239  0.00  0.00    +0.000 C 
ATOM     22  C   UNL     1       4.977   5.708  15.748  0.00  0.00    +0.000 C 
ATOM     23  C   UNL     1       5.822   4.828  14.837  0.00  0.00    +0.000 C 
ATOM     24  C   UNL     1       7.285   4.874  15.243  0.00  0.00    +0.000 C 
ATOM     25  C   UNL     1       7.448   4.419  16.682  0.00  0.00    +0.000 C 
ATOM     26  C   UNL     1       6.599   5.222  17.672  0.00  0.00    +0.000 C 
BRANCH  26  27
ATOM     27  O   UNL     1       6.755   4.534  18.916  0.00  0.00    +0.000 OA
ATOM     28  H   UNL     1       6.968   5.201  19.603  0.00  0.00    +0.000 HD
ENDBRANCH  26  27
ENDBRANCH  19  21
ENDBRANCH   1  18
TORSDOF 4
ENDMDL
MODEL 5
REMARK VINA RESULT:      -7.8      1.139      1.503
REMARK  Name = 
REMARK  4 active torsions:
REMARK  status: ('A' for Active; 'I' for Inactive)
REMARK    1  A    between atoms: C_2  and  C_11
REMARK    2  A    between atoms: N_3  and  C_4
REMARK    3  A    between atoms: C_9  and  O_10
REMARK    4  A    between atoms: C_14  and  C_15
REMARK                            x       y       z     vdW  Elec       q    Type
REMARK                         _______ _______ _______ _____ _____    ______ ____
ROOT
ATOM      1  C   UNL     1       2.573   7.830  18.432  0.00  0.00    +0.000 A 
ATOM      2  C   UNL     1       2.050   8.963  17.803  0.00  0.00    +0.000 A 
ATOM      3  C   UNL     1       1.153   9.794  18.499  0.00  0.00    +0.000 A 
ATOM      4  C   UNL     1       0.769   9.515  19.824  0.00  0.00    +0.000 A 
ATOM      5  C   UNL     1       1.300   8.373  20.434  0.00  0.00    +0.000 A 
ATOM      6  C   UNL     1       2.193   7.547  19.749  0.00  0.00    +0.000 A 
ENDROOT
BRANCH   4   7
ATOM      7  C   UNL     1      -0.121  10.441  20.542  0.00  0.00    +0.000 A 
ATOM      8  N   UNL     1      -0.334  10.463  21.847  0.00  0.00    +0.000 NA
ATOM      9  C   UNL     1      -1.322  11.395  22.062  0.00  0.00    +0.000 A 
ATOM     10  C   UNL     1      -1.956  11.782  23.251  0.00  0.00    +0.000 A 
ATOM     11  C   UNL     1      -2.980  12.738  23.188  0.00  0.00    +0.000 A 
ATOM     12  C   UNL     1      -3.358  13.302  21.966  0.00  0.00    +0.000 A 
ATOM     13  C   UNL     1      -2.723  12.943  20.772  0.00  0.00    +0.000 A 
ATOM     14  C   UNL     1      -1.711  11.985  20.867  0.00  0.00    +0.000 A 
ATOM     15  N   UNL     1      -0.902  11.399  19.930  0.00  0.00    +0.000 N 
ATOM     16  H   UNL     1      -0.921  11.604  18.944  0.00  0.00    +0.000 HD
ENDBRANCH   4   7
BRANCH   1  18
ATOM     17  O   UNL     1       4.164   7.281  16.799  0.00  0.00    +0.000 OA
ATOM     18  C   UNL     1       3.560   6.908  17.802  0.00  0.00    +0.000 C 
ATOM     19  N   UNL     1       3.790   5.685  18.392  0.00  0.00    +0.000 N 
ATOM     20  H   UNL     1       3.418   5.550  19.323  0.00  0.00    +0.000 HD
BRANCH  19  21
ATOM     21  C   UNL     1       4.904   4.796  17.981  0.00  0.00    +0.000 C 
ATOM     22  C   UNL     1       4.758   4.518  16.475  0.00  0.00    +0.000 C 
ATOM     23  C   UNL     1       5.918   3.726  15.888  0.00  0.00    +0.000 C 
ATOM     24  C   UNL     1       7.241   4.429  16.146  0.00  0.00    +0.000 C 
ATOM     25  C   UNL     1       7.456   4.617  17.636  0.00  0.00    +0.000 C 
ATOM     26  C   UNL     1       6.314   5.370  18.324  0.00  0.00    +0.000 C 
BRANCH  26  27
ATOM     27  O   UNL     1       6.618   5.285  19.719  0.00  0.00    +0.000 OA
ATOM     28  H   UNL     1       6.725   4.336  19.945  0.00  0.00    +0.000 HD
ENDBRANCH  26  27
ENDBRANCH  19  21
ENDBRANCH   1  18
TORSDOF 4
ENDMDL
MODEL 6
REMARK VINA RESULT:      -7.8      0.585      1.178
REMARK  Name = 
REMARK  4 active torsions:
REMARK  status: ('A' for Active; 'I' for Inactive)
REMARK    1  A    between atoms: C_2  and  C_11
REMARK    2  A    between atoms: N_3  and  C_4
REMARK    3  A    between atoms: C_9  and  O_10
REMARK    4  A    between atoms: C_14  and  C_15
REMARK                            x       y       z     vdW  Elec       q    Type
REMARK                         _______ _______ _______ _____ _____    ______ ____
ROOT
ATOM      1  C   UNL     1       2.261   7.440  18.918  0.00  0.00    +0.000 A 
ATOM      2  C   UNL     1       1.899   7.480  20.267  0.00  0.00    +0.000 A 
ATOM      3  C   UNL     1       1.208   8.597  20.770  0.00  0.00    +0.000 A 
ATOM      4  C   UNL     1       0.863   9.683  19.942  0.00  0.00    +0.000 A 
ATOM      5  C   UNL     1       1.239   9.626  18.595  0.00  0.00    +0.000 A 
ATOM      6  C   UNL     1       1.923   8.517  18.091  0.00  0.00    +0.000 A 
ENDROOT
BRANCH   4   7
ATOM      7  C   UNL     1       0.085  10.806  20.488  0.00  0.00    +0.000 A 
ATOM      8  N   UNL     1      -0.336  11.862  19.814  0.00  0.00    +0.000 NA
ATOM      9  C   UNL     1      -0.906  12.707  20.736  0.00  0.00    +0.000 A 
ATOM     10  C   UNL     1      -1.467  13.982  20.570  0.00  0.00    +0.000 A 
ATOM     11  C   UNL     1      -1.948  14.659  21.700  0.00  0.00    +0.000 A 
ATOM     12  C   UNL     1      -1.877  14.076  22.968  0.00  0.00    +0.000 A 
ATOM     13  C   UNL     1      -1.339  12.798  23.151  0.00  0.00    +0.000 A 
ATOM     14  C   UNL     1      -0.865  12.151  22.007  0.00  0.00    +0.000 A 
ATOM     15  N   UNL     1      -0.277  10.928  21.812  0.00  0.00    +0.000 N 
ATOM     16  H   UNL     1      -0.095  10.255  22.540  0.00  0.00    +0.000 HD
ENDBRANCH   4   7
BRANCH   1  18
ATOM     17  O   UNL     1       2.320   5.262  18.050  0.00  0.00    +0.000 OA
ATOM     18  C   UNL     1       2.956   6.289  18.276  0.00  0.00    +0.000 C 
ATOM     19  N   UNL     1       4.279   6.433  17.920  0.00  0.00    +0.000 N 
ATOM     20  H   UNL     1       4.659   7.369  17.942  0.00  0.00    +0.000 HD
BRANCH  19  21
ATOM     21  C   UNL     1       4.994   5.441  17.079  0.00  0.00    +0.000 C 
ATOM     22  C   UNL     1       5.129   6.030  15.663  0.00  0.00    +0.000 C 
ATOM     23  C   UNL     1       5.968   5.171  14.727  0.00  0.00    +0.000 C 
ATOM     24  C   UNL     1       7.351   4.926  15.307  0.00  0.00    +0.000 C 
ATOM     25  C   UNL     1       7.243   4.247  16.660  0.00  0.00    +0.000 C 
ATOM     26  C   UNL     1       6.379   5.020  17.660  0.00  0.00    +0.000 C 
BRANCH  26  27
ATOM     27  O   UNL     1       6.261   4.142  18.783  0.00  0.00    +0.000 OA
ATOM     28  H   UNL     1       7.084   3.610  18.836  0.00  0.00    +0.000 HD
ENDBRANCH  26  27
ENDBRANCH  19  21
ENDBRANCH   1  18
TORSDOF 4
ENDMDL
MODEL 7
REMARK VINA RESULT:      -7.7      2.231      3.617
REMARK  Name = 
REMARK  4 active torsions:
REMARK  status: ('A' for Active; 'I' for Inactive)
REMARK    1  A    between atoms: C_2  and  C_11
REMARK    2  A    between atoms: N_3  and  C_4
REMARK    3  A    between atoms: C_9  and  O_10
REMARK    4  A    between atoms: C_14  and  C_15
REMARK                            x       y       z     vdW  Elec       q    Type
REMARK                         _______ _______ _______ _____ _____    ______ ____
ROOT
ATOM      1  C   UNL     1       4.309   5.638  17.559  0.00  0.00    +0.000 A 
ATOM      2  C   UNL     1       3.761   5.183  18.762  0.00  0.00    +0.000 A 
ATOM      3  C   UNL     1       2.925   6.031  19.510  0.00  0.00    +0.000 A 
ATOM      4  C   UNL     1       2.618   7.334  19.075  0.00  0.00    +0.000 A 
ATOM      5  C   UNL     1       3.181   7.772  17.871  0.00  0.00    +0.000 A 
ATOM      6  C   UNL     1       4.009   6.934  17.123  0.00  0.00    +0.000 A 
ENDROOT
BRANCH   4   7
ATOM      7  C   UNL     1       1.690   8.170  19.852  0.00  0.00    +0.000 A 
ATOM      8  N   UNL     1       1.070   9.254  19.421  0.00  0.00    +0.000 NA
ATOM      9  C   UNL     1       0.409   9.780  20.506  0.00  0.00    +0.000 A 
ATOM     10  C   UNL     1      -0.362  10.945  20.617  0.00  0.00    +0.000 A 
ATOM     11  C   UNL     1      -0.897  11.282  21.869  0.00  0.00    +0.000 A 
ATOM     12  C   UNL     1      -0.675  10.471  22.984  0.00  0.00    +0.000 A 
ATOM     13  C   UNL     1       0.076   9.294  22.888  0.00  0.00    +0.000 A 
ATOM     14  C   UNL     1       0.599   8.988  21.630  0.00  0.00    +0.000 A 
ATOM     15  N   UNL     1       1.371   7.952  21.176  0.00  0.00    +0.000 N 
ATOM     16  H   UNL     1       1.695   7.184  21.743  0.00  0.00    +0.000 HD
ENDBRANCH   4   7
BRANCH   1  18
ATOM     17  O   UNL     1       5.495   3.683  17.038  0.00  0.00    +0.000 OA
ATOM     18  C   UNL     1       5.171   4.809  16.670  0.00  0.00    +0.000 C 
ATOM     19  N   UNL     1       5.539   5.321  15.445  0.00  0.00    +0.000 N 
ATOM     20  H   UNL     1       5.057   6.153  15.134  0.00  0.00    +0.000 HD
BRANCH  19  21
ATOM     21  C   UNL     1       6.199   4.499  14.400  0.00  0.00    +0.000 C 
ATOM     22  C   UNL     1       5.100   3.768  13.609  0.00  0.00    +0.000 C 
ATOM     23  C   UNL     1       5.630   2.992  12.412  0.00  0.00    +0.000 C 
ATOM     24  C   UNL     1       6.406   3.902  11.475  0.00  0.00    +0.000 C 
ATOM     25  C   UNL     1       7.563   4.553  12.210  0.00  0.00    +0.000 C 
ATOM     26  C   UNL     1       7.131   5.325  13.460  0.00  0.00    +0.000 C 
BRANCH  26  27
ATOM     27  O   UNL     1       8.358   5.700  14.091  0.00  0.00    +0.000 OA
ATOM     28  H   UNL     1       8.933   6.110  13.409  0.00  0.00    +0.000 HD
ENDBRANCH  26  27
ENDBRANCH  19  21
ENDBRANCH   1  18
TORSDOF 4
ENDMDL
MODEL 8
REMARK VINA RESULT:      -7.7      3.828     10.535
REMARK  Name = 
REMARK  4 active torsions:
REMARK  status: ('A' for Active; 'I' for Inactive)
REMARK    1  A    between atoms: C_2  and  C_11
REMARK    2  A    between atoms: N_3  and  C_4
REMARK    3  A    between atoms: C_9  and  O_10
REMARK    4  A    between atoms: C_14  and  C_15
REMARK                            x       y       z     vdW  Elec       q    Type
REMARK                         _______ _______ _______ _____ _____    ______ ____
ROOT
ATOM      1  C   UNL     1      -0.836  10.950  22.325  0.00  0.00    +0.000 A 
ATOM      2  C   UNL     1      -0.356   9.833  23.014  0.00  0.00    +0.000 A 
ATOM      3  C   UNL     1       0.408   8.869  22.331  0.00  0.00    +0.000 A 
ATOM      4  C   UNL     1       0.710   9.004  20.963  0.00  0.00    +0.000 A 
ATOM      5  C   UNL     1       0.216  10.127  20.290  0.00  0.00    +0.000 A 
ATOM      6  C   UNL     1      -0.541  11.088  20.964  0.00  0.00    +0.000 A 
ENDROOT
BRANCH   4   7
ATOM      7  C   UNL     1       1.565   8.009  20.296  0.00  0.00    +0.000 A 
ATOM      8  N   UNL     1       2.105   8.125  19.095  0.00  0.00    +0.000 NA
ATOM      9  C   UNL     1       2.714   6.921  18.827  0.00  0.00    +0.000 A 
ATOM     10  C   UNL     1       3.393   6.488  17.680  0.00  0.00    +0.000 A 
ATOM     11  C   UNL     1       3.889   5.177  17.646  0.00  0.00    +0.000 A 
ATOM     12  C   UNL     1       3.718   4.318  18.735  0.00  0.00    +0.000 A 
ATOM     13  C   UNL     1       3.060   4.739  19.896  0.00  0.00    +0.000 A 
ATOM     14  C   UNL     1       2.574   6.049  19.897  0.00  0.00    +0.000 A 
ATOM     15  N   UNL     1       1.886   6.779  20.831  0.00  0.00    +0.000 N 
ATOM     16  H   UNL     1       1.616   6.441  21.741  0.00  0.00    +0.000 HD
ENDBRANCH   4   7
BRANCH   1  18
ATOM     17  O   UNL     1      -1.014  12.993  23.463  0.00  0.00    +0.000 OA
ATOM     18  C   UNL     1      -1.618  12.048  22.960  0.00  0.00    +0.000 C 
ATOM     19  N   UNL     1      -2.993  11.984  22.924  0.00  0.00    +0.000 N 
ATOM     20  H   UNL     1      -3.403  11.295  22.309  0.00  0.00    +0.000 HD
BRANCH  19  21
ATOM     21  C   UNL     1      -3.857  13.124  23.321  0.00  0.00    +0.000 C 
ATOM     22  C   UNL     1      -3.890  14.124  22.151  0.00  0.00    +0.000 C 
ATOM     23  C   UNL     1      -4.854  15.281  22.370  0.00  0.00    +0.000 C 
ATOM     24  C   UNL     1      -6.261  14.773  22.640  0.00  0.00    +0.000 C 
ATOM     25  C   UNL     1      -6.270  13.867  23.858  0.00  0.00    +0.000 C 
ATOM     26  C   UNL     1      -5.294  12.692  23.747  0.00  0.00    +0.000 C 
BRANCH  26  27
ATOM     27  O   UNL     1      -5.325  12.080  25.039  0.00  0.00    +0.000 OA
ATOM     28  H   UNL     1      -4.651  11.366  25.050  0.00  0.00    +0.000 HD
ENDBRANCH  26  27
ENDBRANCH  19  21
ENDBRANCH   1  18
TORSDOF 4
ENDMDL
MODEL 9
REMARK VINA RESULT:      -7.6      3.944     10.583
REMARK  Name = 
REMARK  4 active torsions:
REMARK  status: ('A' for Active; 'I' for Inactive)
REMARK    1  A    between atoms: C_2  and  C_11
REMARK    2  A    between atoms: N_3  and  C_4
REMARK    3  A    between atoms: C_9  and  O_10
REMARK    4  A    between atoms: C_14  and  C_15
REMARK                            x       y       z     vdW  Elec       q    Type
REMARK                         _______ _______ _______ _____ _____    ______ ____
ROOT
ATOM      1  C   UNL     1      -0.671  11.232  22.287  0.00  0.00    +0.000 A 
ATOM      2  C   UNL     1      -0.032  11.420  21.059  0.00  0.00    +0.000 A 
ATOM      3  C   UNL     1       0.708  10.368  20.491  0.00  0.00    +0.000 A 
ATOM      4  C   UNL     1       0.818   9.117  21.128  0.00  0.00    +0.000 A 
ATOM      5  C   UNL     1       0.175   8.950  22.360  0.00  0.00    +0.000 A 
ATOM      6  C   UNL     1      -0.563   9.992  22.927  0.00  0.00    +0.000 A 
ENDROOT
BRANCH   4   7
ATOM      7  C   UNL     1       1.547   8.019  20.475  0.00  0.00    +0.000 A 
ATOM      8  N   UNL     1       2.120   8.064  19.284  0.00  0.00    +0.000 NA
ATOM      9  C   UNL     1       2.571   6.792  19.024  0.00  0.00    +0.000 A 
ATOM     10  C   UNL     1       3.209   6.274  17.888  0.00  0.00    +0.000 A 
ATOM     11  C   UNL     1       3.529   4.909  17.859  0.00  0.00    +0.000 A 
ATOM     12  C   UNL     1       3.226   4.079  18.942  0.00  0.00    +0.000 A 
ATOM     13  C   UNL     1       2.607   4.582  20.091  0.00  0.00    +0.000 A 
ATOM     14  C   UNL     1       2.297   5.944  20.088  0.00  0.00    +0.000 A 
ATOM     15  N   UNL     1       1.693   6.757  21.011  0.00  0.00    +0.000 N 
ATOM     16  H   UNL     1       1.364   6.457  21.914  0.00  0.00    +0.000 HD
ENDBRANCH   4   7
BRANCH   1  18
ATOM     17  O   UNL     1      -0.962  13.226  23.487  0.00  0.00    +0.000 OA
ATOM     18  C   UNL     1      -1.512  12.265  22.956  0.00  0.00    +0.000 C 
ATOM     19  N   UNL     1      -2.882  12.125  22.917  0.00  0.00    +0.000 N 
ATOM     20  H   UNL     1      -3.253  11.432  22.282  0.00  0.00    +0.000 HD
BRANCH  19  21
ATOM     21  C   UNL     1      -3.808  13.201  23.349  0.00  0.00    +0.000 C 
ATOM     22  C   UNL     1      -4.118  14.079  22.124  0.00  0.00    +0.000 C 
ATOM     23  C   UNL     1      -5.170  15.147  22.393  0.00  0.00    +0.000 C 
ATOM     24  C   UNL     1      -6.457  14.523  22.906  0.00  0.00    +0.000 C 
ATOM     25  C   UNL     1      -6.193  13.738  24.178  0.00  0.00    +0.000 C 
ATOM     26  C   UNL     1      -5.113  12.664  24.015  0.00  0.00    +0.000 C 
BRANCH  26  27
ATOM     27  O   UNL     1      -4.893  12.175  25.341  0.00  0.00    +0.000 OA
ATOM     28  H   UNL     1      -5.769  12.081  25.775  0.00  0.00    +0.000 HD
ENDBRANCH  26  27
ENDBRANCH  19  21
ENDBRANCH   1  18
TORSDOF 4
ENDMDL
