MODEL 1
REMARK VINA RESULT:      -6.4      0.000      0.000
REMARK  Name = 
REMARK  7 active torsions:
REMARK  status: ('A' for Active; 'I' for Inactive)
REMARK    1  A    between atoms: N_2  and  C_4
REMARK    2  A    between atoms: C_7  and  C_8
REMARK    3  A    between atoms: C_13  and  C_14
REMARK    4  A    between atoms: C_14  and  O_15
REMARK    5  A    between atoms: C_16  and  O_17
REMARK    6  A    between atoms: C_18  and  O_19
REMARK    7  A    between atoms: C_20  and  O_21
REMARK                            x       y       z     vdW  Elec       q    Type
REMARK                         _______ _______ _______ _____ _____    ______ ____
ROOT
ATOM      1  C   UNL     1       2.139   8.906  18.640  0.00  0.00    +0.000 C 
ATOM      2  N   UNL     1       2.411   9.998  17.988  0.00  0.00    +0.000 NA
ATOM      3  O   UNL     1       1.795  11.129  18.607  0.00  0.00    +0.000 OA
ATOM      4  C   UNL     1       0.732  10.718  19.488  0.00  0.00    +0.000 C 
ATOM      5  O   UNL     1       0.613  11.579  20.623  0.00  0.00    +0.000 OA
ATOM      6  C   UNL     1       0.212  12.921  20.308  0.00  0.00    +0.000 C 
ATOM      7  C   UNL     1      -1.139  12.939  19.589  0.00  0.00    +0.000 C 
ATOM      8  C   UNL     1      -1.052  12.080  18.319  0.00  0.00    +0.000 C 
ATOM      9  C   UNL     1      -0.604  10.655  18.680  0.00  0.00    +0.000 C 
ATOM     10  S   UNL     1       1.162   9.059  20.070  0.00  0.00    +0.000 S 
ENDROOT
BRANCH   1  14
ATOM     11  C   UNL     1       3.472   5.014  17.458  0.00  0.00    +0.000 A 
ATOM     12  C   UNL     1       2.273   5.157  18.174  0.00  0.00    +0.000 A 
ATOM     13  C   UNL     1       1.841   6.435  18.552  0.00  0.00    +0.000 A 
ATOM     14  C   UNL     1       2.593   7.566  18.207  0.00  0.00    +0.000 A 
ATOM     15  C   UNL     1       3.793   7.407  17.493  0.00  0.00    +0.000 A 
ATOM     16  C   UNL     1       4.233   6.135  17.116  0.00  0.00    +0.000 A 
BRANCH  11  18
ATOM     17  O   UNL     1       3.248   2.705  17.397  0.00  0.00    +0.000 OA
ATOM     18  N   UNL     1       3.943   3.676  17.072  0.00  0.00    +0.000 N 
ATOM     19  O   UNL     1       5.010   3.602  16.445  0.00  0.00    +0.000 OA
ENDBRANCH  11  18
ENDBRANCH   1  14
BRANCH   7  20
ATOM     20  O   UNL     1      -1.533  14.277  19.292  0.00  0.00    +0.000 OA
ATOM     21  H   UNL     1      -1.622  14.375  18.327  0.00  0.00    +0.000 HD
ENDBRANCH   7  20
BRANCH   8  22
ATOM     22  O   UNL     1      -2.317  12.080  17.644  0.00  0.00    +0.000 OA
ATOM     23  H   UNL     1      -2.176  11.849  16.708  0.00  0.00    +0.000 HD
ENDBRANCH   8  22
BRANCH   9  24
ATOM     24  O   UNL     1      -0.518   9.860  17.482  0.00  0.00    +0.000 OA
ATOM     25  H   UNL     1       0.293   9.317  17.551  0.00  0.00    +0.000 HD
ENDBRANCH   9  24
BRANCH   6  26
ATOM     26  C   UNL     1       0.138  13.693  21.632  0.00  0.00    +0.000 C 
BRANCH  26  27
ATOM     27  O   UNL     1       1.449  14.090  22.033  0.00  0.00    +0.000 OA
ATOM     28  H   UNL     1       1.985  13.275  22.049  0.00  0.00    +0.000 HD
ENDBRANCH  26  27
ENDBRANCH   6  26
TORSDOF 7
ENDMDL
MODEL 2
REMARK VINA RESULT:      -6.4      2.837      8.681
REMARK  Name = 
REMARK  7 active torsions:
REMARK  status: ('A' for Active; 'I' for Inactive)
REMARK    1  A    between atoms: N_2  and  C_4
REMARK    2  A    between atoms: C_7  and  C_8
REMARK    3  A    between atoms: C_13  and  C_14
REMARK    4  A    between atoms: C_14  and  O_15
REMARK    5  A    between atoms: C_16  and  O_17
REMARK    6  A    between atoms: C_18  and  O_19
REMARK    7  A    between atoms: C_20  and  O_21
REMARK                            x       y       z     vdW  Elec       q    Type
REMARK                         _______ _______ _______ _____ _____    ______ ____
ROOT
ATOM      1  C   UNL     1       2.248   7.208  19.775  0.00  0.00    +0.000 C 
ATOM      2  N   UNL     1       3.005   6.439  20.501  0.00  0.00    +0.000 NA
ATOM      3  O   UNL     1       3.659   5.458  19.695  0.00  0.00    +0.000 OA
ATOM      4  C   UNL     1       2.998   5.311  18.424  0.00  0.00    +0.000 C 
ATOM      5  O   UNL     1       3.917   5.004  17.373  0.00  0.00    +0.000 OA
ATOM      6  C   UNL     1       4.559   3.727  17.503  0.00  0.00    +0.000 C 
ATOM      7  C   UNL     1       3.530   2.593  17.544  0.00  0.00    +0.000 C 
ATOM      8  C   UNL     1       2.551   2.835  18.701  0.00  0.00    +0.000 C 
ATOM      9  C   UNL     1       1.891   4.215  18.549  0.00  0.00    +0.000 C 
ATOM     10  S   UNL     1       2.225   6.907  18.062  0.00  0.00    +0.000 S 
ENDROOT
BRANCH   1  14
ATOM     11  C   UNL     1      -0.140  10.366  21.403  0.00  0.00    +0.000 A 
ATOM     12  C   UNL     1       0.254  10.406  20.056  0.00  0.00    +0.000 A 
ATOM     13  C   UNL     1       1.031   9.367  19.529  0.00  0.00    +0.000 A 
ATOM     14  C   UNL     1       1.402   8.284  20.337  0.00  0.00    +0.000 A 
ATOM     15  C   UNL     1       1.004   8.257  21.685  0.00  0.00    +0.000 A 
ATOM     16  C   UNL     1       0.233   9.293  22.219  0.00  0.00    +0.000 A 
BRANCH  11  18
ATOM     17  O   UNL     1      -0.657  11.847  23.112  0.00  0.00    +0.000 OA
ATOM     18  N   UNL     1      -0.939  11.460  21.970  0.00  0.00    +0.000 N 
ATOM     19  O   UNL     1      -1.849  11.930  21.271  0.00  0.00    +0.000 OA
ENDBRANCH  11  18
ENDBRANCH   1  14
BRANCH   7  20
ATOM     20  O   UNL     1       4.179   1.329  17.660  0.00  0.00    +0.000 OA
ATOM     21  H   UNL     1       3.660   0.660  17.177  0.00  0.00    +0.000 HD
ENDBRANCH   7  20
BRANCH   8  22
ATOM     22  O   UNL     1       1.574   1.786  18.740  0.00  0.00    +0.000 OA
ATOM     23  H   UNL     1       1.769   1.146  18.032  0.00  0.00    +0.000 HD
ENDBRANCH   8  22
BRANCH   9  24
ATOM     24  O   UNL     1       0.979   4.436  19.643  0.00  0.00    +0.000 OA
ATOM     25  H   UNL     1       0.108   4.658  19.254  0.00  0.00    +0.000 HD
ENDBRANCH   9  24
BRANCH   6  26
ATOM     26  C   UNL     1       5.499   3.570  16.301  0.00  0.00    +0.000 C 
BRANCH  26  27
ATOM     27  O   UNL     1       6.814   3.996  16.659  0.00  0.00    +0.000 OA
ATOM     28  H   UNL     1       7.024   4.747  16.073  0.00  0.00    +0.000 HD
ENDBRANCH  26  27
ENDBRANCH   6  26
TORSDOF 7
ENDMDL
MODEL 3
REMARK VINA RESULT:      -6.4      9.019     11.045
REMARK  Name = 
REMARK  7 active torsions:
REMARK  status: ('A' for Active; 'I' for Inactive)
REMARK    1  A    between atoms: N_2  and  C_4
REMARK    2  A    between atoms: C_7  and  C_8
REMARK    3  A    between atoms: C_13  and  C_14
REMARK    4  A    between atoms: C_14  and  O_15
REMARK    5  A    between atoms: C_16  and  O_17
REMARK    6  A    between atoms: C_18  and  O_19
REMARK    7  A    between atoms: C_20  and  O_21
REMARK                            x       y       z     vdW  Elec       q    Type
REMARK                         _______ _______ _______ _____ _____    ______ ____
ROOT
ATOM      1  C   UNL     1       8.759  13.628  21.778  0.00  0.00    +0.000 C 
ATOM      2  N   UNL     1      10.045  13.435  21.814  0.00  0.00    +0.000 NA
ATOM      3  O   UNL     1      10.660  13.870  20.600  0.00  0.00    +0.000 OA
ATOM      4  C   UNL     1       9.688  13.991  19.544  0.00  0.00    +0.000 C 
ATOM      5  O   UNL     1      10.003  15.056  18.644  0.00  0.00    +0.000 OA
ATOM      6  C   UNL     1      11.209  14.856  17.891  0.00  0.00    +0.000 C 
ATOM      7  C   UNL     1      11.134  13.573  17.059  0.00  0.00    +0.000 C 
ATOM      8  C   UNL     1      10.862  12.379  17.986  0.00  0.00    +0.000 C 
ATOM      9  C   UNL     1       9.578  12.626  18.793  0.00  0.00    +0.000 C 
ATOM     10  S   UNL     1       8.108  14.366  20.345  0.00  0.00    +0.000 S 
ENDROOT
BRANCH   1  14
ATOM     11  C   UNL     1       6.139  12.525  24.979  0.00  0.00    +0.000 A 
ATOM     12  C   UNL     1       5.823  13.621  24.159  0.00  0.00    +0.000 A 
ATOM     13  C   UNL     1       6.683  13.972  23.110  0.00  0.00    +0.000 A 
ATOM     14  C   UNL     1       7.845  13.226  22.871  0.00  0.00    +0.000 A 
ATOM     15  C   UNL     1       8.151  12.135  23.701  0.00  0.00    +0.000 A 
ATOM     16  C   UNL     1       7.301  11.781  24.753  0.00  0.00    +0.000 A 
BRANCH  11  18
ATOM     17  O   UNL     1       4.877  13.065  26.850  0.00  0.00    +0.000 OA
ATOM     18  N   UNL     1       5.253  12.160  26.093  0.00  0.00    +0.000 N 
ATOM     19  O   UNL     1       4.937  10.967  26.209  0.00  0.00    +0.000 OA
ENDBRANCH  11  18
ENDBRANCH   1  14
BRANCH   7  20
ATOM     20  O   UNL     1      12.331  13.391  16.306  0.00  0.00    +0.000 OA
ATOM     21  H   UNL     1      12.161  12.755  15.588  0.00  0.00    +0.000 HD
ENDBRANCH   7  20
BRANCH   8  22
ATOM     22  O   UNL     1      10.778  11.174  17.215  0.00  0.00    +0.000 OA
ATOM     23  H   UNL     1      11.030  11.368  16.295  0.00  0.00    +0.000 HD
ENDBRANCH   8  22
BRANCH   9  24
ATOM     24  O   UNL     1       9.335  11.504  19.664  0.00  0.00    +0.000 OA
ATOM     25  H   UNL     1       9.280  11.852  20.578  0.00  0.00    +0.000 HD
ENDBRANCH   9  24
BRANCH   6  26
ATOM     26  C   UNL     1      11.386  16.084  16.989  0.00  0.00    +0.000 C 
BRANCH  26  27
ATOM     27  O   UNL     1      10.745  15.857  15.734  0.00  0.00    +0.000 OA
ATOM     28  H   UNL     1      11.372  15.333  15.201  0.00  0.00    +0.000 HD
ENDBRANCH  26  27
ENDBRANCH   6  26
TORSDOF 7
ENDMDL
MODEL 4
REMARK VINA RESULT:      -6.3      9.158     11.075
REMARK  Name = 
REMARK  7 active torsions:
REMARK  status: ('A' for Active; 'I' for Inactive)
REMARK    1  A    between atoms: N_2  and  C_4
REMARK    2  A    between atoms: C_7  and  C_8
REMARK    3  A    between atoms: C_13  and  C_14
REMARK    4  A    between atoms: C_14  and  O_15
REMARK    5  A    between atoms: C_16  and  O_17
REMARK    6  A    between atoms: C_18  and  O_19
REMARK    7  A    between atoms: C_20  and  O_21
REMARK                            x       y       z     vdW  Elec       q    Type
REMARK                         _______ _______ _______ _____ _____    ______ ____
ROOT
ATOM      1  C   UNL     1       8.832  13.781  21.821  0.00  0.00    +0.000 C 
ATOM      2  N   UNL     1      10.130  13.706  21.840  0.00  0.00    +0.000 NA
ATOM      3  O   UNL     1      10.686  14.171  20.609  0.00  0.00    +0.000 OA
ATOM      4  C   UNL     1       9.692  14.184  19.567  0.00  0.00    +0.000 C 
ATOM      5  O   UNL     1       9.897  15.256  18.644  0.00  0.00    +0.000 OA
ATOM      6  C   UNL     1      11.105  15.152  17.876  0.00  0.00    +0.000 C 
ATOM      7  C   UNL     1      11.135  13.852  17.067  0.00  0.00    +0.000 C 
ATOM      8  C   UNL     1      10.986  12.657  18.019  0.00  0.00    +0.000 C 
ATOM      9  C   UNL     1       9.696  12.801  18.842  0.00  0.00    +0.000 C 
ATOM     10  S   UNL     1       8.096  14.430  20.386  0.00  0.00    +0.000 S 
ENDROOT
BRANCH   1  14
ATOM     11  C   UNL     1       6.310  12.403  24.995  0.00  0.00    +0.000 A 
ATOM     12  C   UNL     1       7.270  11.543  24.437  0.00  0.00    +0.000 A 
ATOM     13  C   UNL     1       8.095  12.003  23.402  0.00  0.00    +0.000 A 
ATOM     14  C   UNL     1       7.974  13.319  22.935  0.00  0.00    +0.000 A 
ATOM     15  C   UNL     1       7.007  14.168  23.499  0.00  0.00    +0.000 A 
ATOM     16  C   UNL     1       6.177  13.715  24.528  0.00  0.00    +0.000 A 
BRANCH  11  18
ATOM     17  O   UNL     1       4.609  12.725  26.539  0.00  0.00    +0.000 OA
ATOM     18  N   UNL     1       5.428  11.925  26.067  0.00  0.00    +0.000 N 
ATOM     19  O   UNL     1       5.557  10.748  26.436  0.00  0.00    +0.000 OA
ENDBRANCH  11  18
ENDBRANCH   1  14
BRANCH   7  20
ATOM     20  O   UNL     1      12.333  13.766  16.299  0.00  0.00    +0.000 OA
ATOM     21  H   UNL     1      12.829  12.972  16.571  0.00  0.00    +0.000 HD
ENDBRANCH   7  20
BRANCH   8  22
ATOM     22  O   UNL     1      11.000  11.434  17.270  0.00  0.00    +0.000 OA
ATOM     23  H   UNL     1      11.309  11.621  16.366  0.00  0.00    +0.000 HD
ENDBRANCH   8  22
BRANCH   9  24
ATOM     24  O   UNL     1       9.568  11.678  19.736  0.00  0.00    +0.000 OA
ATOM     25  H   UNL     1       8.613  11.480  19.817  0.00  0.00    +0.000 HD
ENDBRANCH   9  24
BRANCH   6  26
ATOM     26  C   UNL     1      11.158  16.375  16.949  0.00  0.00    +0.000 C 
BRANCH  26  27
ATOM     27  O   UNL     1      10.650  16.025  15.661  0.00  0.00    +0.000 OA
ATOM     28  H   UNL     1      11.330  16.302  15.018  0.00  0.00    +0.000 HD
ENDBRANCH  26  27
ENDBRANCH   6  26
TORSDOF 7
ENDMDL
MODEL 5
REMARK VINA RESULT:      -6.3      0.096      1.180
REMARK  Name = 
REMARK  7 active torsions:
REMARK  status: ('A' for Active; 'I' for Inactive)
REMARK    1  A    between atoms: N_2  and  C_4
REMARK    2  A    between atoms: C_7  and  C_8
REMARK    3  A    between atoms: C_13  and  C_14
REMARK    4  A    between atoms: C_14  and  O_15
REMARK    5  A    between atoms: C_16  and  O_17
REMARK    6  A    between atoms: C_18  and  O_19
REMARK    7  A    between atoms: C_20  and  O_21
REMARK                            x       y       z     vdW  Elec       q    Type
REMARK                         _______ _______ _______ _____ _____    ______ ____
ROOT
ATOM      1  C   UNL     1       2.132   8.906  18.745  0.00  0.00    +0.000 C 
ATOM      2  N   UNL     1       2.418   9.981  18.072  0.00  0.00    +0.000 NA
ATOM      3  O   UNL     1       1.810  11.131  18.664  0.00  0.00    +0.000 OA
ATOM      4  C   UNL     1       0.737  10.749  19.546  0.00  0.00    +0.000 C 
ATOM      5  O   UNL     1       0.620  11.634  20.662  0.00  0.00    +0.000 OA
ATOM      6  C   UNL     1       0.234  12.973  20.317  0.00  0.00    +0.000 C 
ATOM      7  C   UNL     1      -1.113  12.989  19.588  0.00  0.00    +0.000 C 
ATOM      8  C   UNL     1      -1.026  12.103  18.337  0.00  0.00    +0.000 C 
ATOM      9  C   UNL     1      -0.594  10.682  18.731  0.00  0.00    +0.000 C 
ATOM     10  S   UNL     1       1.147   9.098  20.165  0.00  0.00    +0.000 S 
ENDROOT
BRANCH   1  14
ATOM     11  C   UNL     1       3.394   5.005  17.512  0.00  0.00    +0.000 A 
ATOM     12  C   UNL     1       4.155   6.132  17.164  0.00  0.00    +0.000 A 
ATOM     13  C   UNL     1       3.739   7.404  17.576  0.00  0.00    +0.000 A 
ATOM     14  C   UNL     1       2.575   7.552  18.343  0.00  0.00    +0.000 A 
ATOM     15  C   UNL     1       1.820   6.416  18.680  0.00  0.00    +0.000 A 
ATOM     16  C   UNL     1       2.226   5.144  18.269  0.00  0.00    +0.000 A 
BRANCH  11  18
ATOM     17  O   UNL     1       4.884   3.574  16.456  0.00  0.00    +0.000 OA
ATOM     18  N   UNL     1       3.812   3.668  17.069  0.00  0.00    +0.000 N 
ATOM     19  O   UNL     1       3.065   2.715  17.334  0.00  0.00    +0.000 OA
ENDBRANCH  11  18
ENDBRANCH   1  14
BRANCH   7  20
ATOM     20  O   UNL     1      -1.492  14.324  19.261  0.00  0.00    +0.000 OA
ATOM     21  H   UNL     1      -1.540  14.412  18.292  0.00  0.00    +0.000 HD
ENDBRANCH   7  20
BRANCH   8  22
ATOM     22  O   UNL     1      -2.286  12.101  17.654  0.00  0.00    +0.000 OA
ATOM     23  H   UNL     1      -2.278  11.402  16.976  0.00  0.00    +0.000 HD
ENDBRANCH   8  22
BRANCH   9  24
ATOM     24  O   UNL     1      -0.509   9.860  17.550  0.00  0.00    +0.000 OA
ATOM     25  H   UNL     1       0.039   9.081  17.778  0.00  0.00    +0.000 HD
ENDBRANCH   9  24
BRANCH   6  26
ATOM     26  C   UNL     1       0.158  13.773  21.624  0.00  0.00    +0.000 C 
BRANCH  26  27
ATOM     27  O   UNL     1       1.474  14.139  22.041  0.00  0.00    +0.000 OA
ATOM     28  H   UNL     1       1.565  13.822  22.959  0.00  0.00    +0.000 HD
ENDBRANCH  26  27
ENDBRANCH   6  26
TORSDOF 7
ENDMDL
MODEL 6
REMARK VINA RESULT:      -6.2      1.410      1.665
REMARK  Name = 
REMARK  7 active torsions:
REMARK  status: ('A' for Active; 'I' for Inactive)
REMARK    1  A    between atoms: N_2  and  C_4
REMARK    2  A    between atoms: C_7  and  C_8
REMARK    3  A    between atoms: C_13  and  C_14
REMARK    4  A    between atoms: C_14  and  O_15
REMARK    5  A    between atoms: C_16  and  O_17
REMARK    6  A    between atoms: C_18  and  O_19
REMARK    7  A    between atoms: C_20  and  O_21
REMARK                            x       y       z     vdW  Elec       q    Type
REMARK                         _______ _______ _______ _____ _____    ______ ____
ROOT
ATOM      1  C   UNL     1       1.789   8.708  19.274  0.00  0.00    +0.000 C 
ATOM      2  N   UNL     1       2.138   9.463  18.274  0.00  0.00    +0.000 NA
ATOM      3  O   UNL     1       1.840  10.834  18.541  0.00  0.00    +0.000 OA
ATOM      4  C   UNL     1       0.880  10.954  19.608  0.00  0.00    +0.000 C 
ATOM      5  O   UNL     1       1.101  12.124  20.400  0.00  0.00    +0.000 OA
ATOM      6  C   UNL     1       0.895  13.359  19.699  0.00  0.00    +0.000 C 
ATOM      7  C   UNL     1      -0.531  13.453  19.150  0.00  0.00    +0.000 C 
ATOM      8  C   UNL     1      -0.804  12.251  18.234  0.00  0.00    +0.000 C 
ATOM      9  C   UNL     1      -0.560  10.942  19.002  0.00  0.00    +0.000 C 
ATOM     10  S   UNL     1       1.101   9.499  20.661  0.00  0.00    +0.000 S 
ENDROOT
BRANCH   1  14
ATOM     11  C   UNL     1       2.242   4.451  19.295  0.00  0.00    +0.000 A 
ATOM     12  C   UNL     1       1.819   5.118  20.456  0.00  0.00    +0.000 A 
ATOM     13  C   UNL     1       1.668   6.510  20.439  0.00  0.00    +0.000 A 
ATOM     14  C   UNL     1       1.924   7.234  19.267  0.00  0.00    +0.000 A 
ATOM     15  C   UNL     1       2.352   6.555  18.114  0.00  0.00    +0.000 A 
ATOM     16  C   UNL     1       2.509   5.167  18.124  0.00  0.00    +0.000 A 
BRANCH  11  18
ATOM     17  O   UNL     1       3.481   2.547  19.768  0.00  0.00    +0.000 OA
ATOM     18  N   UNL     1       2.422   2.993  19.307  0.00  0.00    +0.000 N 
ATOM     19  O   UNL     1       1.502   2.297  18.854  0.00  0.00    +0.000 OA
ENDBRANCH  11  18
ENDBRANCH   1  14
BRANCH   7  20
ATOM     20  O   UNL     1      -0.727  14.689  18.467  0.00  0.00    +0.000 OA
ATOM     21  H   UNL     1      -0.134  14.723  17.695  0.00  0.00    +0.000 HD
ENDBRANCH   7  20
BRANCH   8  22
ATOM     22  O   UNL     1      -2.143  12.322  17.725  0.00  0.00    +0.000 OA
ATOM     23  H   UNL     1      -2.761  12.415  18.472  0.00  0.00    +0.000 HD
ENDBRANCH   8  22
BRANCH   9  24
ATOM     24  O   UNL     1      -0.812   9.821  18.133  0.00  0.00    +0.000 OA
ATOM     25  H   UNL     1      -1.726   9.516  18.310  0.00  0.00    +0.000 HD
ENDBRANCH   9  24
BRANCH   6  26
ATOM     26  C   UNL     1       1.175  14.494  20.693  0.00  0.00    +0.000 C 
BRANCH  26  27
ATOM     27  O   UNL     1       1.517  13.946  21.966  0.00  0.00    +0.000 OA
ATOM     28  H   UNL     1       1.092  14.520  22.631  0.00  0.00    +0.000 HD
ENDBRANCH  26  27
ENDBRANCH   6  26
TORSDOF 7
ENDMDL
MODEL 7
REMARK VINA RESULT:      -6.2      1.367      1.758
REMARK  Name = 
REMARK  7 active torsions:
REMARK  status: ('A' for Active; 'I' for Inactive)
REMARK    1  A    between atoms: N_2  and  C_4
REMARK    2  A    between atoms: C_7  and  C_8
REMARK    3  A    between atoms: C_13  and  C_14
REMARK    4  A    between atoms: C_14  and  O_15
REMARK    5  A    between atoms: C_16  and  O_17
REMARK    6  A    between atoms: C_18  and  O_19
REMARK    7  A    between atoms: C_20  and  O_21
REMARK                            x       y       z     vdW  Elec       q    Type
REMARK                         _______ _______ _______ _____ _____    ______ ____
ROOT
ATOM      1  C   UNL     1       1.821   8.668  19.251  0.00  0.00    +0.000 C 
ATOM      2  N   UNL     1       2.183   9.457  18.283  0.00  0.00    +0.000 NA
ATOM      3  O   UNL     1       1.874  10.818  18.591  0.00  0.00    +0.000 OA
ATOM      4  C   UNL     1       0.897  10.898  19.645  0.00  0.00    +0.000 C 
ATOM      5  O   UNL     1       1.100  12.041  20.480  0.00  0.00    +0.000 OA
ATOM      6  C   UNL     1       0.901  13.299  19.818  0.00  0.00    +0.000 C 
ATOM      7  C   UNL     1      -0.517  13.406  19.249  0.00  0.00    +0.000 C 
ATOM      8  C   UNL     1      -0.770  12.235  18.289  0.00  0.00    +0.000 C 
ATOM      9  C   UNL     1      -0.533  10.902  19.016  0.00  0.00    +0.000 C 
ATOM     10  S   UNL     1       1.107   9.409  20.652  0.00  0.00    +0.000 S 
ENDROOT
BRANCH   1  14
ATOM     11  C   UNL     1       2.165   4.405  19.056  0.00  0.00    +0.000 A 
ATOM     12  C   UNL     1       2.404   5.182  17.911  0.00  0.00    +0.000 A 
ATOM     13  C   UNL     1       2.295   6.576  17.984  0.00  0.00    +0.000 A 
ATOM     14  C   UNL     1       1.962   7.196  19.196  0.00  0.00    +0.000 A 
ATOM     15  C   UNL     1       1.720   6.406  20.333  0.00  0.00    +0.000 A 
ATOM     16  C   UNL     1       1.822   5.014  20.267  0.00  0.00    +0.000 A 
BRANCH  11  18
ATOM     17  O   UNL     1       2.934   2.365  19.847  0.00  0.00    +0.000 OA
ATOM     18  N   UNL     1       2.258   2.941  18.985  0.00  0.00    +0.000 N 
ATOM     19  O   UNL     1       1.655   2.370  18.064  0.00  0.00    +0.000 OA
ENDBRANCH  11  18
ENDBRANCH   1  14
BRANCH   7  20
ATOM     20  O   UNL     1      -0.707  14.664  18.606  0.00  0.00    +0.000 OA
ATOM     21  H   UNL     1      -0.374  14.607  17.692  0.00  0.00    +0.000 HD
ENDBRANCH   7  20
BRANCH   8  22
ATOM     22  O   UNL     1      -2.101  12.318  17.761  0.00  0.00    +0.000 OA
ATOM     23  H   UNL     1      -2.051  12.517  16.809  0.00  0.00    +0.000 HD
ENDBRANCH   8  22
BRANCH   9  24
ATOM     24  O   UNL     1      -0.767   9.809  18.105  0.00  0.00    +0.000 OA
ATOM     25  H   UNL     1      -1.708   9.851  17.838  0.00  0.00    +0.000 HD
ENDBRANCH   9  24
BRANCH   6  26
ATOM     26  C   UNL     1       1.160  14.401  20.854  0.00  0.00    +0.000 C 
BRANCH  26  27
ATOM     27  O   UNL     1       0.875  13.907  22.163  0.00  0.00    +0.000 OA
ATOM     28  H   UNL     1       0.576  14.676  22.684  0.00  0.00    +0.000 HD
ENDBRANCH  26  27
ENDBRANCH   6  26
TORSDOF 7
ENDMDL
MODEL 8
REMARK VINA RESULT:      -6.1      2.804      4.029
REMARK  Name = 
REMARK  7 active torsions:
REMARK  status: ('A' for Active; 'I' for Inactive)
REMARK    1  A    between atoms: N_2  and  C_4
REMARK    2  A    between atoms: C_7  and  C_8
REMARK    3  A    between atoms: C_13  and  C_14
REMARK    4  A    between atoms: C_14  and  O_15
REMARK    5  A    between atoms: C_16  and  O_17
REMARK    6  A    between atoms: C_18  and  O_19
REMARK    7  A    between atoms: C_20  and  O_21
REMARK                            x       y       z     vdW  Elec       q    Type
REMARK                         _______ _______ _______ _____ _____    ______ ____
ROOT
ATOM      1  C   UNL     1       0.393   9.831  21.084  0.00  0.00    +0.000 C 
ATOM      2  N   UNL     1       0.690  10.086  22.324  0.00  0.00    +0.000 NA
ATOM      3  O   UNL     1      -0.229  11.025  22.886  0.00  0.00    +0.000 OA
ATOM      4  C   UNL     1      -0.938  11.734  21.853  0.00  0.00    +0.000 C 
ATOM      5  O   UNL     1      -2.275  12.055  22.242  0.00  0.00    +0.000 OA
ATOM      6  C   UNL     1      -2.367  12.985  23.332  0.00  0.00    +0.000 C 
ATOM      7  C   UNL     1      -1.670  14.305  22.991  0.00  0.00    +0.000 C 
ATOM      8  C   UNL     1      -0.204  14.029  22.627  0.00  0.00    +0.000 C 
ATOM      9  C   UNL     1      -0.133  13.018  21.472  0.00  0.00    +0.000 C 
ATOM     10  S   UNL     1      -1.008  10.623  20.425  0.00  0.00    +0.000 S 
ENDROOT
BRANCH   1  14
ATOM     11  C   UNL     1       2.659   7.229  18.551  0.00  0.00    +0.000 A 
ATOM     12  C   UNL     1       2.248   8.485  18.079  0.00  0.00    +0.000 A 
ATOM     13  C   UNL     1       1.512   9.333  18.915  0.00  0.00    +0.000 A 
ATOM     14  C   UNL     1       1.198   8.936  20.222  0.00  0.00    +0.000 A 
ATOM     15  C   UNL     1       1.612   7.675  20.681  0.00  0.00    +0.000 A 
ATOM     16  C   UNL     1       2.343   6.821  19.850  0.00  0.00    +0.000 A 
BRANCH  11  18
ATOM     17  O   UNL     1       4.339   6.809  17.006  0.00  0.00    +0.000 OA
ATOM     18  N   UNL     1       3.417   6.324  17.675  0.00  0.00    +0.000 N 
ATOM     19  O   UNL     1       3.085   5.130  17.657  0.00  0.00    +0.000 OA
ENDBRANCH  11  18
ENDBRANCH   1  14
BRANCH   7  20
ATOM     20  O   UNL     1      -1.778  15.225  24.075  0.00  0.00    +0.000 OA
ATOM     21  H   UNL     1      -1.030  15.087  24.684  0.00  0.00    +0.000 HD
ENDBRANCH   7  20
BRANCH   8  22
ATOM     22  O   UNL     1       0.454  15.258  22.293  0.00  0.00    +0.000 OA
ATOM     23  H   UNL     1       0.106  15.583  21.444  0.00  0.00    +0.000 HD
ENDBRANCH   8  22
BRANCH   9  24
ATOM     24  O   UNL     1       1.245  12.760  21.142  0.00  0.00    +0.000 OA
ATOM     25  H   UNL     1       1.266  12.417  20.225  0.00  0.00    +0.000 HD
ENDBRANCH   9  24
BRANCH   6  26
ATOM     26  C   UNL     1      -3.859  13.209  23.610  0.00  0.00    +0.000 C 
BRANCH  26  27
ATOM     27  O   UNL     1      -4.041  13.603  24.971  0.00  0.00    +0.000 OA
ATOM     28  H   UNL     1      -4.042  12.779  25.493  0.00  0.00    +0.000 HD
ENDBRANCH  26  27
ENDBRANCH   6  26
TORSDOF 7
ENDMDL
MODEL 9
REMARK VINA RESULT:      -6.1      1.323      1.523
REMARK  Name = 
REMARK  7 active torsions:
REMARK  status: ('A' for Active; 'I' for Inactive)
REMARK    1  A    between atoms: N_2  and  C_4
REMARK    2  A    between atoms: C_7  and  C_8
REMARK    3  A    between atoms: C_13  and  C_14
REMARK    4  A    between atoms: C_14  and  O_15
REMARK    5  A    between atoms: C_16  and  O_17
REMARK    6  A    between atoms: C_18  and  O_19
REMARK    7  A    between atoms: C_20  and  O_21
REMARK                            x       y       z     vdW  Elec       q    Type
REMARK                         _______ _______ _______ _____ _____    ______ ____
ROOT
ATOM      1  C   UNL     1       1.569   8.977  19.764  0.00  0.00    +0.000 C 
ATOM      2  N   UNL     1       1.803   9.894  18.872  0.00  0.00    +0.000 NA
ATOM      3  O   UNL     1       1.371  11.176  19.332  0.00  0.00    +0.000 OA
ATOM      4  C   UNL     1       0.440  11.045  20.423  0.00  0.00    +0.000 C 
ATOM      5  O   UNL     1       0.563  12.113  21.364  0.00  0.00    +0.000 OA
ATOM      6  C   UNL     1       0.205  13.403  20.846  0.00  0.00    +0.000 C 
ATOM      7  C   UNL     1      -1.241  13.414  20.342  0.00  0.00    +0.000 C 
ATOM      8  C   UNL     1      -1.417  12.325  19.274  0.00  0.00    +0.000 C 
ATOM      9  C   UNL     1      -1.010  10.958  19.848  0.00  0.00    +0.000 C 
ATOM     10  S   UNL     1       0.848   9.493  21.260  0.00  0.00    +0.000 S 
ENDROOT
BRANCH   1  14
ATOM     11  C   UNL     1       2.465   4.831  19.191  0.00  0.00    +0.000 A 
ATOM     12  C   UNL     1       1.921   5.269  20.409  0.00  0.00    +0.000 A 
ATOM     13  C   UNL     1       1.625   6.627  20.586  0.00  0.00    +0.000 A 
ATOM     14  C   UNL     1       1.858   7.542  19.550  0.00  0.00    +0.000 A 
ATOM     15  C   UNL     1       2.407   7.090  18.338  0.00  0.00    +0.000 A 
ATOM     16  C   UNL     1       2.709   5.737  18.155  0.00  0.00    +0.000 A 
BRANCH  11  18
ATOM     17  O   UNL     1       1.858   2.616  18.856  0.00  0.00    +0.000 OA
ATOM     18  N   UNL     1       2.796   3.412  19.001  0.00  0.00    +0.000 N 
ATOM     19  O   UNL     1       3.994   3.096  18.999  0.00  0.00    +0.000 OA
ENDBRANCH  11  18
ENDBRANCH   1  14
BRANCH   7  20
ATOM     20  O   UNL     1      -1.589  14.702  19.841  0.00  0.00    +0.000 OA
ATOM     21  H   UNL     1      -0.777  15.168  19.569  0.00  0.00    +0.000 HD
ENDBRANCH   7  20
BRANCH   8  22
ATOM     22  O   UNL     1      -2.771  12.318  18.804  0.00  0.00    +0.000 OA
ATOM     23  H   UNL     1      -3.259  11.607  19.256  0.00  0.00    +0.000 HD
ENDBRANCH   8  22
BRANCH   9  24
ATOM     24  O   UNL     1      -1.172   9.945  18.837  0.00  0.00    +0.000 OA
ATOM     25  H   UNL     1      -2.020  10.122  18.380  0.00  0.00    +0.000 HD
ENDBRANCH   9  24
BRANCH   6  26
ATOM     26  C   UNL     1       0.396  14.416  21.982  0.00  0.00    +0.000 C 
BRANCH  26  27
ATOM     27  O   UNL     1       1.790  14.590  22.243  0.00  0.00    +0.000 OA
ATOM     28  H   UNL     1       2.096  13.755  22.645  0.00  0.00    +0.000 HD
ENDBRANCH  26  27
ENDBRANCH   6  26
TORSDOF 7
ENDMDL
