MODEL 1
REMARK VINA RESULT:      -7.7      0.000      0.000
REMARK  Name = 
REMARK  1 active torsions:
REMARK  status: ('A' for Active; 'I' for Inactive)
REMARK    1  A    between atoms: C_1  and  C_2
REMARK                            x       y       z     vdW  Elec       q    Type
REMARK                         _______ _______ _______ _____ _____    ______ ____
ROOT
ATOM      1  C   UNL     1       4.981   3.302  12.682  0.00  0.00    +0.000 C 
ATOM      2  C   UNL     1       5.991   4.106  13.451  0.00  0.00    +0.000 A 
ATOM      3  C   UNL     1       7.064   4.662  12.863  0.00  0.00    +0.000 A 
ATOM      4  C   UNL     1       8.042   5.485  13.591  0.00  0.00    +0.000 A 
ATOM      5  O   UNL     1       9.018   5.945  13.010  0.00  0.00    +0.000 OA
ATOM      6  O   UNL     1       7.800   5.724  14.937  0.00  0.00    +0.000 OA
ATOM      7  C   UNL     1       6.658   5.194  15.581  0.00  0.00    +0.000 A 
ATOM      8  C   UNL     1       6.462   5.578  16.920  0.00  0.00    +0.000 A 
ATOM      9  C   UNL     1       5.289   5.107  17.507  0.00  0.00    +0.000 A 
ATOM     10  O   UNL     1       4.800   5.424  18.764  0.00  0.00    +0.000 OA
ATOM     11  C   UNL     1       3.619   4.780  18.830  0.00  0.00    +0.000 A 
ATOM     12  C   UNL     1       3.330   4.076  17.709  0.00  0.00    +0.000 A 
ATOM     13  C   UNL     1       4.397   4.255  16.841  0.00  0.00    +0.000 A 
ATOM     14  C   UNL     1       4.662   3.846  15.534  0.00  0.00    +0.000 A 
ATOM     15  C   UNL     1       5.777   4.364  14.876  0.00  0.00    +0.000 A 
ATOM     16  C   UNL     1       1.990   3.491  17.738  0.00  0.00    +0.000 C 
ATOM     17  C   UNL     1       1.449   3.967  19.131  0.00  0.00    +0.000 C 
ATOM     18  C   UNL     1       2.562   4.840  19.841  0.00  0.00    +0.000 C 
ENDROOT
TORSDOF 0
ENDMDL
MODEL 2
REMARK VINA RESULT:      -7.7      1.858      3.505
REMARK  Name = 
REMARK  1 active torsions:
REMARK  status: ('A' for Active; 'I' for Inactive)
REMARK    1  A    between atoms: C_1  and  C_2
REMARK                            x       y       z     vdW  Elec       q    Type
REMARK                         _______ _______ _______ _____ _____    ______ ____
ROOT
ATOM      1  C   UNL     1       7.593   5.783  19.316  0.00  0.00    +0.000 C 
ATOM      2  C   UNL     1       6.949   5.476  17.994  0.00  0.00    +0.000 A 
ATOM      3  C   UNL     1       7.619   5.559  16.832  0.00  0.00    +0.000 A 
ATOM      4  C   UNL     1       7.017   5.224  15.533  0.00  0.00    +0.000 A 
ATOM      5  O   UNL     1       7.667   5.345  14.500  0.00  0.00    +0.000 OA
ATOM      6  O   UNL     1       5.709   4.759  15.535  0.00  0.00    +0.000 OA
ATOM      7  C   UNL     1       4.986   4.615  16.742  0.00  0.00    +0.000 A 
ATOM      8  C   UNL     1       3.704   4.045  16.637  0.00  0.00    +0.000 A 
ATOM      9  C   UNL     1       3.043   3.841  17.847  0.00  0.00    +0.000 A 
ATOM     10  O   UNL     1       1.830   3.200  18.037  0.00  0.00    +0.000 OA
ATOM     11  C   UNL     1       1.665   3.198  19.373  0.00  0.00    +0.000 A 
ATOM     12  C   UNL     1       2.682   3.796  20.039  0.00  0.00    +0.000 A 
ATOM     13  C   UNL     1       3.582   4.235  19.079  0.00  0.00    +0.000 A 
ATOM     14  C   UNL     1       4.830   4.856  19.133  0.00  0.00    +0.000 A 
ATOM     15  C   UNL     1       5.566   4.999  17.957  0.00  0.00    +0.000 A 
ATOM     16  C   UNL     1       2.559   3.671  21.492  0.00  0.00    +0.000 C 
ATOM     17  C   UNL     1       1.230   2.852  21.643  0.00  0.00    +0.000 C 
ATOM     18  C   UNL     1       0.654   2.539  20.203  0.00  0.00    +0.000 C 
ENDROOT
TORSDOF 0
ENDMDL
MODEL 3
REMARK VINA RESULT:      -7.5      4.423      6.391
REMARK  Name = 
REMARK  1 active torsions:
REMARK  status: ('A' for Active; 'I' for Inactive)
REMARK    1  A    between atoms: C_1  and  C_2
REMARK                            x       y       z     vdW  Elec       q    Type
REMARK                         _______ _______ _______ _____ _____    ______ ____
ROOT
ATOM      1  C   UNL     1       1.509   2.942  21.722  0.00  0.00    +0.000 C 
ATOM      2  C   UNL     1       2.193   3.262  20.423  0.00  0.00    +0.000 A 
ATOM      3  C   UNL     1       2.660   2.306  19.602  0.00  0.00    +0.000 A 
ATOM      4  C   UNL     1       3.297   2.598  18.310  0.00  0.00    +0.000 A 
ATOM      5  O   UNL     1       3.731   1.688  17.613  0.00  0.00    +0.000 OA
ATOM      6  O   UNL     1       3.367   3.928  17.918  0.00  0.00    +0.000 OA
ATOM      7  C   UNL     1       2.845   4.960  18.733  0.00  0.00    +0.000 A 
ATOM      8  C   UNL     1       2.882   6.260  18.195  0.00  0.00    +0.000 A 
ATOM      9  C   UNL     1       2.292   7.246  18.984  0.00  0.00    +0.000 A 
ATOM     10  O   UNL     1       2.093   8.574  18.647  0.00  0.00    +0.000 OA
ATOM     11  C   UNL     1       1.429   9.085  19.700  0.00  0.00    +0.000 A 
ATOM     12  C   UNL     1       1.199   8.178  20.680  0.00  0.00    +0.000 A 
ATOM     13  C   UNL     1       1.758   6.982  20.252  0.00  0.00    +0.000 A 
ATOM     14  C   UNL     1       1.800   5.690  20.776  0.00  0.00    +0.000 A 
ATOM     15  C   UNL     1       2.299   4.655  19.986  0.00  0.00    +0.000 A 
ATOM     16  C   UNL     1       0.363   8.706  21.757  0.00  0.00    +0.000 C 
ATOM     17  C   UNL     1       0.085  10.172  21.273  0.00  0.00    +0.000 C 
ATOM     18  C   UNL     1       0.805  10.398  19.883  0.00  0.00    +0.000 C 
ENDROOT
TORSDOF 0
ENDMDL
MODEL 4
REMARK VINA RESULT:      -7.4      3.185      6.179
REMARK  Name = 
REMARK  1 active torsions:
REMARK  status: ('A' for Active; 'I' for Inactive)
REMARK    1  A    between atoms: C_1  and  C_2
REMARK                            x       y       z     vdW  Elec       q    Type
REMARK                         _______ _______ _______ _____ _____    ______ ____
ROOT
ATOM      1  C   UNL     1       4.445   1.791  20.646  0.00  0.00    +0.000 C 
ATOM      2  C   UNL     1       3.505   2.381  19.633  0.00  0.00    +0.000 A 
ATOM      3  C   UNL     1       2.237   1.956  19.497  0.00  0.00    +0.000 A 
ATOM      4  C   UNL     1       1.292   2.547  18.538  0.00  0.00    +0.000 A 
ATOM      5  O   UNL     1       0.154   2.102  18.436  0.00  0.00    +0.000 OA
ATOM      6  O   UNL     1       1.736   3.622  17.781  0.00  0.00    +0.000 OA
ATOM      7  C   UNL     1       3.049   4.128  17.928  0.00  0.00    +0.000 A 
ATOM      8  C   UNL     1       3.362   5.279  17.182  0.00  0.00    +0.000 A 
ATOM      9  C   UNL     1       4.635   5.802  17.404  0.00  0.00    +0.000 A 
ATOM     10  O   UNL     1       5.153   6.980  16.891  0.00  0.00    +0.000 OA
ATOM     11  C   UNL     1       6.373   7.075  17.452  0.00  0.00    +0.000 A 
ATOM     12  C   UNL     1       6.665   6.040  18.277  0.00  0.00    +0.000 A 
ATOM     13  C   UNL     1       5.567   5.193  18.255  0.00  0.00    +0.000 A 
ATOM     14  C   UNL     1       5.238   4.016  18.927  0.00  0.00    +0.000 A 
ATOM     15  C   UNL     1       3.946   3.505  18.806  0.00  0.00    +0.000 A 
ATOM     16  C   UNL     1       7.934   6.219  18.983  0.00  0.00    +0.000 C 
ATOM     17  C   UNL     1       8.421   7.609  18.443  0.00  0.00    +0.000 C 
ATOM     18  C   UNL     1       7.349   8.167  17.422  0.00  0.00    +0.000 C 
ENDROOT
TORSDOF 0
ENDMDL
MODEL 5
REMARK VINA RESULT:      -7.3      4.080      6.748
REMARK  Name = 
REMARK  1 active torsions:
REMARK  status: ('A' for Active; 'I' for Inactive)
REMARK    1  A    between atoms: C_1  and  C_2
REMARK                            x       y       z     vdW  Elec       q    Type
REMARK                         _______ _______ _______ _____ _____    ______ ____
ROOT
ATOM      1  C   UNL     1       1.978   3.891  21.290  0.00  0.00    +0.000 C 
ATOM      2  C   UNL     1       2.425   4.598  20.042  0.00  0.00    +0.000 A 
ATOM      3  C   UNL     1       2.949   3.940  18.993  0.00  0.00    +0.000 A 
ATOM      4  C   UNL     1       3.357   4.610  17.749  0.00  0.00    +0.000 A 
ATOM      5  O   UNL     1       3.855   3.965  16.833  0.00  0.00    +0.000 OA
ATOM      6  O   UNL     1       3.139   5.978  17.658  0.00  0.00    +0.000 OA
ATOM      7  C   UNL     1       2.548   6.698  18.723  0.00  0.00    +0.000 A 
ATOM      8  C   UNL     1       2.285   8.059  18.486  0.00  0.00    +0.000 A 
ATOM      9  C   UNL     1       1.632   8.727  19.521  0.00  0.00    +0.000 A 
ATOM     10  O   UNL     1       1.158  10.028  19.505  0.00  0.00    +0.000 OA
ATOM     11  C   UNL     1       0.551  10.172  20.698  0.00  0.00    +0.000 A 
ATOM     12  C   UNL     1       0.611   9.058  21.467  0.00  0.00    +0.000 A 
ATOM     13  C   UNL     1       1.317   8.111  20.739  0.00  0.00    +0.000 A 
ATOM     14  C   UNL     1       1.653   6.775  20.958  0.00  0.00    +0.000 A 
ATOM     15  C   UNL     1       2.226   6.042  19.918  0.00  0.00    +0.000 A 
ATOM     16  C   UNL     1      -0.165   9.179  22.701  0.00  0.00    +0.000 C 
ATOM     17  C   UNL     1      -0.758  10.626  22.580  0.00  0.00    +0.000 C 
ATOM     18  C   UNL     1      -0.269  11.268  21.219  0.00  0.00    +0.000 C 
ENDROOT
TORSDOF 0
ENDMDL
MODEL 6
REMARK VINA RESULT:      -7.2      3.324      6.971
REMARK  Name = 
REMARK  1 active torsions:
REMARK  status: ('A' for Active; 'I' for Inactive)
REMARK    1  A    between atoms: C_1  and  C_2
REMARK                            x       y       z     vdW  Elec       q    Type
REMARK                         _______ _______ _______ _____ _____    ______ ____
ROOT
ATOM      1  C   UNL     1       1.714  10.209  17.856  0.00  0.00    +0.000 C 
ATOM      2  C   UNL     1       1.597   9.192  18.956  0.00  0.00    +0.000 A 
ATOM      3  C   UNL     1       0.737   9.337  19.979  0.00  0.00    +0.000 A 
ATOM      4  C   UNL     1       0.581   8.335  21.043  0.00  0.00    +0.000 A 
ATOM      5  O   UNL     1      -0.199   8.531  21.969  0.00  0.00    +0.000 OA
ATOM      6  O   UNL     1       1.333   7.172  20.942  0.00  0.00    +0.000 OA
ATOM      7  C   UNL     1       2.214   6.962  19.856  0.00  0.00    +0.000 A 
ATOM      8  C   UNL     1       2.852   5.709  19.802  0.00  0.00    +0.000 A 
ATOM      9  C   UNL     1       3.655   5.499  18.682  0.00  0.00    +0.000 A 
ATOM     10  O   UNL     1       4.300   4.326  18.328  0.00  0.00    +0.000 OA
ATOM     11  C   UNL     1       4.875   4.611  17.144  0.00  0.00    +0.000 A 
ATOM     12  C   UNL     1       4.643   5.880  16.728  0.00  0.00    +0.000 A 
ATOM     13  C   UNL     1       3.870   6.484  17.709  0.00  0.00    +0.000 A 
ATOM     14  C   UNL     1       3.269   7.736  17.833  0.00  0.00    +0.000 A 
ATOM     15  C   UNL     1       2.387   7.962  18.890  0.00  0.00    +0.000 A 
ATOM     16  C   UNL     1       5.157   6.138  15.383  0.00  0.00    +0.000 C 
ATOM     17  C   UNL     1       5.782   4.752  14.995  0.00  0.00    +0.000 C 
ATOM     18  C   UNL     1       5.570   3.741  16.193  0.00  0.00    +0.000 C 
ENDROOT
TORSDOF 0
ENDMDL
MODEL 7
REMARK VINA RESULT:      -7.2      3.625      5.856
REMARK  Name = 
REMARK  1 active torsions:
REMARK  status: ('A' for Active; 'I' for Inactive)
REMARK    1  A    between atoms: C_1  and  C_2
REMARK                            x       y       z     vdW  Elec       q    Type
REMARK                         _______ _______ _______ _____ _____    ______ ____
ROOT
ATOM      1  C   UNL     1       4.995   5.640  16.364  0.00  0.00    +0.000 C 
ATOM      2  C   UNL     1       4.465   5.057  17.643  0.00  0.00    +0.000 A 
ATOM      3  C   UNL     1       4.912   3.891  18.140  0.00  0.00    +0.000 A 
ATOM      4  C   UNL     1       4.433   3.324  19.410  0.00  0.00    +0.000 A 
ATOM      5  O   UNL     1       4.855   2.242  19.803  0.00  0.00    +0.000 OA
ATOM      6  O   UNL     1       3.511   4.067  20.134  0.00  0.00    +0.000 OA
ATOM      7  C   UNL     1       3.051   5.321  19.667  0.00  0.00    +0.000 A 
ATOM      8  C   UNL     1       2.193   6.031  20.527  0.00  0.00    +0.000 A 
ATOM      9  C   UNL     1       1.817   7.296  20.078  0.00  0.00    +0.000 A 
ATOM     10  O   UNL     1       1.079   8.241  20.771  0.00  0.00    +0.000 OA
ATOM     11  C   UNL     1       1.050   9.305  19.947  0.00  0.00    +0.000 A 
ATOM     12  C   UNL     1       1.711   9.099  18.782  0.00  0.00    +0.000 A 
ATOM     13  C   UNL     1       2.206   7.804  18.831  0.00  0.00    +0.000 A 
ATOM     14  C   UNL     1       3.005   7.039  17.980  0.00  0.00    +0.000 A 
ATOM     15  C   UNL     1       3.480   5.806  18.425  0.00  0.00    +0.000 A 
ATOM     16  C   UNL     1       1.788  10.302  17.953  0.00  0.00    +0.000 C 
ATOM     17  C   UNL     1       1.029  11.358  18.831  0.00  0.00    +0.000 C 
ATOM     18  C   UNL     1       0.551  10.664  20.170  0.00  0.00    +0.000 C 
ENDROOT
TORSDOF 0
ENDMDL
MODEL 8
REMARK VINA RESULT:      -7.0      2.526      6.610
REMARK  Name = 
REMARK  1 active torsions:
REMARK  status: ('A' for Active; 'I' for Inactive)
REMARK    1  A    between atoms: C_1  and  C_2
REMARK                            x       y       z     vdW  Elec       q    Type
REMARK                         _______ _______ _______ _____ _____    ______ ____
ROOT
ATOM      1  C   UNL     1       1.791   4.095  20.829  0.00  0.00    +0.000 C 
ATOM      2  C   UNL     1       1.806   5.539  20.416  0.00  0.00    +0.000 A 
ATOM      3  C   UNL     1       1.254   6.507  21.168  0.00  0.00    +0.000 A 
ATOM      4  C   UNL     1       1.292   7.930  20.800  0.00  0.00    +0.000 A 
ATOM      5  O   UNL     1       0.748   8.769  21.510  0.00  0.00    +0.000 OA
ATOM      6  O   UNL     1       1.976   8.272  19.641  0.00  0.00    +0.000 OA
ATOM      7  C   UNL     1       2.609   7.288  18.847  0.00  0.00    +0.000 A 
ATOM      8  C   UNL     1       3.354   7.756  17.749  0.00  0.00    +0.000 A 
ATOM      9  C   UNL     1       4.032   6.773  17.029  0.00  0.00    +0.000 A 
ATOM     10  O   UNL     1       4.918   6.969  15.983  0.00  0.00    +0.000 OA
ATOM     11  C   UNL     1       5.351   5.730  15.683  0.00  0.00    +0.000 A 
ATOM     12  C   UNL     1       4.798   4.767  16.459  0.00  0.00    +0.000 A 
ATOM     13  C   UNL     1       3.930   5.408  17.330  0.00  0.00    +0.000 A 
ATOM     14  C   UNL     1       3.128   4.981  18.388  0.00  0.00    +0.000 A 
ATOM     15  C   UNL     1       2.503   5.934  19.192  0.00  0.00    +0.000 A 
ATOM     16  C   UNL     1       5.373   3.443  16.215  0.00  0.00    +0.000 C 
ATOM     17  C   UNL     1       6.436   3.743  15.101  0.00  0.00    +0.000 C 
ATOM     18  C   UNL     1       6.407   5.289  14.768  0.00  0.00    +0.000 C 
ENDROOT
TORSDOF 0
ENDMDL
MODEL 9
REMARK VINA RESULT:      -6.9      3.389      5.324
REMARK  Name = 
REMARK  1 active torsions:
REMARK  status: ('A' for Active; 'I' for Inactive)
REMARK    1  A    between atoms: C_1  and  C_2
REMARK                            x       y       z     vdW  Elec       q    Type
REMARK                         _______ _______ _______ _____ _____    ______ ____
ROOT
ATOM      1  C   UNL     1       3.235   3.335  20.175  0.00  0.00    +0.000 C 
ATOM      2  C   UNL     1       3.705   4.110  18.976  0.00  0.00    +0.000 A 
ATOM      3  C   UNL     1       4.385   3.533  17.970  0.00  0.00    +0.000 A 
ATOM      4  C   UNL     1       4.819   4.266  16.772  0.00  0.00    +0.000 A 
ATOM      5  O   UNL     1       5.461   3.697  15.896  0.00  0.00    +0.000 OA
ATOM      6  O   UNL     1       4.460   5.603  16.675  0.00  0.00    +0.000 OA
ATOM      7  C   UNL     1       3.706   6.235  17.692  0.00  0.00    +0.000 A 
ATOM      8  C   UNL     1       3.315   7.564  17.446  0.00  0.00    +0.000 A 
ATOM      9  C   UNL     1       2.508   8.137  18.428  0.00  0.00    +0.000 A 
ATOM     10  O   UNL     1       1.897   9.378  18.384  0.00  0.00    +0.000 OA
ATOM     11  C   UNL     1       1.179   9.433  19.521  0.00  0.00    +0.000 A 
ATOM     12  C   UNL     1       1.297   8.318  20.282  0.00  0.00    +0.000 A 
ATOM     13  C   UNL     1       2.161   7.467  19.609  0.00  0.00    +0.000 A 
ATOM     14  C   UNL     1       2.623   6.172  19.843  0.00  0.00    +0.000 A 
ATOM     15  C   UNL     1       3.359   5.526  18.849  0.00  0.00    +0.000 A 
ATOM     16  C   UNL     1       0.412   8.331  21.447  0.00  0.00    +0.000 C 
ATOM     17  C   UNL     1      -0.325   9.706  21.288  0.00  0.00    +0.000 C 
ATOM     18  C   UNL     1       0.203  10.423  19.981  0.00  0.00    +0.000 C 
ENDROOT
TORSDOF 0
ENDMDL
