MODEL 1
REMARK VINA RESULT:      -8.7      0.000      0.000
REMARK  Name = 
REMARK  6 active torsions:
REMARK  status: ('A' for Active; 'I' for Inactive)
REMARK    1  A    between atoms: C_1  and  C_2
REMARK    2  A    between atoms: C_2  and  C_3
REMARK    3  A    between atoms: C_2  and  N_4
REMARK    4  A    between atoms: C_7  and  O_8
REMARK    5  A    between atoms: O_8  and  C_9
REMARK    6  A    between atoms: C_14  and  C_15
REMARK                            x       y       z     vdW  Elec       q    Type
REMARK                         _______ _______ _______ _____ _____    ______ ____
ROOT
ATOM      1  C   UNL     1       0.888  10.344  20.285  0.00  0.00    +0.000 A 
ATOM      2  C   UNL     1       0.844   9.549  21.436  0.00  0.00    +0.000 A 
ATOM      3  C   UNL     1       1.324   8.230  21.434  0.00  0.00    +0.000 A 
ATOM      4  C   UNL     1       1.798   7.730  20.219  0.00  0.00    +0.000 A 
ATOM      5  N   UNL     1       2.321   6.501  19.890  0.00  0.00    +0.000 N 
ATOM      6  C   UNL     1       2.544   6.419  18.531  0.00  0.00    +0.000 A 
ATOM      7  C   UNL     1       2.317   7.685  18.026  0.00  0.00    +0.000 A 
ATOM      8  C   UNL     1       1.806   8.493  19.058  0.00  0.00    +0.000 A 
ATOM      9  C   UNL     1       1.347   9.813  19.085  0.00  0.00    +0.000 A 
ATOM     10  H   UNL     1       2.466   5.738  20.538  0.00  0.00    +0.000 HD
ENDROOT
BRANCH   6  11
ATOM     11  C   UNL     1       3.002   5.215  17.874  0.00  0.00    +0.000 C 
ATOM     12  O   UNL     1       2.199   4.377  17.482  0.00  0.00    +0.000 OA
ATOM     13  N   UNL     1       4.383   5.064  17.678  0.00  0.00    +0.000 N 
ATOM     14  C   UNL     1       5.411   6.067  17.982  0.00  0.00    +0.000 C 
ATOM     15  C   UNL     1       6.292   6.401  16.806  0.00  0.00    +0.000 C 
ATOM     16  S   UNL     1       7.046   4.953  16.168  0.00  0.00    +0.000 S 
ATOM     17  O   UNL     1       7.552   5.266  14.838  0.00  0.00    +0.000 OA
ATOM     18  O   UNL     1       7.941   4.421  17.184  0.00  0.00    +0.000 OA
ATOM     19  C   UNL     1       5.680   3.833  15.982  0.00  0.00    +0.000 C 
ATOM     20  C   UNL     1       4.894   3.755  17.272  0.00  0.00    +0.000 C 
ENDBRANCH   6  11
BRANCH   1  21
ATOM     21  O   UNL     1       0.448  11.632  20.405  0.00  0.00    +0.000 OA
BRANCH  21  25
ATOM     22  N   UNL     1      -0.654  14.755  19.395  0.00  0.00    +0.000 NA
ATOM     23  C   UNL     1      -0.165  13.730  18.458  0.00  0.00    +0.000 C 
ATOM     24  C   UNL     1      -0.998  12.457  18.570  0.00  0.00    +0.000 C 
ATOM     25  C   UNL     1      -0.912  11.902  19.997  0.00  0.00    +0.000 C 
ATOM     26  C   UNL     1      -1.449  12.972  20.939  0.00  0.00    +0.000 C 
ATOM     27  C   UNL     1      -0.652  14.268  20.784  0.00  0.00    +0.000 C 
BRANCH  22  29
ATOM     28  C   UNL     1       1.512  15.841  18.810  0.00  0.00    +0.000 C 
ATOM     29  C   UNL     1       0.046  16.048  19.210  0.00  0.00    +0.000 C 
ATOM     30  C   UNL     1      -0.627  17.027  18.236  0.00  0.00    +0.000 C 
ENDBRANCH  22  29
ENDBRANCH  21  25
ENDBRANCH   1  21
TORSDOF 4
ENDMDL
MODEL 2
REMARK VINA RESULT:      -8.6      1.054      1.973
REMARK  Name = 
REMARK  6 active torsions:
REMARK  status: ('A' for Active; 'I' for Inactive)
REMARK    1  A    between atoms: C_1  and  C_2
REMARK    2  A    between atoms: C_2  and  C_3
REMARK    3  A    between atoms: C_2  and  N_4
REMARK    4  A    between atoms: C_7  and  O_8
REMARK    5  A    between atoms: O_8  and  C_9
REMARK    6  A    between atoms: C_14  and  C_15
REMARK                            x       y       z     vdW  Elec       q    Type
REMARK                         _______ _______ _______ _____ _____    ______ ____
ROOT
ATOM      1  C   UNL     1       0.864  10.443  20.148  0.00  0.00    +0.000 A 
ATOM      2  C   UNL     1       0.870   9.696  21.330  0.00  0.00    +0.000 A 
ATOM      3  C   UNL     1       1.372   8.385  21.366  0.00  0.00    +0.000 A 
ATOM      4  C   UNL     1       1.817   7.844  20.159  0.00  0.00    +0.000 A 
ATOM      5  N   UNL     1       2.351   6.612  19.863  0.00  0.00    +0.000 N 
ATOM      6  C   UNL     1       2.534   6.477  18.503  0.00  0.00    +0.000 A 
ATOM      7  C   UNL     1       2.269   7.718  17.953  0.00  0.00    +0.000 A 
ATOM      8  C   UNL     1       1.776   8.559  18.968  0.00  0.00    +0.000 A 
ATOM      9  C   UNL     1       1.295   9.872  18.956  0.00  0.00    +0.000 A 
ATOM     10  H   UNL     1       2.529   5.878  20.536  0.00  0.00    +0.000 HD
ENDROOT
BRANCH   6  11
ATOM     11  C   UNL     1       2.993   5.255  17.880  0.00  0.00    +0.000 C 
ATOM     12  O   UNL     1       2.191   4.401  17.522  0.00  0.00    +0.000 OA
ATOM     13  N   UNL     1       4.373   5.104  17.679  0.00  0.00    +0.000 N 
ATOM     14  C   UNL     1       5.399   6.121  17.942  0.00  0.00    +0.000 C 
ATOM     15  C   UNL     1       6.269   6.422  16.750  0.00  0.00    +0.000 C 
ATOM     16  S   UNL     1       7.025   4.957  16.152  0.00  0.00    +0.000 S 
ATOM     17  O   UNL     1       7.519   5.230  14.809  0.00  0.00    +0.000 OA
ATOM     18  O   UNL     1       7.930   4.462  17.178  0.00  0.00    +0.000 OA
ATOM     19  C   UNL     1       5.663   3.826  16.013  0.00  0.00    +0.000 C 
ATOM     20  C   UNL     1       4.887   3.786  17.310  0.00  0.00    +0.000 C 
ENDBRANCH   6  11
BRANCH   1  21
ATOM     21  O   UNL     1       0.405  11.727  20.229  0.00  0.00    +0.000 OA
BRANCH  21  25
ATOM     22  N   UNL     1      -2.257  13.930  20.459  0.00  0.00    +0.000 NA
ATOM     23  C   UNL     1      -0.861  14.366  20.290  0.00  0.00    +0.000 C 
ATOM     24  C   UNL     1      -0.264  13.780  19.014  0.00  0.00    +0.000 C 
ATOM     25  C   UNL     1      -0.298  12.249  19.080  0.00  0.00    +0.000 C 
ATOM     26  C   UNL     1      -1.755  11.827  19.226  0.00  0.00    +0.000 C 
ATOM     27  C   UNL     1      -2.371  12.463  20.473  0.00  0.00    +0.000 C 
BRANCH  22  29
ATOM     28  C   UNL     1      -4.055  13.751  22.176  0.00  0.00    +0.000 C 
ATOM     29  C   UNL     1      -2.904  14.595  21.614  0.00  0.00    +0.000 C 
ATOM     30  C   UNL     1      -1.958  15.009  22.751  0.00  0.00    +0.000 C 
ENDBRANCH  22  29
ENDBRANCH  21  25
ENDBRANCH   1  21
TORSDOF 4
ENDMDL
MODEL 3
REMARK VINA RESULT:      -8.5      0.945      1.380
REMARK  Name = 
REMARK  6 active torsions:
REMARK  status: ('A' for Active; 'I' for Inactive)
REMARK    1  A    between atoms: C_1  and  C_2
REMARK    2  A    between atoms: C_2  and  C_3
REMARK    3  A    between atoms: C_2  and  N_4
REMARK    4  A    between atoms: C_7  and  O_8
REMARK    5  A    between atoms: O_8  and  C_9
REMARK    6  A    between atoms: C_14  and  C_15
REMARK                            x       y       z     vdW  Elec       q    Type
REMARK                         _______ _______ _______ _____ _____    ______ ____
ROOT
ATOM      1  C   UNL     1       0.844  10.521  19.991  0.00  0.00    +0.000 A 
ATOM      2  C   UNL     1       0.860   9.811  21.197  0.00  0.00    +0.000 A 
ATOM      3  C   UNL     1       1.374   8.507  21.273  0.00  0.00    +0.000 A 
ATOM      4  C   UNL     1       1.821   7.931  20.082  0.00  0.00    +0.000 A 
ATOM      5  N   UNL     1       2.364   6.695  19.825  0.00  0.00    +0.000 N 
ATOM      6  C   UNL     1       2.545   6.519  18.469  0.00  0.00    +0.000 A 
ATOM      7  C   UNL     1       2.267   7.739  17.881  0.00  0.00    +0.000 A 
ATOM      8  C   UNL     1       1.770   8.607  18.869  0.00  0.00    +0.000 A 
ATOM      9  C   UNL     1       1.277   9.915  18.817  0.00  0.00    +0.000 A 
ATOM     10  H   UNL     1       2.551   5.985  20.520  0.00  0.00    +0.000 HD
ENDROOT
BRANCH   6  11
ATOM     11  C   UNL     1       3.012   5.281  17.884  0.00  0.00    +0.000 C 
ATOM     12  O   UNL     1       2.217   4.411  17.552  0.00  0.00    +0.000 OA
ATOM     13  N   UNL     1       4.394   5.134  17.687  0.00  0.00    +0.000 N 
ATOM     14  C   UNL     1       5.412   6.166  17.919  0.00  0.00    +0.000 C 
ATOM     15  C   UNL     1       6.280   6.436  16.717  0.00  0.00    +0.000 C 
ATOM     16  S   UNL     1       7.047   4.960  16.165  0.00  0.00    +0.000 S 
ATOM     17  O   UNL     1       7.538   5.195  14.814  0.00  0.00    +0.000 OA
ATOM     18  O   UNL     1       7.956   4.504  17.205  0.00  0.00    +0.000 OA
ATOM     19  C   UNL     1       5.693   3.814  16.061  0.00  0.00    +0.000 C 
ATOM     20  C   UNL     1       4.917   3.809  17.359  0.00  0.00    +0.000 C 
ENDBRANCH   6  11
BRANCH   1  21
ATOM     21  O   UNL     1       0.374  11.803  20.033  0.00  0.00    +0.000 OA
BRANCH  21  25
ATOM     22  N   UNL     1       0.548  15.250  19.766  0.00  0.00    +0.000 NA
ATOM     23  C   UNL     1      -0.596  14.544  20.366  0.00  0.00    +0.000 C 
ATOM     24  C   UNL     1      -0.144  13.693  21.548  0.00  0.00    +0.000 C 
ATOM     25  C   UNL     1       0.885  12.657  21.080  0.00  0.00    +0.000 C 
ATOM     26  C   UNL     1       2.067  13.416  20.491  0.00  0.00    +0.000 C 
ATOM     27  C   UNL     1       1.604  14.316  19.345  0.00  0.00    +0.000 C 
BRANCH  22  29
ATOM     28  C   UNL     1      -1.121  16.990  19.132  0.00  0.00    +0.000 C 
ATOM     29  C   UNL     1       0.118  16.192  18.706  0.00  0.00    +0.000 C 
ATOM     30  C   UNL     1       1.205  17.150  18.197  0.00  0.00    +0.000 C 
ENDBRANCH  22  29
ENDBRANCH  21  25
ENDBRANCH   1  21
TORSDOF 4
ENDMDL
MODEL 4
REMARK VINA RESULT:      -8.3      0.776      1.115
REMARK  Name = 
REMARK  6 active torsions:
REMARK  status: ('A' for Active; 'I' for Inactive)
REMARK    1  A    between atoms: C_1  and  C_2
REMARK    2  A    between atoms: C_2  and  C_3
REMARK    3  A    between atoms: C_2  and  N_4
REMARK    4  A    between atoms: C_7  and  O_8
REMARK    5  A    between atoms: O_8  and  C_9
REMARK    6  A    between atoms: C_14  and  C_15
REMARK                            x       y       z     vdW  Elec       q    Type
REMARK                         _______ _______ _______ _____ _____    ______ ____
ROOT
ATOM      1  C   UNL     1       0.801  10.343  20.176  0.00  0.00    +0.000 A 
ATOM      2  C   UNL     1       0.893   9.615  21.368  0.00  0.00    +0.000 A 
ATOM      3  C   UNL     1       1.445   8.325  21.398  0.00  0.00    +0.000 A 
ATOM      4  C   UNL     1       1.850   7.780  20.178  0.00  0.00    +0.000 A 
ATOM      5  N   UNL     1       2.414   6.563  19.874  0.00  0.00    +0.000 N 
ATOM      6  C   UNL     1       2.535   6.414  18.508  0.00  0.00    +0.000 A 
ATOM      7  C   UNL     1       2.197   7.635  17.955  0.00  0.00    +0.000 A 
ATOM      8  C   UNL     1       1.723   8.473  18.980  0.00  0.00    +0.000 A 
ATOM      9  C   UNL     1       1.194   9.767  18.973  0.00  0.00    +0.000 A 
ATOM     10  H   UNL     1       2.652   5.848  20.548  0.00  0.00    +0.000 HD
ENDROOT
BRANCH   6  11
ATOM     11  C   UNL     1       3.007   5.199  17.881  0.00  0.00    +0.000 C 
ATOM     12  O   UNL     1       2.216   4.334  17.527  0.00  0.00    +0.000 OA
ATOM     13  N   UNL     1       4.389   5.069  17.671  0.00  0.00    +0.000 N 
ATOM     14  C   UNL     1       5.401   6.100  17.929  0.00  0.00    +0.000 C 
ATOM     15  C   UNL     1       6.259   6.415  16.731  0.00  0.00    +0.000 C 
ATOM     16  S   UNL     1       7.033   4.962  16.127  0.00  0.00    +0.000 S 
ATOM     17  O   UNL     1       7.514   5.244  14.782  0.00  0.00    +0.000 OA
ATOM     18  O   UNL     1       7.951   4.480  17.146  0.00  0.00    +0.000 OA
ATOM     19  C   UNL     1       5.687   3.811  15.995  0.00  0.00    +0.000 C 
ATOM     20  C   UNL     1       4.919   3.758  17.297  0.00  0.00    +0.000 C 
ENDBRANCH   6  11
BRANCH   1  21
ATOM     21  O   UNL     1       0.299  11.610  20.262  0.00  0.00    +0.000 OA
BRANCH  21  25
ATOM     22  N   UNL     1      -1.202  14.729  20.179  0.00  0.00    +0.000 NA
ATOM     23  C   UNL     1       0.094  14.441  19.544  0.00  0.00    +0.000 C 
ATOM     24  C   UNL     1      -0.049  13.327  18.510  0.00  0.00    +0.000 C 
ATOM     25  C   UNL     1      -0.561  12.051  19.188  0.00  0.00    +0.000 C 
ATOM     26  C   UNL     1      -1.914  12.372  19.811  0.00  0.00    +0.000 C 
ATOM     27  C   UNL     1      -1.782  13.529  20.803  0.00  0.00    +0.000 C 
BRANCH  22  29
ATOM     28  C   UNL     1      -0.461  15.532  22.419  0.00  0.00    +0.000 C 
ATOM     29  C   UNL     1      -1.122  15.899  21.085  0.00  0.00    +0.000 C 
ATOM     30  C   UNL     1      -0.445  17.144  20.492  0.00  0.00    +0.000 C 
ENDBRANCH  22  29
ENDBRANCH  21  25
ENDBRANCH   1  21
TORSDOF 4
ENDMDL
MODEL 5
REMARK VINA RESULT:      -8.3      1.117      1.850
REMARK  Name = 
REMARK  6 active torsions:
REMARK  status: ('A' for Active; 'I' for Inactive)
REMARK    1  A    between atoms: C_1  and  C_2
REMARK    2  A    between atoms: C_2  and  C_3
REMARK    3  A    between atoms: C_2  and  N_4
REMARK    4  A    between atoms: C_7  and  O_8
REMARK    5  A    between atoms: O_8  and  C_9
REMARK    6  A    between atoms: C_14  and  C_15
REMARK                            x       y       z     vdW  Elec       q    Type
REMARK                         _______ _______ _______ _____ _____    ______ ____
ROOT
ATOM      1  C   UNL     1       0.828  10.429  20.042  0.00  0.00    +0.000 A 
ATOM      2  C   UNL     1       0.879   9.713  21.243  0.00  0.00    +0.000 A 
ATOM      3  C   UNL     1       1.410   8.415  21.299  0.00  0.00    +0.000 A 
ATOM      4  C   UNL     1       1.836   7.851  20.095  0.00  0.00    +0.000 A 
ATOM      5  N   UNL     1       2.388   6.622  19.818  0.00  0.00    +0.000 N 
ATOM      6  C   UNL     1       2.539   6.456  18.457  0.00  0.00    +0.000 A 
ATOM      7  C   UNL     1       2.234   7.676  17.883  0.00  0.00    +0.000 A 
ATOM      8  C   UNL     1       1.749   8.533  18.888  0.00  0.00    +0.000 A 
ATOM      9  C   UNL     1       1.240   9.835  18.854  0.00  0.00    +0.000 A 
ATOM     10  H   UNL     1       2.598   5.911  20.505  0.00  0.00    +0.000 HD
ENDROOT
BRANCH   6  11
ATOM     11  C   UNL     1       3.008   5.228  17.855  0.00  0.00    +0.000 C 
ATOM     12  O   UNL     1       2.212   4.366  17.502  0.00  0.00    +0.000 OA
ATOM     13  N   UNL     1       4.390   5.080  17.666  0.00  0.00    +0.000 N 
ATOM     14  C   UNL     1       5.409   6.105  17.923  0.00  0.00    +0.000 C 
ATOM     15  C   UNL     1       6.287   6.393  16.733  0.00  0.00    +0.000 C 
ATOM     16  S   UNL     1       7.054   4.924  16.161  0.00  0.00    +0.000 S 
ATOM     17  O   UNL     1       7.557   5.181  14.818  0.00  0.00    +0.000 OA
ATOM     18  O   UNL     1       7.953   4.447  17.200  0.00  0.00    +0.000 OA
ATOM     19  C   UNL     1       5.698   3.784  16.027  0.00  0.00    +0.000 C 
ATOM     20  C   UNL     1       4.912   3.759  17.319  0.00  0.00    +0.000 C 
ENDBRANCH   6  11
BRANCH   1  21
ATOM     21  O   UNL     1       0.344  11.705  20.102  0.00  0.00    +0.000 OA
BRANCH  21  25
ATOM     22  N   UNL     1       0.023  15.056  20.914  0.00  0.00    +0.000 NA
ATOM     23  C   UNL     1       0.971  14.151  21.584  0.00  0.00    +0.000 C 
ATOM     24  C   UNL     1       1.939  13.541  20.575  0.00  0.00    +0.000 C 
ATOM     25  C   UNL     1       1.159  12.746  19.520  0.00  0.00    +0.000 C 
ATOM     26  C   UNL     1       0.209  13.714  18.825  0.00  0.00    +0.000 C 
ATOM     27  C   UNL     1      -0.722  14.370  19.846  0.00  0.00    +0.000 C 
BRANCH  22  29
ATOM     28  C   UNL     1      -2.195  16.134  21.273  0.00  0.00    +0.000 C 
ATOM     29  C   UNL     1      -0.837  15.769  21.886  0.00  0.00    +0.000 C 
ATOM     30  C   UNL     1      -1.047  15.052  23.228  0.00  0.00    +0.000 C 
ENDBRANCH  22  29
ENDBRANCH  21  25
ENDBRANCH   1  21
TORSDOF 4
ENDMDL
MODEL 6
REMARK VINA RESULT:      -8.2      1.061      1.353
REMARK  Name = 
REMARK  6 active torsions:
REMARK  status: ('A' for Active; 'I' for Inactive)
REMARK    1  A    between atoms: C_1  and  C_2
REMARK    2  A    between atoms: C_2  and  C_3
REMARK    3  A    between atoms: C_2  and  N_4
REMARK    4  A    between atoms: C_7  and  O_8
REMARK    5  A    between atoms: O_8  and  C_9
REMARK    6  A    between atoms: C_14  and  C_15
REMARK                            x       y       z     vdW  Elec       q    Type
REMARK                         _______ _______ _______ _____ _____    ______ ____
ROOT
ATOM      1  C   UNL     1       0.933  10.576  19.895  0.00  0.00    +0.000 A 
ATOM      2  C   UNL     1       0.846   9.860  21.094  0.00  0.00    +0.000 A 
ATOM      3  C   UNL     1       1.306   8.537  21.192  0.00  0.00    +0.000 A 
ATOM      4  C   UNL     1       1.805   7.951  20.027  0.00  0.00    +0.000 A 
ATOM      5  N   UNL     1       2.318   6.697  19.795  0.00  0.00    +0.000 N 
ATOM      6  C   UNL     1       2.577   6.521  18.452  0.00  0.00    +0.000 A 
ATOM      7  C   UNL     1       2.383   7.754  17.857  0.00  0.00    +0.000 A 
ATOM      8  C   UNL     1       1.856   8.635  18.819  0.00  0.00    +0.000 A 
ATOM      9  C   UNL     1       1.416   9.960  18.745  0.00  0.00    +0.000 A 
ATOM     10  H   UNL     1       2.434   5.976  20.496  0.00  0.00    +0.000 HD
ENDROOT
BRANCH   6  11
ATOM     11  C   UNL     1       3.035   5.270  17.888  0.00  0.00    +0.000 C 
ATOM     12  O   UNL     1       2.234   4.394  17.587  0.00  0.00    +0.000 OA
ATOM     13  N   UNL     1       4.413   5.116  17.676  0.00  0.00    +0.000 N 
ATOM     14  C   UNL     1       5.436   6.151  17.871  0.00  0.00    +0.000 C 
ATOM     15  C   UNL     1       6.288   6.393  16.652  0.00  0.00    +0.000 C 
ATOM     16  S   UNL     1       7.045   4.903  16.122  0.00  0.00    +0.000 S 
ATOM     17  O   UNL     1       7.519   5.107  14.760  0.00  0.00    +0.000 OA
ATOM     18  O   UNL     1       7.967   4.468  17.160  0.00  0.00    +0.000 OA
ATOM     19  C   UNL     1       5.688   3.758  16.062  0.00  0.00    +0.000 C 
ATOM     20  C   UNL     1       4.930   3.783  17.370  0.00  0.00    +0.000 C 
ENDBRANCH   6  11
BRANCH   1  21
ATOM     21  O   UNL     1       0.509  11.874  19.917  0.00  0.00    +0.000 OA
BRANCH  21  25
ATOM     22  N   UNL     1       0.626  15.335  19.914  0.00  0.00    +0.000 NA
ATOM     23  C   UNL     1       1.822  14.487  20.053  0.00  0.00    +0.000 C 
ATOM     24  C   UNL     1       1.971  13.564  18.847  0.00  0.00    +0.000 C 
ATOM     25  C   UNL     1       0.738  12.661  18.727  0.00  0.00    +0.000 C 
ATOM     26  C   UNL     1      -0.477  13.564  18.556  0.00  0.00    +0.000 C 
ATOM     27  C   UNL     1      -0.593  14.530  19.735  0.00  0.00    +0.000 C 
BRANCH  22  29
ATOM     28  C   UNL     1       1.857  16.460  21.766  0.00  0.00    +0.000 C 
ATOM     29  C   UNL     1       0.533  16.337  21.000  0.00  0.00    +0.000 C 
ATOM     30  C   UNL     1       0.048  17.730  20.571  0.00  0.00    +0.000 C 
ENDBRANCH  22  29
ENDBRANCH  21  25
ENDBRANCH   1  21
TORSDOF 4
ENDMDL
MODEL 7
REMARK VINA RESULT:      -7.9      2.581      3.944
REMARK  Name = 
REMARK  6 active torsions:
REMARK  status: ('A' for Active; 'I' for Inactive)
REMARK    1  A    between atoms: C_1  and  C_2
REMARK    2  A    between atoms: C_2  and  C_3
REMARK    3  A    between atoms: C_2  and  N_4
REMARK    4  A    between atoms: C_7  and  O_8
REMARK    5  A    between atoms: O_8  and  C_9
REMARK    6  A    between atoms: C_14  and  C_15
REMARK                            x       y       z     vdW  Elec       q    Type
REMARK                         _______ _______ _______ _____ _____    ______ ____
ROOT
ATOM      1  C   UNL     1      -0.523  10.506  20.474  0.00  0.00    +0.000 A 
ATOM      2  C   UNL     1      -0.225   9.745  21.610  0.00  0.00    +0.000 A 
ATOM      3  C   UNL     1       0.746   8.731  21.578  0.00  0.00    +0.000 A 
ATOM      4  C   UNL     1       1.362   8.482  20.350  0.00  0.00    +0.000 A 
ATOM      5  N   UNL     1       2.330   7.573  19.993  0.00  0.00    +0.000 N 
ATOM      6  C   UNL     1       2.547   7.608  18.631  0.00  0.00    +0.000 A 
ATOM      7  C   UNL     1       1.821   8.682  18.152  0.00  0.00    +0.000 A 
ATOM      8  C   UNL     1       1.044   9.200  19.203  0.00  0.00    +0.000 A 
ATOM      9  C   UNL     1       0.092  10.223  19.260  0.00  0.00    +0.000 A 
ATOM     10  H   UNL     1       2.781   6.924  20.624  0.00  0.00    +0.000 HD
ENDROOT
BRANCH   6  11
ATOM     11  C   UNL     1       3.441   6.700  17.946  0.00  0.00    +0.000 C 
ATOM     12  O   UNL     1       4.319   7.130  17.209  0.00  0.00    +0.000 OA
ATOM     13  N   UNL     1       3.283   5.326  18.184  0.00  0.00    +0.000 N 
ATOM     14  C   UNL     1       2.360   4.720  19.151  0.00  0.00    +0.000 C 
ATOM     15  C   UNL     1       3.035   3.795  20.130  0.00  0.00    +0.000 C 
ATOM     16  S   UNL     1       3.918   2.538  19.283  0.00  0.00    +0.000 S 
ATOM     17  O   UNL     1       4.843   1.932  20.232  0.00  0.00    +0.000 OA
ATOM     18  O   UNL     1       2.958   1.712  18.568  0.00  0.00    +0.000 OA
ATOM     19  C   UNL     1       4.874   3.446  18.093  0.00  0.00    +0.000 C 
ATOM     20  C   UNL     1       3.977   4.380  17.311  0.00  0.00    +0.000 C 
ENDBRANCH   6  11
BRANCH   1  21
ATOM     21  O   UNL     1      -1.443  11.505  20.623  0.00  0.00    +0.000 OA
BRANCH  21  25
ATOM     22  N   UNL     1      -3.142  13.637  22.757  0.00  0.00    +0.000 NA
ATOM     23  C   UNL     1      -2.122  12.680  23.217  0.00  0.00    +0.000 C 
ATOM     24  C   UNL     1      -0.786  12.945  22.529  0.00  0.00    +0.000 C 
ATOM     25  C   UNL     1      -0.946  12.805  21.011  0.00  0.00    +0.000 C 
ATOM     26  C   UNL     1      -1.985  13.825  20.561  0.00  0.00    +0.000 C 
ATOM     27  C   UNL     1      -3.307  13.597  21.295  0.00  0.00    +0.000 C 
BRANCH  22  29
ATOM     28  C   UNL     1      -5.589  13.200  22.574  0.00  0.00    +0.000 C 
ATOM     29  C   UNL     1      -4.410  13.493  23.510  0.00  0.00    +0.000 C 
ATOM     30  C   UNL     1      -4.383  12.465  24.652  0.00  0.00    +0.000 C 
ENDBRANCH  22  29
ENDBRANCH  21  25
ENDBRANCH   1  21
TORSDOF 4
ENDMDL
MODEL 8
REMARK VINA RESULT:      -7.9      1.530      2.105
REMARK  Name = 
REMARK  6 active torsions:
REMARK  status: ('A' for Active; 'I' for Inactive)
REMARK    1  A    between atoms: C_1  and  C_2
REMARK    2  A    between atoms: C_2  and  C_3
REMARK    3  A    between atoms: C_2  and  N_4
REMARK    4  A    between atoms: C_7  and  O_8
REMARK    5  A    between atoms: O_8  and  C_9
REMARK    6  A    between atoms: C_14  and  C_15
REMARK                            x       y       z     vdW  Elec       q    Type
REMARK                         _______ _______ _______ _____ _____    ______ ____
ROOT
ATOM      1  C   UNL     1       1.031  11.205  19.214  0.00  0.00    +0.000 A 
ATOM      2  C   UNL     1       0.651  10.571  20.402  0.00  0.00    +0.000 A 
ATOM      3  C   UNL     1       0.954   9.221  20.642  0.00  0.00    +0.000 A 
ATOM      4  C   UNL     1       1.604   8.526  19.620  0.00  0.00    +0.000 A 
ATOM      5  N   UNL     1       2.028   7.220  19.543  0.00  0.00    +0.000 N 
ATOM      6  C   UNL     1       2.517   6.944  18.283  0.00  0.00    +0.000 A 
ATOM      7  C   UNL     1       2.558   8.152  17.612  0.00  0.00    +0.000 A 
ATOM      8  C   UNL     1       1.948   9.131  18.417  0.00  0.00    +0.000 A 
ATOM      9  C   UNL     1       1.660  10.483  18.206  0.00  0.00    +0.000 A 
ATOM     10  H   UNL     1       1.939   6.535  20.282  0.00  0.00    +0.000 HD
ENDROOT
BRANCH   6  11
ATOM     11  C   UNL     1       2.949   5.627  17.871  0.00  0.00    +0.000 C 
ATOM     12  O   UNL     1       2.129   4.749  17.635  0.00  0.00    +0.000 OA
ATOM     13  N   UNL     1       4.328   5.410  17.723  0.00  0.00    +0.000 N 
ATOM     14  C   UNL     1       5.378   6.428  17.843  0.00  0.00    +0.000 C 
ATOM     15  C   UNL     1       6.275   6.513  16.636  0.00  0.00    +0.000 C 
ATOM     16  S   UNL     1       6.997   4.953  16.292  0.00  0.00    +0.000 S 
ATOM     17  O   UNL     1       7.520   4.997  14.933  0.00  0.00    +0.000 OA
ATOM     18  O   UNL     1       7.872   4.602  17.400  0.00  0.00    +0.000 OA
ATOM     19  C   UNL     1       5.605   3.850  16.305  0.00  0.00    +0.000 C 
ATOM     20  C   UNL     1       4.808   4.036  17.577  0.00  0.00    +0.000 C 
ENDBRANCH   6  11
BRANCH   1  21
ATOM     21  O   UNL     1       0.738  12.534  19.100  0.00  0.00    +0.000 OA
BRANCH  21  25
ATOM     22  N   UNL     1       2.784  15.327  19.153  0.00  0.00    +0.000 NA
ATOM     23  C   UNL     1       1.340  15.390  18.875  0.00  0.00    +0.000 C 
ATOM     24  C   UNL     1       0.541  14.817  20.042  0.00  0.00    +0.000 C 
ATOM     25  C   UNL     1       0.935  13.354  20.274  0.00  0.00    +0.000 C 
ATOM     26  C   UNL     1       2.426  13.323  20.587  0.00  0.00    +0.000 C 
ATOM     27  C   UNL     1       3.223  13.952  19.443  0.00  0.00    +0.000 C 
BRANCH  22  29
ATOM     28  C   UNL     1       2.716  16.979  17.289  0.00  0.00    +0.000 C 
ATOM     29  C   UNL     1       3.577  16.002  18.100  0.00  0.00    +0.000 C 
ATOM     30  C   UNL     1       4.850  16.711  18.588  0.00  0.00    +0.000 C 
ENDBRANCH  22  29
ENDBRANCH  21  25
ENDBRANCH   1  21
TORSDOF 4
ENDMDL
MODEL 9
REMARK VINA RESULT:      -7.8      2.898      3.829
REMARK  Name = 
REMARK  6 active torsions:
REMARK  status: ('A' for Active; 'I' for Inactive)
REMARK    1  A    between atoms: C_1  and  C_2
REMARK    2  A    between atoms: C_2  and  C_3
REMARK    3  A    between atoms: C_2  and  N_4
REMARK    4  A    between atoms: C_7  and  O_8
REMARK    5  A    between atoms: O_8  and  C_9
REMARK    6  A    between atoms: C_14  and  C_15
REMARK                            x       y       z     vdW  Elec       q    Type
REMARK                         _______ _______ _______ _____ _____    ______ ____
ROOT
ATOM      1  C   UNL     1      -0.527  10.707  21.291  0.00  0.00    +0.000 A 
ATOM      2  C   UNL     1      -0.128   9.898  22.360  0.00  0.00    +0.000 A 
ATOM      3  C   UNL     1       0.804   8.862  22.186  0.00  0.00    +0.000 A 
ATOM      4  C   UNL     1       1.274   8.643  20.890  0.00  0.00    +0.000 A 
ATOM      5  N   UNL     1       2.171   7.724  20.397  0.00  0.00    +0.000 N 
ATOM      6  C   UNL     1       2.237   7.803  19.021  0.00  0.00    +0.000 A 
ATOM      7  C   UNL     1       1.493   8.912  18.662  0.00  0.00    +0.000 A 
ATOM      8  C   UNL     1       0.852   9.410  19.811  0.00  0.00    +0.000 A 
ATOM      9  C   UNL     1      -0.058  10.453  20.007  0.00  0.00    +0.000 A 
ATOM     10  H   UNL     1       2.669   7.041  20.952  0.00  0.00    +0.000 HD
ENDROOT
BRANCH   6  11
ATOM     11  C   UNL     1       3.023   6.899  18.212  0.00  0.00    +0.000 C 
ATOM     12  O   UNL     1       3.792   7.333  17.363  0.00  0.00    +0.000 OA
ATOM     13  N   UNL     1       2.894   5.523  18.457  0.00  0.00    +0.000 N 
ATOM     14  C   UNL     1       2.112   4.911  19.538  0.00  0.00    +0.000 C 
ATOM     15  C   UNL     1       2.913   3.975  20.406  0.00  0.00    +0.000 C 
ATOM     16  S   UNL     1       3.665   2.724  19.434  0.00  0.00    +0.000 S 
ATOM     17  O   UNL     1       4.710   2.107  20.240  0.00  0.00    +0.000 OA
ATOM     18  O   UNL     1       2.612   1.907  18.852  0.00  0.00    +0.000 OA
ATOM     19  C   UNL     1       4.450   3.640  18.130  0.00  0.00    +0.000 C 
ATOM     20  C   UNL     1       3.457   4.583  17.489  0.00  0.00    +0.000 C 
ENDBRANCH   6  11
BRANCH   1  21
ATOM     21  O   UNL     1      -1.396  11.722  21.574  0.00  0.00    +0.000 OA
BRANCH  21  25
ATOM     22  N   UNL     1      -3.437  14.306  22.647  0.00  0.00    +0.000 NA
ATOM     23  C   UNL     1      -3.864  12.897  22.625  0.00  0.00    +0.000 C 
ATOM     24  C   UNL     1      -2.939  12.041  23.486  0.00  0.00    +0.000 C 
ATOM     25  C   UNL     1      -1.504  12.130  22.956  0.00  0.00    +0.000 C 
ATOM     26  C   UNL     1      -1.081  13.593  23.017  0.00  0.00    +0.000 C 
ATOM     27  C   UNL     1      -2.043  14.459  22.203  0.00  0.00    +0.000 C 
BRANCH  22  29
ATOM     28  C   UNL     1      -4.903  14.525  20.643  0.00  0.00    +0.000 C 
ATOM     29  C   UNL     1      -4.396  15.181  21.934  0.00  0.00    +0.000 C 
ATOM     30  C   UNL     1      -5.587  15.672  22.771  0.00  0.00    +0.000 C 
ENDBRANCH  22  29
ENDBRANCH  21  25
ENDBRANCH   1  21
TORSDOF 4
ENDMDL
