MODEL 1
REMARK VINA RESULT:      -7.5      0.000      0.000
REMARK  Name = 
REMARK  14 active torsions:
REMARK  status: ('A' for Active; 'I' for Inactive)
REMARK    1  A    between atoms: C_1  and  C_2
REMARK    2  A    between atoms: C_2  and  C_4
REMARK    3  A    between atoms: C_5  and  O_6
REMARK    4  A    between atoms: C_7  and  C_8
REMARK    5  A    between atoms: C_10  and  C_11
REMARK    6  A    between atoms: C_11  and  O_12
REMARK    7  A    between atoms: C_13  and  O_14
REMARK    8  A    between atoms: C_15  and  O_16
REMARK    9  A    between atoms: C_17  and  O_18
REMARK   10  A    between atoms: C_19  and  O_20
REMARK   11  A    between atoms: C_27  and  C_28
REMARK   12  A    between atoms: C_28  and  O_29
REMARK   13  A    between atoms: C_30  and  O_31
REMARK   14  A    between atoms: C_32  and  O_33
REMARK                            x       y       z     vdW  Elec       q    Type
REMARK                         _______ _______ _______ _____ _____    ______ ____
ROOT
ATOM      1  C   UNL     1       2.082   6.083  20.001  0.00  0.00    +0.000 A 
ATOM      2  C   UNL     1       1.264   7.180  20.353  0.00  0.00    +0.000 A 
ATOM      3  C   UNL     1       1.341   8.429  19.685  0.00  0.00    +0.000 A 
ATOM      4  C   UNL     1       2.324   8.580  18.696  0.00  0.00    +0.000 A 
ATOM      5  C   UNL     1       3.135   7.506  18.361  0.00  0.00    +0.000 A 
ATOM      6  C   UNL     1       3.025   6.287  19.004  0.00  0.00    +0.000 A 
ATOM      7  O   UNL     1       3.943   5.371  18.578  0.00  0.00    +0.000 OA
ATOM      8  C   UNL     1       4.716   6.018  17.535  0.00  0.00    +0.000 C 
ATOM      9  C   UNL     1       4.169   7.438  17.299  0.00  0.00    +0.000 C 
ATOM     10  O   UNL     1       4.553   5.250  16.334  0.00  0.00    +0.000 OA
ATOM     11  C   UNL     1       5.836   4.968  15.751  0.00  0.00    +0.000 C 
ATOM     12  C   UNL     1       6.930   5.467  16.689  0.00  0.00    +0.000 C 
ATOM     13  C   UNL     1       6.213   6.003  17.919  0.00  0.00    +0.000 C 
ENDROOT
BRANCH   3  14
ATOM     14  C   UNL     1       0.318   9.506  20.022  0.00  0.00    +0.000 C 
ATOM     15  O   UNL     1      -0.101  10.202  18.827  0.00  0.00    +0.000 OA
ATOM     16  C   UNL     1      -1.301  10.966  19.055  0.00  0.00    +0.000 C 
ATOM     17  C   UNL     1      -1.064  12.042  20.132  0.00  0.00    +0.000 C 
ATOM     18  C   UNL     1      -0.452  11.422  21.401  0.00  0.00    +0.000 C 
ATOM     19  C   UNL     1       0.783  10.561  21.052  0.00  0.00    +0.000 C 
BRANCH  17  20
ATOM     20  O   UNL     1      -2.291  12.724  20.421  0.00  0.00    +0.000 OA
ATOM     21  H   UNL     1      -2.618  12.414  21.287  0.00  0.00    +0.000 HD
ENDBRANCH  17  20
BRANCH  18  22
ATOM     22  O   UNL     1      -0.145  12.456  22.343  0.00  0.00    +0.000 OA
ATOM     23  H   UNL     1      -0.070  12.059  23.227  0.00  0.00    +0.000 HD
ENDBRANCH  18  22
BRANCH  19  24
ATOM     24  O   UNL     1       1.331  10.018  22.251  0.00  0.00    +0.000 OA
ATOM     25  H   UNL     1       1.024  10.560  23.003  0.00  0.00    +0.000 HD
ENDBRANCH  19  24
BRANCH  16  26
ATOM     26  C   UNL     1      -1.771  11.589  17.729  0.00  0.00    +0.000 C 
BRANCH  26  27
ATOM     27  O   UNL     1      -1.161  12.847  17.459  0.00  0.00    +0.000 OA
ATOM     28  H   UNL     1      -1.844  13.541  17.584  0.00  0.00    +0.000 HD
ENDBRANCH  26  27
ENDBRANCH  16  26
ENDBRANCH   3  14
BRANCH   1  30
ATOM     29  C   UNL     1       0.930   3.761  20.081  0.00  0.00    +0.000 C 
ATOM     30  C   UNL     1       1.888   4.768  20.666  0.00  0.00    +0.000 C 
ATOM     31  O   UNL     1       2.448   4.581  21.748  0.00  0.00    +0.000 OA
ENDBRANCH   1  30
BRANCH   2  32
ATOM     32  O   UNL     1       0.341   7.076  21.374  0.00  0.00    +0.000 OA
ATOM     33  H   UNL     1       0.140   6.116  21.498  0.00  0.00    +0.000 HD
ENDBRANCH   2  32
BRANCH   4  34
ATOM     34  O   UNL     1       2.547   9.745  18.032  0.00  0.00    +0.000 OA
ATOM     35  H   UNL     1       3.472   9.727  17.703  0.00  0.00    +0.000 HD
ENDBRANCH   4  34
BRANCH  12  36
ATOM     36  O   UNL     1       7.719   6.482  16.065  0.00  0.00    +0.000 OA
ATOM     37  H   UNL     1       7.658   7.313  16.575  0.00  0.00    +0.000 HD
ENDBRANCH  12  36
BRANCH  13  38
ATOM     38  O   UNL     1       6.504   5.139  19.029  0.00  0.00    +0.000 OA
ATOM     39  H   UNL     1       5.690   4.648  19.247  0.00  0.00    +0.000 HD
ENDBRANCH  13  38
BRANCH  11  40
ATOM     40  C   UNL     1       5.915   3.459  15.514  0.00  0.00    +0.000 C 
BRANCH  40  41
ATOM     41  O   UNL     1       6.257   3.198  14.153  0.00  0.00    +0.000 OA
ATOM     42  H   UNL     1       7.129   3.616  14.006  0.00  0.00    +0.000 HD
ENDBRANCH  40  41
ENDBRANCH  11  40
TORSDOF 13
ENDMDL
MODEL 2
REMARK VINA RESULT:      -6.7      1.258      1.388
REMARK  Name = 
REMARK  14 active torsions:
REMARK  status: ('A' for Active; 'I' for Inactive)
REMARK    1  A    between atoms: C_1  and  C_2
REMARK    2  A    between atoms: C_2  and  C_4
REMARK    3  A    between atoms: C_5  and  O_6
REMARK    4  A    between atoms: C_7  and  C_8
REMARK    5  A    between atoms: C_10  and  C_11
REMARK    6  A    between atoms: C_11  and  O_12
REMARK    7  A    between atoms: C_13  and  O_14
REMARK    8  A    between atoms: C_15  and  O_16
REMARK    9  A    between atoms: C_17  and  O_18
REMARK   10  A    between atoms: C_19  and  O_20
REMARK   11  A    between atoms: C_27  and  C_28
REMARK   12  A    between atoms: C_28  and  O_29
REMARK   13  A    between atoms: C_30  and  O_31
REMARK   14  A    between atoms: C_32  and  O_33
REMARK                            x       y       z     vdW  Elec       q    Type
REMARK                         _______ _______ _______ _____ _____    ______ ____
ROOT
ATOM      1  C   UNL     1       2.575   5.035  19.152  0.00  0.00    +0.000 A 
ATOM      2  C   UNL     1       1.804   6.067  19.732  0.00  0.00    +0.000 A 
ATOM      3  C   UNL     1       1.873   7.411  19.283  0.00  0.00    +0.000 A 
ATOM      4  C   UNL     1       2.802   7.715  18.277  0.00  0.00    +0.000 A 
ATOM      5  C   UNL     1       3.567   6.703  17.717  0.00  0.00    +0.000 A 
ATOM      6  C   UNL     1       3.465   5.394  18.149  0.00  0.00    +0.000 A 
ATOM      7  O   UNL     1       4.336   4.551  17.521  0.00  0.00    +0.000 OA
ATOM      8  C   UNL     1       5.064   5.356  16.558  0.00  0.00    +0.000 C 
ATOM      9  C   UNL     1       4.538   6.803  16.598  0.00  0.00    +0.000 C 
ATOM     10  O   UNL     1       4.815   4.806  15.256  0.00  0.00    +0.000 OA
ATOM     11  C   UNL     1       6.056   4.611  14.558  0.00  0.00    +0.000 C 
ATOM     12  C   UNL     1       7.213   4.929  15.500  0.00  0.00    +0.000 C 
ATOM     13  C   UNL     1       6.580   5.256  16.844  0.00  0.00    +0.000 C 
ENDROOT
BRANCH   3  14
ATOM     14  C   UNL     1       0.896   8.428  19.858  0.00  0.00    +0.000 C 
ATOM     15  O   UNL     1       0.577   9.440  18.875  0.00  0.00    +0.000 OA
ATOM     16  C   UNL     1      -0.589  10.195  19.257  0.00  0.00    +0.000 C 
ATOM     17  C   UNL     1      -0.347  10.934  20.587  0.00  0.00    +0.000 C 
ATOM     18  C   UNL     1       0.165   9.964  21.667  0.00  0.00    +0.000 C 
ATOM     19  C   UNL     1       1.366   9.144  21.145  0.00  0.00    +0.000 C 
BRANCH  17  20
ATOM     20  O   UNL     1      -1.546  11.598  21.004  0.00  0.00    +0.000 OA
ATOM     21  H   UNL     1      -1.351  12.548  21.108  0.00  0.00    +0.000 HD
ENDBRANCH  17  20
BRANCH  18  22
ATOM     22  O   UNL     1       0.482  10.692  22.858  0.00  0.00    +0.000 OA
ATOM     23  H   UNL     1      -0.333  11.098  23.201  0.00  0.00    +0.000 HD
ENDBRANCH  18  22
BRANCH  19  24
ATOM     24  O   UNL     1       1.822   8.270  22.175  0.00  0.00    +0.000 OA
ATOM     25  H   UNL     1       1.085   8.116  22.797  0.00  0.00    +0.000 HD
ENDBRANCH  19  24
BRANCH  16  26
ATOM     26  C   UNL     1      -0.955  11.174  18.127  0.00  0.00    +0.000 C 
BRANCH  26  27
ATOM     27  O   UNL     1      -0.256  12.412  18.215  0.00  0.00    +0.000 OA
ATOM     28  H   UNL     1       0.077  12.499  19.135  0.00  0.00    +0.000 HD
ENDBRANCH  26  27
ENDBRANCH  16  26
ENDBRANCH   3  14
BRANCH   1  30
ATOM     29  C   UNL     1       1.511   2.698  18.799  0.00  0.00    +0.000 C 
ATOM     30  C   UNL     1       2.389   3.629  19.595  0.00  0.00    +0.000 C 
ATOM     31  O   UNL     1       2.884   3.294  20.673  0.00  0.00    +0.000 OA
ENDBRANCH   1  30
BRANCH   2  32
ATOM     32  O   UNL     1       0.939   5.803  20.775  0.00  0.00    +0.000 OA
ATOM     33  H   UNL     1       0.793   6.649  21.264  0.00  0.00    +0.000 HD
ENDBRANCH   2  32
BRANCH   4  34
ATOM     34  O   UNL     1       3.013   8.973  17.807  0.00  0.00    +0.000 OA
ATOM     35  H   UNL     1       2.208   9.246  17.317  0.00  0.00    +0.000 HD
ENDBRANCH   4  34
BRANCH  12  36
ATOM     36  O   UNL     1       7.989   6.024  15.011  0.00  0.00    +0.000 OA
ATOM     37  H   UNL     1       7.490   6.505  14.322  0.00  0.00    +0.000 HD
ENDBRANCH  12  36
BRANCH  13  38
ATOM     38  O   UNL     1       6.912   4.212  17.772  0.00  0.00    +0.000 OA
ATOM     39  H   UNL     1       6.155   3.599  17.817  0.00  0.00    +0.000 HD
ENDBRANCH  13  38
BRANCH  11  40
ATOM     40  C   UNL     1       6.087   3.163  14.065  0.00  0.00    +0.000 C 
BRANCH  40  41
ATOM     41  O   UNL     1       6.456   3.127  12.686  0.00  0.00    +0.000 OA
ATOM     42  H   UNL     1       6.154   2.262  12.346  0.00  0.00    +0.000 HD
ENDBRANCH  40  41
ENDBRANCH  11  40
TORSDOF 13
ENDMDL
MODEL 3
REMARK VINA RESULT:      -6.6      7.620     11.032
REMARK  Name = 
REMARK  14 active torsions:
REMARK  status: ('A' for Active; 'I' for Inactive)
REMARK    1  A    between atoms: C_1  and  C_2
REMARK    2  A    between atoms: C_2  and  C_4
REMARK    3  A    between atoms: C_5  and  O_6
REMARK    4  A    between atoms: C_7  and  C_8
REMARK    5  A    between atoms: C_10  and  C_11
REMARK    6  A    between atoms: C_11  and  O_12
REMARK    7  A    between atoms: C_13  and  O_14
REMARK    8  A    between atoms: C_15  and  O_16
REMARK    9  A    between atoms: C_17  and  O_18
REMARK   10  A    between atoms: C_19  and  O_20
REMARK   11  A    between atoms: C_27  and  C_28
REMARK   12  A    between atoms: C_28  and  O_29
REMARK   13  A    between atoms: C_30  and  O_31
REMARK   14  A    between atoms: C_32  and  O_33
REMARK                            x       y       z     vdW  Elec       q    Type
REMARK                         _______ _______ _______ _____ _____    ______ ____
ROOT
ATOM      1  C   UNL     1       5.661  14.273  22.077  0.00  0.00    +0.000 A 
ATOM      2  C   UNL     1       6.533  14.494  20.988  0.00  0.00    +0.000 A 
ATOM      3  C   UNL     1       7.811  13.883  20.903  0.00  0.00    +0.000 A 
ATOM      4  C   UNL     1       8.231  13.098  21.985  0.00  0.00    +0.000 A 
ATOM      5  C   UNL     1       7.379  12.892  23.059  0.00  0.00    +0.000 A 
ATOM      6  C   UNL     1       6.126  13.473  23.112  0.00  0.00    +0.000 A 
ATOM      7  O   UNL     1       5.455  13.202  24.269  0.00  0.00    +0.000 OA
ATOM      8  C   UNL     1       6.318  12.336  25.051  0.00  0.00    +0.000 C 
ATOM      9  C   UNL     1       7.601  12.037  24.253  0.00  0.00    +0.000 C 
ATOM     10  O   UNL     1       5.612  11.107  25.274  0.00  0.00    +0.000 OA
ATOM     11  C   UNL     1       5.649  10.765  26.669  0.00  0.00    +0.000 C 
ATOM     12  C   UNL     1       6.308  11.901  27.445  0.00  0.00    +0.000 C 
ATOM     13  C   UNL     1       6.598  12.990  26.423  0.00  0.00    +0.000 C 
ENDROOT
BRANCH   3  14
ATOM     14  C   UNL     1       8.620  14.052  19.624  0.00  0.00    +0.000 C 
ATOM     15  O   UNL     1       9.380  12.855  19.341  0.00  0.00    +0.000 OA
ATOM     16  C   UNL     1       9.867  12.848  17.985  0.00  0.00    +0.000 C 
ATOM     17  C   UNL     1      10.814  14.039  17.740  0.00  0.00    +0.000 C 
ATOM     18  C   UNL     1      10.155  15.360  18.174  0.00  0.00    +0.000 C 
ATOM     19  C   UNL     1       9.597  15.251  19.611  0.00  0.00    +0.000 C 
BRANCH  17  20
ATOM     20  O   UNL     1      11.208  14.077  16.363  0.00  0.00    +0.000 OA
ATOM     21  H   UNL     1      11.568  13.203  16.122  0.00  0.00    +0.000 HD
ENDBRANCH  17  20
BRANCH  18  22
ATOM     22  O   UNL     1      11.092  16.434  18.036  0.00  0.00    +0.000 OA
ATOM     23  H   UNL     1      11.330  16.521  17.097  0.00  0.00    +0.000 HD
ENDBRANCH  18  22
BRANCH  19  24
ATOM     24  O   UNL     1       9.009  16.496  19.984  0.00  0.00    +0.000 OA
ATOM     25  H   UNL     1       8.106  16.324  20.314  0.00  0.00    +0.000 HD
ENDBRANCH  19  24
BRANCH  16  26
ATOM     26  C   UNL     1      10.563  11.506  17.698  0.00  0.00    +0.000 C 
BRANCH  26  27
ATOM     27  O   UNL     1      11.959  11.646  17.450  0.00  0.00    +0.000 OA
ATOM     28  H   UNL     1      12.290  10.781  17.124  0.00  0.00    +0.000 HD
ENDBRANCH  26  27
ENDBRANCH  16  26
ENDBRANCH   3  14
BRANCH   1  30
ATOM     29  C   UNL     1       4.069  16.257  22.580  0.00  0.00    +0.000 C 
ATOM     30  C   UNL     1       4.295  14.858  22.066  0.00  0.00    +0.000 C 
ATOM     31  O   UNL     1       3.359  14.131  21.727  0.00  0.00    +0.000 OA
ENDBRANCH   1  30
BRANCH   2  32
ATOM     32  O   UNL     1       6.169  15.325  19.947  0.00  0.00    +0.000 OA
ATOM     33  H   UNL     1       6.465  14.898  19.107  0.00  0.00    +0.000 HD
ENDBRANCH   2  32
BRANCH   4  34
ATOM     34  O   UNL     1       9.458  12.514  22.057  0.00  0.00    +0.000 OA
ATOM     35  H   UNL     1      10.082  13.181  22.417  0.00  0.00    +0.000 HD
ENDBRANCH   4  34
BRANCH  12  36
ATOM     36  O   UNL     1       7.505  11.459  28.086  0.00  0.00    +0.000 OA
ATOM     37  H   UNL     1       7.715  12.044  28.840  0.00  0.00    +0.000 HD
ENDBRANCH  12  36
BRANCH  13  38
ATOM     38  O   UNL     1       5.746  14.113  26.699  0.00  0.00    +0.000 OA
ATOM     39  H   UNL     1       6.108  14.580  27.474  0.00  0.00    +0.000 HD
ENDBRANCH  13  38
BRANCH  11  40
ATOM     40  C   UNL     1       4.210  10.510  27.121  0.00  0.00    +0.000 C 
BRANCH  40  41
ATOM     41  O   UNL     1       3.477   9.871  26.075  0.00  0.00    +0.000 OA
ATOM     42  H   UNL     1       3.182   9.011  26.435  0.00  0.00    +0.000 HD
ENDBRANCH  40  41
ENDBRANCH  11  40
TORSDOF 13
ENDMDL
MODEL 4
REMARK VINA RESULT:      -6.5      1.543      2.679
REMARK  Name = 
REMARK  14 active torsions:
REMARK  status: ('A' for Active; 'I' for Inactive)
REMARK    1  A    between atoms: C_1  and  C_2
REMARK    2  A    between atoms: C_2  and  C_4
REMARK    3  A    between atoms: C_5  and  O_6
REMARK    4  A    between atoms: C_7  and  C_8
REMARK    5  A    between atoms: C_10  and  C_11
REMARK    6  A    between atoms: C_11  and  O_12
REMARK    7  A    between atoms: C_13  and  O_14
REMARK    8  A    between atoms: C_15  and  O_16
REMARK    9  A    between atoms: C_17  and  O_18
REMARK   10  A    between atoms: C_19  and  O_20
REMARK   11  A    between atoms: C_27  and  C_28
REMARK   12  A    between atoms: C_28  and  O_29
REMARK   13  A    between atoms: C_30  and  O_31
REMARK   14  A    between atoms: C_32  and  O_33
REMARK                            x       y       z     vdW  Elec       q    Type
REMARK                         _______ _______ _______ _____ _____    ______ ____
ROOT
ATOM      1  C   UNL     1       2.880   5.319  18.856  0.00  0.00    +0.000 A 
ATOM      2  C   UNL     1       2.257   6.434  19.459  0.00  0.00    +0.000 A 
ATOM      3  C   UNL     1       2.428   7.755  18.971  0.00  0.00    +0.000 A 
ATOM      4  C   UNL     1       3.310   7.945  17.898  0.00  0.00    +0.000 A 
ATOM      5  C   UNL     1       3.930   6.851  17.315  0.00  0.00    +0.000 A 
ATOM      6  C   UNL     1       3.729   5.567  17.786  0.00  0.00    +0.000 A 
ATOM      7  O   UNL     1       4.466   4.628  17.123  0.00  0.00    +0.000 OA
ATOM      8  C   UNL     1       5.202   5.337  16.093  0.00  0.00    +0.000 C 
ATOM      9  C   UNL     1       4.826   6.830  16.131  0.00  0.00    +0.000 C 
ATOM     10  O   UNL     1       4.810   4.791  14.826  0.00  0.00    +0.000 OA
ATOM     11  C   UNL     1       5.974   4.457  14.052  0.00  0.00    +0.000 C 
ATOM     12  C   UNL     1       7.220   4.674  14.905  0.00  0.00    +0.000 C 
ATOM     13  C   UNL     1       6.717   5.090  16.280  0.00  0.00    +0.000 C 
ENDROOT
BRANCH   3  14
ATOM     14  C   UNL     1       1.599   8.876  19.584  0.00  0.00    +0.000 C 
ATOM     15  O   UNL     1       1.225   8.549  20.942  0.00  0.00    +0.000 OA
ATOM     16  C   UNL     1       0.757   9.711  21.654  0.00  0.00    +0.000 C 
ATOM     17  C   UNL     1      -0.500  10.293  20.979  0.00  0.00    +0.000 C 
ATOM     18  C   UNL     1      -0.259  10.521  19.476  0.00  0.00    +0.000 C 
ATOM     19  C   UNL     1       0.313   9.248  18.811  0.00  0.00    +0.000 C 
BRANCH  17  20
ATOM     20  O   UNL     1      -0.894  11.504  21.636  0.00  0.00    +0.000 OA
ATOM     21  H   UNL     1      -1.233  12.123  20.962  0.00  0.00    +0.000 HD
ENDBRANCH  17  20
BRANCH  18  22
ATOM     22  O   UNL     1      -1.471  10.960  18.854  0.00  0.00    +0.000 OA
ATOM     23  H   UNL     1      -1.424  10.758  17.904  0.00  0.00    +0.000 HD
ENDBRANCH  18  22
BRANCH  19  24
ATOM     24  O   UNL     1       0.509   9.491  17.420  0.00  0.00    +0.000 OA
ATOM     25  H   UNL     1      -0.112  10.192  17.140  0.00  0.00    +0.000 HD
ENDBRANCH  19  24
BRANCH  16  26
ATOM     26  C   UNL     1       0.486   9.336  23.122  0.00  0.00    +0.000 C 
BRANCH  26  27
ATOM     27  O   UNL     1      -0.901   9.325  23.446  0.00  0.00    +0.000 OA
ATOM     28  H   UNL     1      -1.298  10.143  23.075  0.00  0.00    +0.000 HD
ENDBRANCH  26  27
ENDBRANCH  16  26
ENDBRANCH   3  14
BRANCH   1  30
ATOM     29  C   UNL     1       1.644   3.056  18.576  0.00  0.00    +0.000 C 
ATOM     30  C   UNL     1       2.585   3.948  19.346  0.00  0.00    +0.000 C 
ATOM     31  O   UNL     1       3.047   3.614  20.440  0.00  0.00    +0.000 OA
ENDBRANCH   1  30
BRANCH   2  32
ATOM     32  O   UNL     1       1.444   6.278  20.564  0.00  0.00    +0.000 OA
ATOM     33  H   UNL     1       0.793   5.563  20.358  0.00  0.00    +0.000 HD
ENDBRANCH   2  32
BRANCH   4  34
ATOM     34  O   UNL     1       3.613   9.166  17.383  0.00  0.00    +0.000 OA
ATOM     35  H   UNL     1       4.347   9.044  16.742  0.00  0.00    +0.000 HD
ENDBRANCH   4  34
BRANCH  12  36
ATOM     36  O   UNL     1       8.065   5.676  14.337  0.00  0.00    +0.000 OA
ATOM     37  H   UNL     1       7.534   6.456  14.084  0.00  0.00    +0.000 HD
ENDBRANCH  12  36
BRANCH  13  38
ATOM     38  O   UNL     1       7.007   4.035  17.210  0.00  0.00    +0.000 OA
ATOM     39  H   UNL     1       7.792   4.297  17.725  0.00  0.00    +0.000 HD
ENDBRANCH  13  38
BRANCH  11  40
ATOM     40  C   UNL     1       5.827   3.005  13.595  0.00  0.00    +0.000 C 
BRANCH  40  41
ATOM     41  O   UNL     1       6.364   2.851  12.281  0.00  0.00    +0.000 OA
ATOM     42  H   UNL     1       7.294   2.573  12.398  0.00  0.00    +0.000 HD
ENDBRANCH  40  41
ENDBRANCH  11  40
TORSDOF 13
ENDMDL
MODEL 5
REMARK VINA RESULT:      -6.4      0.852      2.182
REMARK  Name = 
REMARK  14 active torsions:
REMARK  status: ('A' for Active; 'I' for Inactive)
REMARK    1  A    between atoms: C_1  and  C_2
REMARK    2  A    between atoms: C_2  and  C_4
REMARK    3  A    between atoms: C_5  and  O_6
REMARK    4  A    between atoms: C_7  and  C_8
REMARK    5  A    between atoms: C_10  and  C_11
REMARK    6  A    between atoms: C_11  and  O_12
REMARK    7  A    between atoms: C_13  and  O_14
REMARK    8  A    between atoms: C_15  and  O_16
REMARK    9  A    between atoms: C_17  and  O_18
REMARK   10  A    between atoms: C_19  and  O_20
REMARK   11  A    between atoms: C_27  and  C_28
REMARK   12  A    between atoms: C_28  and  O_29
REMARK   13  A    between atoms: C_30  and  O_31
REMARK   14  A    between atoms: C_32  and  O_33
REMARK                            x       y       z     vdW  Elec       q    Type
REMARK                         _______ _______ _______ _____ _____    ______ ____
ROOT
ATOM      1  C   UNL     1       2.177   6.272  19.821  0.00  0.00    +0.000 A 
ATOM      2  C   UNL     1       1.434   7.422  20.170  0.00  0.00    +0.000 A 
ATOM      3  C   UNL     1       1.578   8.656  19.485  0.00  0.00    +0.000 A 
ATOM      4  C   UNL     1       2.553   8.733  18.479  0.00  0.00    +0.000 A 
ATOM      5  C   UNL     1       3.290   7.607  18.147  0.00  0.00    +0.000 A 
ATOM      6  C   UNL     1       3.116   6.405  18.807  0.00  0.00    +0.000 A 
ATOM      7  O   UNL     1       3.968   5.428  18.380  0.00  0.00    +0.000 OA
ATOM      8  C   UNL     1       4.764   6.013  17.317  0.00  0.00    +0.000 C 
ATOM      9  C   UNL     1       4.301   7.461  17.070  0.00  0.00    +0.000 C 
ATOM     10  O   UNL     1       4.534   5.242  16.129  0.00  0.00    +0.000 OA
ATOM     11  C   UNL     1       5.788   4.874  15.531  0.00  0.00    +0.000 C 
ATOM     12  C   UNL     1       6.926   5.316  16.445  0.00  0.00    +0.000 C 
ATOM     13  C   UNL     1       6.263   5.911  17.679  0.00  0.00    +0.000 C 
ENDROOT
BRANCH   3  14
ATOM     14  C   UNL     1       0.629   9.797  19.823  0.00  0.00    +0.000 C 
ATOM     15  O   UNL     1       0.111   9.649  21.165  0.00  0.00    +0.000 OA
ATOM     16  C   UNL     1      -0.494  10.869  21.634  0.00  0.00    +0.000 C 
ATOM     17  C   UNL     1      -1.688  11.262  20.743  0.00  0.00    +0.000 C 
ATOM     18  C   UNL     1      -1.280  11.282  19.259  0.00  0.00    +0.000 C 
ATOM     19  C   UNL     1      -0.572   9.967  18.864  0.00  0.00    +0.000 C 
BRANCH  17  20
ATOM     20  O   UNL     1      -2.216  12.528  21.159  0.00  0.00    +0.000 OA
ATOM     21  H   UNL     1      -3.067  12.670  20.703  0.00  0.00    +0.000 HD
ENDBRANCH  17  20
BRANCH  18  22
ATOM     22  O   UNL     1      -2.430  11.545  18.446  0.00  0.00    +0.000 OA
ATOM     23  H   UNL     1      -2.451  10.900  17.719  0.00  0.00    +0.000 HD
ENDBRANCH  18  22
BRANCH  19  24
ATOM     24  O   UNL     1      -0.224  10.016  17.482  0.00  0.00    +0.000 OA
ATOM     25  H   UNL     1       0.663   9.622  17.374  0.00  0.00    +0.000 HD
ENDBRANCH  19  24
BRANCH  16  26
ATOM     26  C   UNL     1      -0.920  10.697  23.103  0.00  0.00    +0.000 C 
BRANCH  26  27
ATOM     27  O   UNL     1      -0.065   9.820  23.830  0.00  0.00    +0.000 OA
ATOM     28  H   UNL     1       0.820  10.242  23.878  0.00  0.00    +0.000 HD
ENDBRANCH  26  27
ENDBRANCH  16  26
ENDBRANCH   3  14
BRANCH   1  30
ATOM     29  C   UNL     1       0.996   3.964  19.873  0.00  0.00    +0.000 C 
ATOM     30  C   UNL     1       1.913   4.980  20.506  0.00  0.00    +0.000 C 
ATOM     31  O   UNL     1       2.378   4.821  21.637  0.00  0.00    +0.000 OA
ENDBRANCH   1  30
BRANCH   2  32
ATOM     32  O   UNL     1       0.523   7.388  21.206  0.00  0.00    +0.000 OA
ATOM     33  H   UNL     1       1.018   7.166  22.032  0.00  0.00    +0.000 HD
ENDBRANCH   2  32
BRANCH   4  34
ATOM     34  O   UNL     1       2.836   9.874  17.796  0.00  0.00    +0.000 OA
ATOM     35  H   UNL     1       2.833  10.614  18.441  0.00  0.00    +0.000 HD
ENDBRANCH   4  34
BRANCH  12  36
ATOM     36  O   UNL     1       7.766   6.272  15.797  0.00  0.00    +0.000 OA
ATOM     37  H   UNL     1       8.094   6.924  16.447  0.00  0.00    +0.000 HD
ENDBRANCH  12  36
BRANCH  13  38
ATOM     38  O   UNL     1       6.516   5.044  18.796  0.00  0.00    +0.000 OA
ATOM     39  H   UNL     1       7.061   5.535  19.438  0.00  0.00    +0.000 HD
ENDBRANCH  13  38
BRANCH  11  40
ATOM     40  C   UNL     1       5.771   3.360  15.313  0.00  0.00    +0.000 C 
BRANCH  40  41
ATOM     41  O   UNL     1       6.231   3.053  13.997  0.00  0.00    +0.000 OA
ATOM     42  H   UNL     1       5.570   3.428  13.382  0.00  0.00    +0.000 HD
ENDBRANCH  40  41
ENDBRANCH  11  40
TORSDOF 13
ENDMDL
MODEL 6
REMARK VINA RESULT:      -6.2      8.086     10.156
REMARK  Name = 
REMARK  14 active torsions:
REMARK  status: ('A' for Active; 'I' for Inactive)
REMARK    1  A    between atoms: C_1  and  C_2
REMARK    2  A    between atoms: C_2  and  C_4
REMARK    3  A    between atoms: C_5  and  O_6
REMARK    4  A    between atoms: C_7  and  C_8
REMARK    5  A    between atoms: C_10  and  C_11
REMARK    6  A    between atoms: C_11  and  O_12
REMARK    7  A    between atoms: C_13  and  O_14
REMARK    8  A    between atoms: C_15  and  O_16
REMARK    9  A    between atoms: C_17  and  O_18
REMARK   10  A    between atoms: C_19  and  O_20
REMARK   11  A    between atoms: C_27  and  C_28
REMARK   12  A    between atoms: C_28  and  O_29
REMARK   13  A    between atoms: C_30  and  O_31
REMARK   14  A    between atoms: C_32  and  O_33
REMARK                            x       y       z     vdW  Elec       q    Type
REMARK                         _______ _______ _______ _____ _____    ______ ____
ROOT
ATOM      1  C   UNL     1       6.972  14.669  21.066  0.00  0.00    +0.000 A 
ATOM      2  C   UNL     1       6.505  14.228  22.325  0.00  0.00    +0.000 A 
ATOM      3  C   UNL     1       7.236  13.318  23.130  0.00  0.00    +0.000 A 
ATOM      4  C   UNL     1       8.425  12.792  22.605  0.00  0.00    +0.000 A 
ATOM      5  C   UNL     1       8.877  13.216  21.364  0.00  0.00    +0.000 A 
ATOM      6  C   UNL     1       8.164  14.126  20.606  0.00  0.00    +0.000 A 
ATOM      7  O   UNL     1       8.735  14.379  19.392  0.00  0.00    +0.000 OA
ATOM      8  C   UNL     1       9.956  13.596  19.341  0.00  0.00    +0.000 C 
ATOM      9  C   UNL     1      10.137  12.845  20.674  0.00  0.00    +0.000 C 
ATOM     10  O   UNL     1      11.050  14.509  19.169  0.00  0.00    +0.000 OA
ATOM     11  C   UNL     1      11.888  14.074  18.086  0.00  0.00    +0.000 C 
ATOM     12  C   UNL     1      11.244  12.868  17.410  0.00  0.00    +0.000 C 
ATOM     13  C   UNL     1       9.914  12.654  18.117  0.00  0.00    +0.000 C 
ENDROOT
BRANCH   3  14
ATOM     14  C   UNL     1       6.736  13.018  24.537  0.00  0.00    +0.000 C 
ATOM     15  O   UNL     1       7.768  13.286  25.513  0.00  0.00    +0.000 OA
ATOM     16  C   UNL     1       7.228  13.352  26.847  0.00  0.00    +0.000 C 
ATOM     17  C   UNL     1       6.588  12.007  27.242  0.00  0.00    +0.000 C 
ATOM     18  C   UNL     1       5.585  11.543  26.170  0.00  0.00    +0.000 C 
ATOM     19  C   UNL     1       6.227  11.576  24.765  0.00  0.00    +0.000 C 
BRANCH  17  20
ATOM     20  O   UNL     1       5.966  12.119  28.528  0.00  0.00    +0.000 OA
ATOM     21  H   UNL     1       5.723  13.054  28.671  0.00  0.00    +0.000 HD
ENDBRANCH  17  20
BRANCH  18  22
ATOM     22  O   UNL     1       5.085  10.244  26.509  0.00  0.00    +0.000 OA
ATOM     23  H   UNL     1       4.223  10.347  26.946  0.00  0.00    +0.000 HD
ENDBRANCH  18  22
BRANCH  19  24
ATOM     24  O   UNL     1       5.276  11.125  23.803  0.00  0.00    +0.000 OA
ATOM     25  H   UNL     1       4.460  11.652  23.906  0.00  0.00    +0.000 HD
ENDBRANCH  19  24
BRANCH  16  26
ATOM     26  C   UNL     1       8.341  13.757  27.830  0.00  0.00    +0.000 C 
BRANCH  26  27
ATOM     27  O   UNL     1       8.156  15.061  28.372  0.00  0.00    +0.000 OA
ATOM     28  H   UNL     1       7.646  14.966  29.205  0.00  0.00    +0.000 HD
ENDBRANCH  26  27
ENDBRANCH  16  26
ENDBRANCH   3  14
BRANCH   1  30
ATOM     29  C   UNL     1       5.486  15.325  19.045  0.00  0.00    +0.000 C 
ATOM     30  C   UNL     1       6.215  15.700  20.311  0.00  0.00    +0.000 C 
ATOM     31  O   UNL     1       6.293  16.869  20.694  0.00  0.00    +0.000 OA
ENDBRANCH   1  30
BRANCH   2  32
ATOM     32  O   UNL     1       5.300  14.676  22.828  0.00  0.00    +0.000 OA
ATOM     33  H   UNL     1       5.343  15.662  22.872  0.00  0.00    +0.000 HD
ENDBRANCH   2  32
BRANCH   4  34
ATOM     34  O   UNL     1       9.182  11.862  23.246  0.00  0.00    +0.000 OA
ATOM     35  H   UNL     1       8.904  10.978  22.919  0.00  0.00    +0.000 HD
ENDBRANCH   4  34
BRANCH  12  36
ATOM     36  O   UNL     1      12.078  11.714  17.513  0.00  0.00    +0.000 OA
ATOM     37  H   UNL     1      12.978  11.923  17.193  0.00  0.00    +0.000 HD
ENDBRANCH  12  36
BRANCH  13  38
ATOM     38  O   UNL     1       8.854  12.965  17.200  0.00  0.00    +0.000 OA
ATOM     39  H   UNL     1       8.105  13.318  17.716  0.00  0.00    +0.000 HD
ENDBRANCH  13  38
BRANCH  11  40
ATOM     40  C   UNL     1      12.058  15.256  17.129  0.00  0.00    +0.000 C 
BRANCH  40  41
ATOM     41  O   UNL     1      11.003  15.259  16.167  0.00  0.00    +0.000 OA
ATOM     42  H   UNL     1      10.373  14.567  16.452  0.00  0.00    +0.000 HD
ENDBRANCH  40  41
ENDBRANCH  11  40
TORSDOF 13
ENDMDL
MODEL 7
REMARK VINA RESULT:      -6.2      2.156      8.217
REMARK  Name = 
REMARK  14 active torsions:
REMARK  status: ('A' for Active; 'I' for Inactive)
REMARK    1  A    between atoms: C_1  and  C_2
REMARK    2  A    between atoms: C_2  and  C_4
REMARK    3  A    between atoms: C_5  and  O_6
REMARK    4  A    between atoms: C_7  and  C_8
REMARK    5  A    between atoms: C_10  and  C_11
REMARK    6  A    between atoms: C_11  and  O_12
REMARK    7  A    between atoms: C_13  and  O_14
REMARK    8  A    between atoms: C_15  and  O_16
REMARK    9  A    between atoms: C_17  and  O_18
REMARK   10  A    between atoms: C_19  and  O_20
REMARK   11  A    between atoms: C_27  and  C_28
REMARK   12  A    between atoms: C_28  and  O_29
REMARK   13  A    between atoms: C_30  and  O_31
REMARK   14  A    between atoms: C_32  and  O_33
REMARK                            x       y       z     vdW  Elec       q    Type
REMARK                         _______ _______ _______ _____ _____    ______ ____
ROOT
ATOM      1  C   UNL     1       1.181   9.329  21.218  0.00  0.00    +0.000 A 
ATOM      2  C   UNL     1       1.479   8.146  20.504  0.00  0.00    +0.000 A 
ATOM      3  C   UNL     1       1.762   8.149  19.114  0.00  0.00    +0.000 A 
ATOM      4  C   UNL     1       1.661   9.370  18.431  0.00  0.00    +0.000 A 
ATOM      5  C   UNL     1       1.356  10.528  19.130  0.00  0.00    +0.000 A 
ATOM      6  C   UNL     1       1.111  10.509  20.491  0.00  0.00    +0.000 A 
ATOM      7  O   UNL     1       0.773  11.733  20.993  0.00  0.00    +0.000 OA
ATOM      8  C   UNL     1       0.827  12.663  19.880  0.00  0.00    +0.000 C 
ATOM      9  C   UNL     1       1.282  11.917  18.612  0.00  0.00    +0.000 C 
ATOM     10  O   UNL     1       1.797  13.669  20.202  0.00  0.00    +0.000 OA
ATOM     11  C   UNL     1       1.239  14.977  19.993  0.00  0.00    +0.000 C 
ATOM     12  C   UNL     1      -0.237  14.837  19.633  0.00  0.00    +0.000 C 
ATOM     13  C   UNL     1      -0.548  13.350  19.717  0.00  0.00    +0.000 C 
ENDROOT
BRANCH   3  14
ATOM     14  C   UNL     1       2.224   6.856  18.457  0.00  0.00    +0.000 C 
ATOM     15  O   UNL     1       1.793   5.711  19.227  0.00  0.00    +0.000 OA
ATOM     16  C   UNL     1       1.902   4.492  18.466  0.00  0.00    +0.000 C 
ATOM     17  C   UNL     1       3.367   4.229  18.069  0.00  0.00    +0.000 C 
ATOM     18  C   UNL     1       3.980   5.464  17.385  0.00  0.00    +0.000 C 
ATOM     19  C   UNL     1       3.749   6.734  18.235  0.00  0.00    +0.000 C 
BRANCH  17  20
ATOM     20  O   UNL     1       3.447   3.071  17.228  0.00  0.00    +0.000 OA
ATOM     21  H   UNL     1       4.205   3.182  16.623  0.00  0.00    +0.000 HD
ENDBRANCH  17  20
BRANCH  18  22
ATOM     22  O   UNL     1       5.368   5.232  17.122  0.00  0.00    +0.000 OA
ATOM     23  H   UNL     1       5.883   5.968  17.493  0.00  0.00    +0.000 HD
ENDBRANCH  18  22
BRANCH  19  24
ATOM     24  O   UNL     1       4.343   7.853  17.579  0.00  0.00    +0.000 OA
ATOM     25  H   UNL     1       5.129   8.128  18.090  0.00  0.00    +0.000 HD
ENDBRANCH  19  24
BRANCH  16  26
ATOM     26  C   UNL     1       1.322   3.325  19.284  0.00  0.00    +0.000 C 
BRANCH  26  27
ATOM     27  O   UNL     1       0.648   3.754  20.463  0.00  0.00    +0.000 OA
ATOM     28  H   UNL     1       0.499   4.721  20.384  0.00  0.00    +0.000 HD
ENDBRANCH  26  27
ENDBRANCH  16  26
ENDBRANCH   3  14
BRANCH   1  30
ATOM     29  C   UNL     1      -0.392   9.386  23.278  0.00  0.00    +0.000 C 
ATOM     30  C   UNL     1       0.992   9.281  22.691  0.00  0.00    +0.000 C 
ATOM     31  O   UNL     1       2.000   9.260  23.401  0.00  0.00    +0.000 OA
ENDBRANCH   1  30
BRANCH   2  32
ATOM     32  O   UNL     1       1.509   6.923  21.143  0.00  0.00    +0.000 OA
ATOM     33  H   UNL     1       0.574   6.643  21.296  0.00  0.00    +0.000 HD
ENDBRANCH   2  32
BRANCH   4  34
ATOM     34  O   UNL     1       1.839   9.495  17.089  0.00  0.00    +0.000 OA
ATOM     35  H   UNL     1       2.011  10.443  16.900  0.00  0.00    +0.000 HD
ENDBRANCH   4  34
BRANCH  12  36
ATOM     36  O   UNL     1      -0.499  15.350  18.326  0.00  0.00    +0.000 OA
ATOM     37  H   UNL     1      -1.431  15.183  18.083  0.00  0.00    +0.000 HD
ENDBRANCH  12  36
BRANCH  13  38
ATOM     38  O   UNL     1      -1.427  13.129  20.831  0.00  0.00    +0.000 OA
ATOM     39  H   UNL     1      -2.226  13.669  20.693  0.00  0.00    +0.000 HD
ENDBRANCH  13  38
BRANCH  11  40
ATOM     40  C   UNL     1       1.452  15.782  21.277  0.00  0.00    +0.000 C 
BRANCH  40  41
ATOM     41  O   UNL     1       1.765  14.901  22.356  0.00  0.00    +0.000 OA
ATOM     42  H   UNL     1       1.469  14.012  22.077  0.00  0.00    +0.000 HD
ENDBRANCH  40  41
ENDBRANCH  11  40
TORSDOF 13
ENDMDL
MODEL 8
REMARK VINA RESULT:      -6.1      7.804      9.817
REMARK  Name = 
REMARK  14 active torsions:
REMARK  status: ('A' for Active; 'I' for Inactive)
REMARK    1  A    between atoms: C_1  and  C_2
REMARK    2  A    between atoms: C_2  and  C_4
REMARK    3  A    between atoms: C_5  and  O_6
REMARK    4  A    between atoms: C_7  and  C_8
REMARK    5  A    between atoms: C_10  and  C_11
REMARK    6  A    between atoms: C_11  and  O_12
REMARK    7  A    between atoms: C_13  and  O_14
REMARK    8  A    between atoms: C_15  and  O_16
REMARK    9  A    between atoms: C_17  and  O_18
REMARK   10  A    between atoms: C_19  and  O_20
REMARK   11  A    between atoms: C_27  and  C_28
REMARK   12  A    between atoms: C_28  and  O_29
REMARK   13  A    between atoms: C_30  and  O_31
REMARK   14  A    between atoms: C_32  and  O_33
REMARK                            x       y       z     vdW  Elec       q    Type
REMARK                         _______ _______ _______ _____ _____    ______ ____
ROOT
ATOM      1  C   UNL     1       6.468  14.475  21.556  0.00  0.00    +0.000 A 
ATOM      2  C   UNL     1       6.204  13.875  22.808  0.00  0.00    +0.000 A 
ATOM      3  C   UNL     1       7.129  13.009  23.445  0.00  0.00    +0.000 A 
ATOM      4  C   UNL     1       8.307  12.691  22.754  0.00  0.00    +0.000 A 
ATOM      5  C   UNL     1       8.560  13.270  21.520  0.00  0.00    +0.000 A 
ATOM      6  C   UNL     1       7.658  14.135  20.927  0.00  0.00    +0.000 A 
ATOM      7  O   UNL     1       8.053  14.560  19.692  0.00  0.00    +0.000 OA
ATOM      8  C   UNL     1       9.348  13.955  19.444  0.00  0.00    +0.000 C 
ATOM      9  C   UNL     1       9.771  13.129  20.673  0.00  0.00    +0.000 C 
ATOM     10  O   UNL     1      10.293  15.017  19.249  0.00  0.00    +0.000 OA
ATOM     11  C   UNL     1      11.051  14.787  18.049  0.00  0.00    +0.000 C 
ATOM     12  C   UNL     1      10.490  13.564  17.331  0.00  0.00    +0.000 C 
ATOM     13  C   UNL     1       9.285  13.117  18.146  0.00  0.00    +0.000 C 
ENDROOT
BRANCH   3  14
ATOM     14  C   UNL     1       6.832  12.531  24.860  0.00  0.00    +0.000 C 
ATOM     15  O   UNL     1       5.606  11.765  24.892  0.00  0.00    +0.000 OA
ATOM     16  C   UNL     1       5.484  11.015  26.116  0.00  0.00    +0.000 C 
ATOM     17  C   UNL     1       5.444  11.961  27.332  0.00  0.00    +0.000 C 
ATOM     18  C   UNL     1       6.630  12.943  27.301  0.00  0.00    +0.000 C 
ATOM     19  C   UNL     1       6.727  13.644  25.927  0.00  0.00    +0.000 C 
BRANCH  17  20
ATOM     20  O   UNL     1       5.427  11.199  28.545  0.00  0.00    +0.000 OA
ATOM     21  H   UNL     1       5.615  11.802  29.289  0.00  0.00    +0.000 HD
ENDBRANCH  17  20
BRANCH  18  22
ATOM     22  O   UNL     1       6.511  13.876  28.380  0.00  0.00    +0.000 OA
ATOM     23  H   UNL     1       7.402  14.161  28.644  0.00  0.00    +0.000 HD
ENDBRANCH  18  22
BRANCH  19  24
ATOM     24  O   UNL     1       7.824  14.555  25.941  0.00  0.00    +0.000 OA
ATOM     25  H   UNL     1       7.541  15.385  25.511  0.00  0.00    +0.000 HD
ENDBRANCH  19  24
BRANCH  16  26
ATOM     26  C   UNL     1       4.228  10.129  26.050  0.00  0.00    +0.000 C 
BRANCH  26  27
ATOM     27  O   UNL     1       4.037   9.530  24.772  0.00  0.00    +0.000 OA
ATOM     28  H   UNL     1       3.934  10.255  24.118  0.00  0.00    +0.000 HD
ENDBRANCH  26  27
ENDBRANCH  16  26
ENDBRANCH   3  14
BRANCH   1  30
ATOM     29  C   UNL     1       4.713  15.098  19.752  0.00  0.00    +0.000 C 
ATOM     30  C   UNL     1       5.508  15.453  20.983  0.00  0.00    +0.000 C 
ATOM     31  O   UNL     1       5.467  16.581  21.481  0.00  0.00    +0.000 OA
ENDBRANCH   1  30
BRANCH   2  32
ATOM     32  O   UNL     1       5.017  14.115  23.471  0.00  0.00    +0.000 OA
ATOM     33  H   UNL     1       5.213  14.727  24.222  0.00  0.00    +0.000 HD
ENDBRANCH   2  32
BRANCH   4  34
ATOM     34  O   UNL     1       9.241  11.821  23.223  0.00  0.00    +0.000 OA
ATOM     35  H   UNL     1      10.054  11.940  22.686  0.00  0.00    +0.000 HD
ENDBRANCH   4  34
BRANCH  12  36
ATOM     36  O   UNL     1      11.468  12.528  17.239  0.00  0.00    +0.000 OA
ATOM     37  H   UNL     1      11.028  11.663  17.117  0.00  0.00    +0.000 HD
ENDBRANCH  12  36
BRANCH  13  38
ATOM     38  O   UNL     1       8.098  13.358  17.375  0.00  0.00    +0.000 OA
ATOM     39  H   UNL     1       8.266  14.126  16.798  0.00  0.00    +0.000 HD
ENDBRANCH  13  38
BRANCH  11  40
ATOM     40  C   UNL     1      10.965  16.055  17.197  0.00  0.00    +0.000 C 
BRANCH  40  41
ATOM     41  O   UNL     1      10.775  15.706  15.826  0.00  0.00    +0.000 OA
ATOM     42  H   UNL     1      10.883  14.736  15.774  0.00  0.00    +0.000 HD
ENDBRANCH  40  41
ENDBRANCH  11  40
TORSDOF 13
ENDMDL
MODEL 9
REMARK VINA RESULT:      -6.0      2.054      8.202
REMARK  Name = 
REMARK  14 active torsions:
REMARK  status: ('A' for Active; 'I' for Inactive)
REMARK    1  A    between atoms: C_1  and  C_2
REMARK    2  A    between atoms: C_2  and  C_4
REMARK    3  A    between atoms: C_5  and  O_6
REMARK    4  A    between atoms: C_7  and  C_8
REMARK    5  A    between atoms: C_10  and  C_11
REMARK    6  A    between atoms: C_11  and  O_12
REMARK    7  A    between atoms: C_13  and  O_14
REMARK    8  A    between atoms: C_15  and  O_16
REMARK    9  A    between atoms: C_17  and  O_18
REMARK   10  A    between atoms: C_19  and  O_20
REMARK   11  A    between atoms: C_27  and  C_28
REMARK   12  A    between atoms: C_28  and  O_29
REMARK   13  A    between atoms: C_30  and  O_31
REMARK   14  A    between atoms: C_32  and  O_33
REMARK                            x       y       z     vdW  Elec       q    Type
REMARK                         _______ _______ _______ _____ _____    ______ ____
ROOT
ATOM      1  C   UNL     1       1.363   8.741  20.875  0.00  0.00    +0.000 A 
ATOM      2  C   UNL     1       1.920   7.555  20.344  0.00  0.00    +0.000 A 
ATOM      3  C   UNL     1       2.412   7.476  19.017  0.00  0.00    +0.000 A 
ATOM      4  C   UNL     1       2.261   8.604  18.197  0.00  0.00    +0.000 A 
ATOM      5  C   UNL     1       1.704   9.762  18.715  0.00  0.00    +0.000 A 
ATOM      6  C   UNL     1       1.255   9.830  20.021  0.00  0.00    +0.000 A 
ATOM      7  O   UNL     1       0.687  11.031  20.334  0.00  0.00    +0.000 OA
ATOM      8  C   UNL     1       0.792  11.856  19.145  0.00  0.00    +0.000 C 
ATOM      9  C   UNL     1       1.532  11.075  18.043  0.00  0.00    +0.000 C 
ATOM     10  O   UNL     1       1.562  13.017  19.489  0.00  0.00    +0.000 OA
ATOM     11  C   UNL     1       0.878  14.207  19.061  0.00  0.00    +0.000 C 
ATOM     12  C   UNL     1      -0.493  13.824  18.514  0.00  0.00    +0.000 C 
ATOM     13  C   UNL     1      -0.618  12.320  18.714  0.00  0.00    +0.000 C 
ENDROOT
BRANCH   3  14
ATOM     14  C   UNL     1       3.135   6.210  18.577  0.00  0.00    +0.000 C 
ATOM     15  O   UNL     1       4.171   6.522  17.617  0.00  0.00    +0.000 OA
ATOM     16  C   UNL     1       5.086   5.422  17.454  0.00  0.00    +0.000 C 
ATOM     17  C   UNL     1       4.352   4.177  16.920  0.00  0.00    +0.000 C 
ATOM     18  C   UNL     1       3.119   3.857  17.783  0.00  0.00    +0.000 C 
ATOM     19  C   UNL     1       2.235   5.111  17.967  0.00  0.00    +0.000 C 
BRANCH  17  20
ATOM     20  O   UNL     1       5.253   3.064  16.860  0.00  0.00    +0.000 OA
ATOM     21  H   UNL     1       4.751   2.278  16.573  0.00  0.00    +0.000 HD
ENDBRANCH  17  20
BRANCH  18  22
ATOM     22  O   UNL     1       2.397   2.763  17.206  0.00  0.00    +0.000 OA
ATOM     23  H   UNL     1       2.124   2.160  17.918  0.00  0.00    +0.000 HD
ENDBRANCH  18  22
BRANCH  19  24
ATOM     24  O   UNL     1       1.097   4.773  18.756  0.00  0.00    +0.000 OA
ATOM     25  H   UNL     1       0.973   3.804  18.720  0.00  0.00    +0.000 HD
ENDBRANCH  19  24
BRANCH  16  26
ATOM     26  C   UNL     1       6.232   5.845  16.518  0.00  0.00    +0.000 C 
BRANCH  26  27
ATOM     27  O   UNL     1       7.414   5.072  16.702  0.00  0.00    +0.000 OA
ATOM     28  H   UNL     1       7.199   4.142  16.472  0.00  0.00    +0.000 HD
ENDBRANCH  26  27
ENDBRANCH  16  26
ENDBRANCH   3  14
BRANCH   1  30
ATOM     29  C   UNL     1      -0.503   8.726  22.675  0.00  0.00    +0.000 C 
ATOM     30  C   UNL     1       0.956   8.797  22.303  0.00  0.00    +0.000 C 
ATOM     31  O   UNL     1       1.832   9.007  23.145  0.00  0.00    +0.000 OA
ENDBRANCH   1  30
BRANCH   2  32
ATOM     32  O   UNL     1       2.008   6.411  21.111  0.00  0.00    +0.000 OA
ATOM     33  H   UNL     1       1.921   5.636  20.504  0.00  0.00    +0.000 HD
ENDBRANCH   2  32
BRANCH   4  34
ATOM     34  O   UNL     1       2.628   8.634  16.888  0.00  0.00    +0.000 OA
ATOM     35  H   UNL     1       3.225   7.871  16.729  0.00  0.00    +0.000 HD
ENDBRANCH   4  34
BRANCH  12  36
ATOM     36  O   UNL     1      -0.613  14.175  17.135  0.00  0.00    +0.000 OA
ATOM     37  H   UNL     1      -0.220  15.057  16.980  0.00  0.00    +0.000 HD
ENDBRANCH  12  36
BRANCH  13  38
ATOM     38  O   UNL     1      -1.623  12.075  19.710  0.00  0.00    +0.000 OA
ATOM     39  H   UNL     1      -2.492  12.097  19.270  0.00  0.00    +0.000 HD
ENDBRANCH  13  38
BRANCH  11  40
ATOM     40  C   UNL     1       0.783  15.144  20.266  0.00  0.00    +0.000 C 
BRANCH  40  41
ATOM     41  O   UNL     1      -0.219  14.676  21.169  0.00  0.00    +0.000 OA
ATOM     42  H   UNL     1       0.130  13.850  21.558  0.00  0.00    +0.000 HD
ENDBRANCH  40  41
ENDBRANCH  11  40
TORSDOF 13
ENDMDL
