MODEL 1
REMARK VINA RESULT:      -7.3      0.000      0.000
REMARK  Name = 
REMARK  5 active torsions:
REMARK  status: ('A' for Active; 'I' for Inactive)
REMARK    1  A    between atoms: C_2  and  C_13
REMARK    2  A    between atoms: N_3  and  C_4
REMARK    3  A    between atoms: C_7  and  N_8
REMARK    4  A    between atoms: CA_17  and  C_18
REMARK    5  A    between atoms: C_18  and  OXT_20
REMARK                            x       y       z     vdW  Elec       q    Type
REMARK                         _______ _______ _______ _____ _____    ______ ____
ROOT
ATOM      1  O   UNL     1       4.082   5.959  18.439  0.00  0.00    +0.000 OA
ATOM      2  C   UNL     1       4.067   4.742  18.587  0.00  0.00    +0.000 C 
ATOM      3  N   UNL     1       4.671   3.816  17.758  0.00  0.00    +0.000 N 
ATOM      4  H   UNL     1       4.432   2.846  17.948  0.00  0.00    +0.000 HD
ENDROOT
BRANCH   3   5
ATOM      5  C   UNL     1       5.472   4.124  16.639  0.00  0.00    +0.000 A 
ATOM      6  C   UNL     1       6.769   4.636  16.764  0.00  0.00    +0.000 A 
ATOM      7  C   UNL     1       7.526   4.972  15.640  0.00  0.00    +0.000 A 
ATOM      8  C   UNL     1       6.983   4.786  14.368  0.00  0.00    +0.000 A 
ATOM      9  C   UNL     1       5.696   4.247  14.221  0.00  0.00    +0.000 A 
ATOM     10  C   UNL     1       4.950   3.905  15.359  0.00  0.00    +0.000 A 
BRANCH   8  11
ATOM     11  N   UNL     1       7.771   5.156  13.187  0.00  0.00    +0.000 N 
ATOM     12  O   UNL     1       8.717   5.942  13.348  0.00  0.00    +0.000 OA
ATOM     13  O   UNL     1       7.442   4.665  12.099  0.00  0.00    +0.000 OA
ENDBRANCH   8  11
ENDBRANCH   3   5
BRANCH   2  14
ATOM     14  C   UNL     1       3.321   4.152  19.696  0.00  0.00    +0.000 A 
ATOM     15  N   UNL     1       2.212   4.782  20.252  0.00  0.00    +0.000 NA
ATOM     16  C   UNL     1       1.791   3.972  21.194  0.00  0.00    +0.000 A 
ATOM     17  N   UNL     1       2.576   2.863  21.285  0.00  0.00    +0.000 N 
ATOM     18  CA  UNL     1       3.573   2.943  20.333  0.00  0.00    +0.000 A 
ATOM     19  H   UNL     1       2.469   2.094  21.935  0.00  0.00    +0.000 HD
BRANCH  18  20
ATOM     20  C   UNL     1       4.543   1.880  20.228  0.00  0.00    +0.000 C 
ATOM     21  O   UNL     1       5.315   1.608  21.137  0.00  0.00    +0.000 OA
BRANCH  20  22
ATOM     22  OXT UNL     1       4.562   1.198  19.066  0.00  0.00    +0.000 OA
ATOM     23  HXT UNL     1       4.901   1.678  18.276  0.00  0.00    +0.000 HD
ENDBRANCH  20  22
ENDBRANCH  18  20
ENDBRANCH   2  14
TORSDOF 5
ENDMDL
MODEL 2
REMARK VINA RESULT:      -7.3      1.501      1.752
REMARK  Name = 
REMARK  5 active torsions:
REMARK  status: ('A' for Active; 'I' for Inactive)
REMARK    1  A    between atoms: C_2  and  C_13
REMARK    2  A    between atoms: N_3  and  C_4
REMARK    3  A    between atoms: C_7  and  N_8
REMARK    4  A    between atoms: CA_17  and  C_18
REMARK    5  A    between atoms: C_18  and  OXT_20
REMARK                            x       y       z     vdW  Elec       q    Type
REMARK                         _______ _______ _______ _____ _____    ______ ____
ROOT
ATOM      1  O   UNL     1       3.177   5.931  17.661  0.00  0.00    +0.000 OA
ATOM      2  C   UNL     1       3.500   4.860  18.165  0.00  0.00    +0.000 C 
ATOM      3  N   UNL     1       4.478   4.004  17.695  0.00  0.00    +0.000 N 
ATOM      4  H   UNL     1       4.510   3.095  18.150  0.00  0.00    +0.000 HD
ENDROOT
BRANCH   3   5
ATOM      5  C   UNL     1       5.322   4.256  16.595  0.00  0.00    +0.000 A 
ATOM      6  C   UNL     1       6.623   4.754  16.745  0.00  0.00    +0.000 A 
ATOM      7  C   UNL     1       7.423   5.035  15.636  0.00  0.00    +0.000 A 
ATOM      8  C   UNL     1       6.921   4.808  14.355  0.00  0.00    +0.000 A 
ATOM      9  C   UNL     1       5.631   4.284  14.183  0.00  0.00    +0.000 A 
ATOM     10  C   UNL     1       4.840   3.997  15.306  0.00  0.00    +0.000 A 
BRANCH   8  11
ATOM     11  N   UNL     1       7.755   5.121  13.189  0.00  0.00    +0.000 N 
ATOM     12  O   UNL     1       8.690   5.920  13.346  0.00  0.00    +0.000 OA
ATOM     13  O   UNL     1       7.474   4.570  12.116  0.00  0.00    +0.000 OA
ENDBRANCH   8  11
ENDBRANCH   3   5
BRANCH   2  14
ATOM     14  C   UNL     1       2.793   4.367  19.345  0.00  0.00    +0.000 A 
ATOM     15  N   UNL     1       2.915   4.985  20.585  0.00  0.00    +0.000 NA
ATOM     16  C   UNL     1       2.141   4.298  21.391  0.00  0.00    +0.000 A 
ATOM     17  N   UNL     1       1.540   3.263  20.741  0.00  0.00    +0.000 N 
ATOM     18  CA  UNL     1       1.936   3.276  19.418  0.00  0.00    +0.000 A 
ATOM     19  H   UNL     1       0.906   2.581  21.139  0.00  0.00    +0.000 HD
BRANCH  18  20
ATOM     20  C   UNL     1       1.433   2.269  18.516  0.00  0.00    +0.000 C 
ATOM     21  O   UNL     1       0.243   1.996  18.439  0.00  0.00    +0.000 OA
BRANCH  20  22
ATOM     22  OXT UNL     1       2.347   1.632  17.759  0.00  0.00    +0.000 OA
ATOM     23  HXT UNL     1       3.209   1.423  18.186  0.00  0.00    +0.000 HD
ENDBRANCH  20  22
ENDBRANCH  18  20
ENDBRANCH   2  14
TORSDOF 5
ENDMDL
MODEL 3
REMARK VINA RESULT:      -7.2      4.290      4.990
REMARK  Name = 
REMARK  5 active torsions:
REMARK  status: ('A' for Active; 'I' for Inactive)
REMARK    1  A    between atoms: C_2  and  C_13
REMARK    2  A    between atoms: N_3  and  C_4
REMARK    3  A    between atoms: C_7  and  N_8
REMARK    4  A    between atoms: CA_17  and  C_18
REMARK    5  A    between atoms: C_18  and  OXT_20
REMARK                            x       y       z     vdW  Elec       q    Type
REMARK                         _______ _______ _______ _____ _____    ______ ____
ROOT
ATOM      1  O   UNL     1       5.533   7.014  16.149  0.00  0.00    +0.000 OA
ATOM      2  C   UNL     1       6.702   6.695  16.341  0.00  0.00    +0.000 C 
ATOM      3  N   UNL     1       7.382   5.679  15.695  0.00  0.00    +0.000 N 
ATOM      4  H   UNL     1       8.295   5.458  16.084  0.00  0.00    +0.000 HD
ENDROOT
BRANCH   3   5
ATOM      5  C   UNL     1       6.864   4.887  14.650  0.00  0.00    +0.000 A 
ATOM      6  C   UNL     1       7.446   4.851  13.377  0.00  0.00    +0.000 A 
ATOM      7  C   UNL     1       6.889   4.091  12.348  0.00  0.00    +0.000 A 
ATOM      8  C   UNL     1       5.736   3.345  12.595  0.00  0.00    +0.000 A 
ATOM      9  C   UNL     1       5.154   3.345  13.871  0.00  0.00    +0.000 A 
ATOM     10  C   UNL     1       5.729   4.107  14.899  0.00  0.00    +0.000 A 
BRANCH   8  11
ATOM     11  N   UNL     1       5.139   2.560  11.508  0.00  0.00    +0.000 N 
ATOM     12  O   UNL     1       5.713   1.514  11.169  0.00  0.00    +0.000 OA
ATOM     13  O   UNL     1       4.100   2.991  10.990  0.00  0.00    +0.000 OA
ENDBRANCH   8  11
ENDBRANCH   3   5
BRANCH   2  14
ATOM     14  C   UNL     1       7.487   7.381  17.364  0.00  0.00    +0.000 A 
ATOM     15  N   UNL     1       7.816   8.728  17.256  0.00  0.00    +0.000 NA
ATOM     16  C   UNL     1       8.496   9.006  18.343  0.00  0.00    +0.000 A 
ATOM     17  N   UNL     1       8.635   7.908  19.137  0.00  0.00    +0.000 N 
ATOM     18  CA  UNL     1       7.996   6.840  18.539  0.00  0.00    +0.000 A 
ATOM     19  H   UNL     1       9.123   7.857  20.023  0.00  0.00    +0.000 HD
BRANCH  18  20
ATOM     20  C   UNL     1       8.003   5.553  19.189  0.00  0.00    +0.000 C 
ATOM     21  O   UNL     1       7.943   4.504  18.561  0.00  0.00    +0.000 OA
BRANCH  20  22
ATOM     22  OXT UNL     1       8.072   5.561  20.534  0.00  0.00    +0.000 OA
ATOM     23  HXT UNL     1       8.188   4.689  20.977  0.00  0.00    +0.000 HD
ENDBRANCH  20  22
ENDBRANCH  18  20
ENDBRANCH   2  14
TORSDOF 5
ENDMDL
MODEL 4
REMARK VINA RESULT:      -7.2      0.409      1.347
REMARK  Name = 
REMARK  5 active torsions:
REMARK  status: ('A' for Active; 'I' for Inactive)
REMARK    1  A    between atoms: C_2  and  C_13
REMARK    2  A    between atoms: N_3  and  C_4
REMARK    3  A    between atoms: C_7  and  N_8
REMARK    4  A    between atoms: CA_17  and  C_18
REMARK    5  A    between atoms: C_18  and  OXT_20
REMARK                            x       y       z     vdW  Elec       q    Type
REMARK                         _______ _______ _______ _____ _____    ______ ____
ROOT
ATOM      1  O   UNL     1       2.971   5.513  17.811  0.00  0.00    +0.000 OA
ATOM      2  C   UNL     1       3.482   4.525  18.327  0.00  0.00    +0.000 C 
ATOM      3  N   UNL     1       4.569   3.825  17.840  0.00  0.00    +0.000 N 
ATOM      4  H   UNL     1       4.765   2.948  18.314  0.00  0.00    +0.000 HD
ENDROOT
BRANCH   3   5
ATOM      5  C   UNL     1       5.321   4.177  16.700  0.00  0.00    +0.000 A 
ATOM      6  C   UNL     1       4.875   3.919  15.398  0.00  0.00    +0.000 A 
ATOM      7  C   UNL     1       5.659   4.239  14.288  0.00  0.00    +0.000 A 
ATOM      8  C   UNL     1       6.905   4.836  14.479  0.00  0.00    +0.000 A 
ATOM      9  C   UNL     1       7.358   5.129  15.774  0.00  0.00    +0.000 A 
ATOM     10  C   UNL     1       6.556   4.810  16.881  0.00  0.00    +0.000 A 
BRANCH   8  11
ATOM     11  N   UNL     1       7.737   5.156  13.313  0.00  0.00    +0.000 N 
ATOM     12  O   UNL     1       7.428   4.645  12.226  0.00  0.00    +0.000 OA
ATOM     13  O   UNL     1       8.700   5.916  13.484  0.00  0.00    +0.000 OA
ENDBRANCH   8  11
ENDBRANCH   3   5
BRANCH   2  14
ATOM     14  C   UNL     1       2.907   3.961  19.546  0.00  0.00    +0.000 A 
ATOM     15  N   UNL     1       1.780   4.510  20.149  0.00  0.00    +0.000 NA
ATOM     16  C   UNL     1       1.539   3.749  21.190  0.00  0.00    +0.000 A 
ATOM     17  N   UNL     1       2.459   2.750  21.299  0.00  0.00    +0.000 N 
ATOM     18  CA  UNL     1       3.357   2.853  20.255  0.00  0.00    +0.000 A 
ATOM     19  H   UNL     1       2.500   2.038  22.018  0.00  0.00    +0.000 HD
BRANCH  18  20
ATOM     20  C   UNL     1       4.436   1.903  20.149  0.00  0.00    +0.000 C 
ATOM     21  O   UNL     1       5.266   1.755  21.037  0.00  0.00    +0.000 OA
BRANCH  20  22
ATOM     22  OXT UNL     1       4.492   1.183  19.012  0.00  0.00    +0.000 OA
ATOM     23  HXT UNL     1       4.086   0.286  19.035  0.00  0.00    +0.000 HD
ENDBRANCH  20  22
ENDBRANCH  18  20
ENDBRANCH   2  14
TORSDOF 5
ENDMDL
MODEL 5
REMARK VINA RESULT:      -7.1      1.412      2.607
REMARK  Name = 
REMARK  5 active torsions:
REMARK  status: ('A' for Active; 'I' for Inactive)
REMARK    1  A    between atoms: C_2  and  C_13
REMARK    2  A    between atoms: N_3  and  C_4
REMARK    3  A    between atoms: C_7  and  N_8
REMARK    4  A    between atoms: CA_17  and  C_18
REMARK    5  A    between atoms: C_18  and  OXT_20
REMARK                            x       y       z     vdW  Elec       q    Type
REMARK                         _______ _______ _______ _____ _____    ______ ____
ROOT
ATOM      1  O   UNL     1       5.760   3.817  19.385  0.00  0.00    +0.000 OA
ATOM      2  C   UNL     1       4.618   4.019  18.985  0.00  0.00    +0.000 C 
ATOM      3  N   UNL     1       4.265   4.430  17.714  0.00  0.00    +0.000 N 
ATOM      4  H   UNL     1       3.288   4.691  17.602  0.00  0.00    +0.000 HD
ENDROOT
BRANCH   3   5
ATOM      5  C   UNL     1       5.157   4.613  16.639  0.00  0.00    +0.000 A 
ATOM      6  C   UNL     1       5.999   5.728  16.543  0.00  0.00    +0.000 A 
ATOM      7  C   UNL     1       6.843   5.907  15.446  0.00  0.00    +0.000 A 
ATOM      8  C   UNL     1       6.855   4.952  14.429  0.00  0.00    +0.000 A 
ATOM      9  C   UNL     1       6.041   3.813  14.519  0.00  0.00    +0.000 A 
ATOM     10  C   UNL     1       5.203   3.642  15.632  0.00  0.00    +0.000 A 
BRANCH   8  11
ATOM     11  N   UNL     1       7.729   5.148  13.267  0.00  0.00    +0.000 N 
ATOM     12  O   UNL     1       8.692   5.919  13.393  0.00  0.00    +0.000 OA
ATOM     13  O   UNL     1       7.451   4.535  12.228  0.00  0.00    +0.000 OA
ENDBRANCH   8  11
ENDBRANCH   3   5
BRANCH   2  14
ATOM     14  C   UNL     1       3.489   3.876  19.902  0.00  0.00    +0.000 A 
ATOM     15  N   UNL     1       3.220   2.676  20.552  0.00  0.00    +0.000 NA
ATOM     16  C   UNL     1       2.165   2.914  21.295  0.00  0.00    +0.000 A 
ATOM     17  N   UNL     1       1.732   4.197  21.146  0.00  0.00    +0.000 N 
ATOM     18  CA  UNL     1       2.563   4.849  20.255  0.00  0.00    +0.000 A 
ATOM     19  H   UNL     1       0.935   4.626  21.600  0.00  0.00    +0.000 HD
BRANCH  18  20
ATOM     20  C   UNL     1       2.309   6.230  19.927  0.00  0.00    +0.000 C 
ATOM     21  O   UNL     1       2.470   6.674  18.798  0.00  0.00    +0.000 OA
BRANCH  20  22
ATOM     22  OXT UNL     1       1.889   7.019  20.935  0.00  0.00    +0.000 OA
ATOM     23  HXT UNL     1       0.982   7.391  20.858  0.00  0.00    +0.000 HD
ENDBRANCH  20  22
ENDBRANCH  18  20
ENDBRANCH   2  14
TORSDOF 5
ENDMDL
MODEL 6
REMARK VINA RESULT:      -7.0      4.119      6.728
REMARK  Name = 
REMARK  5 active torsions:
REMARK  status: ('A' for Active; 'I' for Inactive)
REMARK    1  A    between atoms: C_2  and  C_13
REMARK    2  A    between atoms: N_3  and  C_4
REMARK    3  A    between atoms: C_7  and  N_8
REMARK    4  A    between atoms: CA_17  and  C_18
REMARK    5  A    between atoms: C_18  and  OXT_20
REMARK                            x       y       z     vdW  Elec       q    Type
REMARK                         _______ _______ _______ _____ _____    ______ ____
ROOT
ATOM      1  O   UNL     1       1.761   5.014  18.106  0.00  0.00    +0.000 OA
ATOM      2  C   UNL     1       2.640   5.193  18.942  0.00  0.00    +0.000 C 
ATOM      3  N   UNL     1       2.934   6.389  19.569  0.00  0.00    +0.000 N 
ATOM      4  H   UNL     1       3.788   6.389  20.120  0.00  0.00    +0.000 HD
ENDROOT
BRANCH   3   5
ATOM      5  C   UNL     1       2.218   7.592  19.405  0.00  0.00    +0.000 A 
ATOM      6  C   UNL     1       2.193   8.292  18.192  0.00  0.00    +0.000 A 
ATOM      7  C   UNL     1       1.511   9.503  18.069  0.00  0.00    +0.000 A 
ATOM      8  C   UNL     1       0.833  10.023  19.172  0.00  0.00    +0.000 A 
ATOM      9  C   UNL     1       0.821   9.324  20.388  0.00  0.00    +0.000 A 
ATOM     10  C   UNL     1       1.504   8.102  20.496  0.00  0.00    +0.000 A 
BRANCH   8  11
ATOM     11  N   UNL     1       0.131  11.305  19.048  0.00  0.00    +0.000 N 
ATOM     12  O   UNL     1      -1.107  11.295  19.116  0.00  0.00    +0.000 OA
ATOM     13  O   UNL     1       0.817  12.322  18.878  0.00  0.00    +0.000 OA
ENDBRANCH   8  11
ENDBRANCH   3   5
BRANCH   2  14
ATOM     14  C   UNL     1       3.523   4.091  19.318  0.00  0.00    +0.000 A 
ATOM     15  N   UNL     1       3.052   2.972  19.998  0.00  0.00    +0.000 NA
ATOM     16  C   UNL     1       4.097   2.194  20.150  0.00  0.00    +0.000 A 
ATOM     17  N   UNL     1       5.217   2.757  19.619  0.00  0.00    +0.000 N 
ATOM     18  CA  UNL     1       4.886   3.982  19.072  0.00  0.00    +0.000 A 
ATOM     19  H   UNL     1       6.151   2.365  19.614  0.00  0.00    +0.000 HD
BRANCH  18  20
ATOM     20  C   UNL     1       5.910   4.781  18.445  0.00  0.00    +0.000 C 
ATOM     21  O   UNL     1       5.742   5.962  18.173  0.00  0.00    +0.000 OA
BRANCH  20  22
ATOM     22  OXT UNL     1       7.069   4.156  18.162  0.00  0.00    +0.000 OA
ATOM     23  HXT UNL     1       7.464   3.609  18.879  0.00  0.00    +0.000 HD
ENDBRANCH  20  22
ENDBRANCH  18  20
ENDBRANCH   2  14
TORSDOF 5
ENDMDL
MODEL 7
REMARK VINA RESULT:      -7.0      4.039      6.630
REMARK  Name = 
REMARK  5 active torsions:
REMARK  status: ('A' for Active; 'I' for Inactive)
REMARK    1  A    between atoms: C_2  and  C_13
REMARK    2  A    between atoms: N_3  and  C_4
REMARK    3  A    between atoms: C_7  and  N_8
REMARK    4  A    between atoms: CA_17  and  C_18
REMARK    5  A    between atoms: C_18  and  OXT_20
REMARK                            x       y       z     vdW  Elec       q    Type
REMARK                         _______ _______ _______ _____ _____    ______ ____
ROOT
ATOM      1  O   UNL     1       1.446   4.781  18.737  0.00  0.00    +0.000 OA
ATOM      2  C   UNL     1       2.516   5.032  19.282  0.00  0.00    +0.000 C 
ATOM      3  N   UNL     1       2.977   6.289  19.623  0.00  0.00    +0.000 N 
ATOM      4  H   UNL     1       3.946   6.324  19.930  0.00  0.00    +0.000 HD
ENDROOT
BRANCH   3   5
ATOM      5  C   UNL     1       2.259   7.492  19.467  0.00  0.00    +0.000 A 
ATOM      6  C   UNL     1       1.554   8.087  20.520  0.00  0.00    +0.000 A 
ATOM      7  C   UNL     1       0.815   9.255  20.329  0.00  0.00    +0.000 A 
ATOM      8  C   UNL     1       0.786   9.847  19.066  0.00  0.00    +0.000 A 
ATOM      9  C   UNL     1       1.508   9.283  18.004  0.00  0.00    +0.000 A 
ATOM     10  C   UNL     1       2.254   8.113  18.212  0.00  0.00    +0.000 A 
BRANCH   8  11
ATOM     11  N   UNL     1      -0.006  11.066  18.860  0.00  0.00    +0.000 N 
ATOM     12  O   UNL     1      -1.206  10.934  18.579  0.00  0.00    +0.000 OA
ATOM     13  O   UNL     1       0.573  12.154  18.976  0.00  0.00    +0.000 OA
ENDBRANCH   8  11
ENDBRANCH   3   5
BRANCH   2  14
ATOM     14  C   UNL     1       3.452   3.951  19.583  0.00  0.00    +0.000 A 
ATOM     15  N   UNL     1       3.102   2.884  20.404  0.00  0.00    +0.000 NA
ATOM     16  C   UNL     1       4.161   2.111  20.435  0.00  0.00    +0.000 A 
ATOM     17  N   UNL     1       5.178   2.629  19.692  0.00  0.00    +0.000 N 
ATOM     18  CA  UNL     1       4.757   3.816  19.125  0.00  0.00    +0.000 A 
ATOM     19  H   UNL     1       6.099   2.231  19.562  0.00  0.00    +0.000 HD
BRANCH  18  20
ATOM     20  C   UNL     1       5.662   4.564  18.288  0.00  0.00    +0.000 C 
ATOM     21  O   UNL     1       5.310   5.562  17.674  0.00  0.00    +0.000 OA
BRANCH  20  22
ATOM     22  OXT UNL     1       6.924   4.101  18.207  0.00  0.00    +0.000 OA
ATOM     23  HXT UNL     1       7.516   4.541  17.554  0.00  0.00    +0.000 HD
ENDBRANCH  20  22
ENDBRANCH  18  20
ENDBRANCH   2  14
TORSDOF 5
ENDMDL
MODEL 8
REMARK VINA RESULT:      -6.9      0.398      1.339
REMARK  Name = 
REMARK  5 active torsions:
REMARK  status: ('A' for Active; 'I' for Inactive)
REMARK    1  A    between atoms: C_2  and  C_13
REMARK    2  A    between atoms: N_3  and  C_4
REMARK    3  A    between atoms: C_7  and  N_8
REMARK    4  A    between atoms: CA_17  and  C_18
REMARK    5  A    between atoms: C_18  and  OXT_20
REMARK                            x       y       z     vdW  Elec       q    Type
REMARK                         _______ _______ _______ _____ _____    ______ ____
ROOT
ATOM      1  O   UNL     1       4.122   6.123  18.340  0.00  0.00    +0.000 OA
ATOM      2  C   UNL     1       4.117   4.904  18.477  0.00  0.00    +0.000 C 
ATOM      3  N   UNL     1       4.686   3.988  17.613  0.00  0.00    +0.000 N 
ATOM      4  H   UNL     1       4.457   3.016  17.804  0.00  0.00    +0.000 HD
ENDROOT
BRANCH   3   5
ATOM      5  C   UNL     1       5.436   4.309  16.463  0.00  0.00    +0.000 A 
ATOM      6  C   UNL     1       4.967   4.057  15.168  0.00  0.00    +0.000 A 
ATOM      7  C   UNL     1       5.748   4.345  14.047  0.00  0.00    +0.000 A 
ATOM      8  C   UNL     1       7.015   4.902  14.220  0.00  0.00    +0.000 A 
ATOM      9  C   UNL     1       7.492   5.188  15.508  0.00  0.00    +0.000 A 
ATOM     10  C   UNL     1       6.693   4.901  16.626  0.00  0.00    +0.000 A 
BRANCH   8  11
ATOM     11  N   UNL     1       7.843   5.188  13.043  0.00  0.00    +0.000 N 
ATOM     12  O   UNL     1       8.806   5.956  13.187  0.00  0.00    +0.000 OA
ATOM     13  O   UNL     1       7.529   4.647  11.974  0.00  0.00    +0.000 OA
ENDBRANCH   8  11
ENDBRANCH   3   5
BRANCH   2  14
ATOM     14  C   UNL     1       3.421   4.302  19.612  0.00  0.00    +0.000 A 
ATOM     15  N   UNL     1       2.575   5.042  20.431  0.00  0.00    +0.000 NA
ATOM     16  C   UNL     1       2.119   4.189  21.318  0.00  0.00    +0.000 A 
ATOM     17  N   UNL     1       2.638   2.945  21.124  0.00  0.00    +0.000 N 
ATOM     18  CA  UNL     1       3.482   2.978  20.030  0.00  0.00    +0.000 A 
ATOM     19  H   UNL     1       2.453   2.116  21.676  0.00  0.00    +0.000 HD
BRANCH  18  20
ATOM     20  C   UNL     1       4.160   1.774  19.619  0.00  0.00    +0.000 C 
ATOM     21  O   UNL     1       3.769   1.091  18.682  0.00  0.00    +0.000 OA
BRANCH  20  22
ATOM     22  OXT UNL     1       5.252   1.429  20.329  0.00  0.00    +0.000 OA
ATOM     23  HXT UNL     1       5.126   1.280  21.293  0.00  0.00    +0.000 HD
ENDBRANCH  20  22
ENDBRANCH  18  20
ENDBRANCH   2  14
TORSDOF 5
ENDMDL
MODEL 9
REMARK VINA RESULT:      -6.9      1.102      1.834
REMARK  Name = 
REMARK  5 active torsions:
REMARK  status: ('A' for Active; 'I' for Inactive)
REMARK    1  A    between atoms: C_2  and  C_13
REMARK    2  A    between atoms: N_3  and  C_4
REMARK    3  A    between atoms: C_7  and  N_8
REMARK    4  A    between atoms: CA_17  and  C_18
REMARK    5  A    between atoms: C_18  and  OXT_20
REMARK                            x       y       z     vdW  Elec       q    Type
REMARK                         _______ _______ _______ _____ _____    ______ ____
ROOT
ATOM      1  O   UNL     1       3.230   5.974  17.713  0.00  0.00    +0.000 OA
ATOM      2  C   UNL     1       3.621   4.914  18.192  0.00  0.00    +0.000 C 
ATOM      3  N   UNL     1       4.602   4.098  17.663  0.00  0.00    +0.000 N 
ATOM      4  H   UNL     1       4.692   3.188  18.109  0.00  0.00    +0.000 HD
ENDROOT
BRANCH   3   5
ATOM      5  C   UNL     1       5.373   4.386  16.519  0.00  0.00    +0.000 A 
ATOM      6  C   UNL     1       4.989   3.982  15.234  0.00  0.00    +0.000 A 
ATOM      7  C   UNL     1       5.793   4.243  14.123  0.00  0.00    +0.000 A 
ATOM      8  C   UNL     1       6.996   4.927  14.294  0.00  0.00    +0.000 A 
ATOM      9  C   UNL     1       7.385   5.366  15.568  0.00  0.00    +0.000 A 
ATOM     10  C   UNL     1       6.564   5.104  16.675  0.00  0.00    +0.000 A 
BRANCH   8  11
ATOM     11  N   UNL     1       7.850   5.186  13.128  0.00  0.00    +0.000 N 
ATOM     12  O   UNL     1       7.545   4.640  12.057  0.00  0.00    +0.000 OA
ATOM     13  O   UNL     1       8.826   5.932  13.284  0.00  0.00    +0.000 OA
ENDBRANCH   8  11
ENDBRANCH   3   5
BRANCH   2  14
ATOM     14  C   UNL     1       2.999   4.390  19.406  0.00  0.00    +0.000 A 
ATOM     15  N   UNL     1       2.818   5.180  20.537  0.00  0.00    +0.000 NA
ATOM     16  C   UNL     1       2.225   4.401  21.411  0.00  0.00    +0.000 A 
ATOM     17  N   UNL     1       2.029   3.150  20.909  0.00  0.00    +0.000 N 
ATOM     18  CA  UNL     1       2.515   3.105  19.617  0.00  0.00    +0.000 A 
ATOM     19  H   UNL     1       1.602   2.365  21.385  0.00  0.00    +0.000 HD
BRANCH  18  20
ATOM     20  C   UNL     1       2.425   1.877  18.866  0.00  0.00    +0.000 C 
ATOM     21  O   UNL     1       3.417   1.278  18.473  0.00  0.00    +0.000 OA
BRANCH  20  22
ATOM     22  OXT UNL     1       1.184   1.421  18.609  0.00  0.00    +0.000 OA
ATOM     23  HXT UNL     1       0.818   1.612  17.716  0.00  0.00    +0.000 HD
ENDBRANCH  20  22
ENDBRANCH  18  20
ENDBRANCH   2  14
TORSDOF 5
ENDMDL
