MODEL 1
REMARK VINA RESULT:      -7.6      0.000      0.000
REMARK  Name = 
REMARK  6 active torsions:
REMARK  status: ('A' for Active; 'I' for Inactive)
REMARK    1  A    between atoms: C_1  and  O_2
REMARK    2  A    between atoms: O_2  and  C_3
REMARK    3  A    between atoms: C_5  and  N_6
REMARK    4  A    between atoms: N_6  and  C_7
REMARK    5  A    between atoms: C_10  and  C_11
REMARK    6  A    between atoms: C_19  and  N_20
REMARK                            x       y       z     vdW  Elec       q    Type
REMARK                         _______ _______ _______ _____ _____    ______ ____
ROOT
ATOM      1  C   UNL     1       6.143   6.382  17.601  0.00  0.00    +0.000 A 
ATOM      2  C   UNL     1       4.824   6.829  17.690  0.00  0.00    +0.000 A 
ATOM      3  C   UNL     1       3.828   6.099  18.367  0.00  0.00    +0.000 A 
ATOM      4  C   UNL     1       4.241   4.899  18.970  0.00  0.00    +0.000 A 
ATOM      5  N   UNL     1       3.198   4.136  19.677  0.00  0.00    +0.000 N 
ATOM      6  O   UNL     1       2.585   4.722  20.581  0.00  0.00    +0.000 OA
ATOM      7  O   UNL     1       3.015   2.962  19.317  0.00  0.00    +0.000 OA
ATOM      8  N   UNL     1       5.520   4.421  18.904  0.00  0.00    +0.000 NA
ATOM      9  C   UNL     1       6.442   5.163  18.217  0.00  0.00    +0.000 A 
ENDROOT
BRANCH   9  10
ATOM     10  N   UNL     1       7.833   4.697  18.109  0.00  0.00    +0.000 N 
ATOM     11  O   UNL     1       8.557   4.831  19.107  0.00  0.00    +0.000 OA
ATOM     12  O   UNL     1       8.164   4.165  17.041  0.00  0.00    +0.000 OA
ENDBRANCH   9  10
BRANCH   1  14
ATOM     13  C   UNL     1       7.722   8.160  17.545  0.00  0.00    +0.000 C 
ATOM     14  O   UNL     1       7.106   7.046  16.895  0.00  0.00    +0.000 OA
ENDBRANCH   1  14
BRANCH   3  15
ATOM     15  N   UNL     1       2.491   6.563  18.329  0.00  0.00    +0.000 N 
ATOM     16  H   UNL     1       1.791   5.850  18.133  0.00  0.00    +0.000 HD
BRANCH  15  17
ATOM     17  C   UNL     1       1.980   7.785  18.813  0.00  0.00    +0.000 A 
ATOM     18  C   UNL     1       1.692   7.971  20.173  0.00  0.00    +0.000 A 
ATOM     19  C   UNL     1       1.073   9.136  20.633  0.00  0.00    +0.000 A 
ATOM     20  C   UNL     1       0.739  10.152  19.738  0.00  0.00    +0.000 A 
ATOM     21  C   UNL     1       0.051  11.397  20.218  0.00  0.00    +0.000 C 
ATOM     22  C   UNL     1       1.049   9.992  18.383  0.00  0.00    +0.000 A 
ATOM     23  C   UNL     1       1.664   8.818  17.925  0.00  0.00    +0.000 A 
ENDBRANCH  15  17
ENDBRANCH   3  15
TORSDOF 4
ENDMDL
MODEL 2
REMARK VINA RESULT:      -7.6      1.395      1.696
REMARK  Name = 
REMARK  6 active torsions:
REMARK  status: ('A' for Active; 'I' for Inactive)
REMARK    1  A    between atoms: C_1  and  O_2
REMARK    2  A    between atoms: O_2  and  C_3
REMARK    3  A    between atoms: C_5  and  N_6
REMARK    4  A    between atoms: N_6  and  C_7
REMARK    5  A    between atoms: C_10  and  C_11
REMARK    6  A    between atoms: C_19  and  N_20
REMARK                            x       y       z     vdW  Elec       q    Type
REMARK                         _______ _______ _______ _____ _____    ______ ____
ROOT
ATOM      1  C   UNL     1       5.792   6.525  17.019  0.00  0.00    +0.000 A 
ATOM      2  C   UNL     1       4.735   6.833  17.877  0.00  0.00    +0.000 A 
ATOM      3  C   UNL     1       3.712   5.910  18.170  0.00  0.00    +0.000 A 
ATOM      4  C   UNL     1       3.825   4.647  17.565  0.00  0.00    +0.000 A 
ATOM      5  N   UNL     1       2.754   3.683  17.871  0.00  0.00    +0.000 N 
ATOM      6  O   UNL     1       2.558   3.418  19.066  0.00  0.00    +0.000 OA
ATOM      7  O   UNL     1       2.133   3.205  16.909  0.00  0.00    +0.000 OA
ATOM      8  N   UNL     1       4.840   4.304  16.715  0.00  0.00    +0.000 NA
ATOM      9  C   UNL     1       5.796   5.247  16.452  0.00  0.00    +0.000 A 
ENDROOT
BRANCH   9  10
ATOM     10  N   UNL     1       6.910   4.936  15.543  0.00  0.00    +0.000 N 
ATOM     11  O   UNL     1       6.775   5.248  14.350  0.00  0.00    +0.000 OA
ATOM     12  O   UNL     1       7.917   4.424  16.048  0.00  0.00    +0.000 OA
ENDBRANCH   9  10
BRANCH   1  14
ATOM     13  C   UNL     1       7.732   7.734  17.674  0.00  0.00    +0.000 C 
ATOM     14  O   UNL     1       6.757   7.429  16.676  0.00  0.00    +0.000 OA
ENDBRANCH   1  14
BRANCH   3  15
ATOM     15  N   UNL     1       2.618   6.326  18.966  0.00  0.00    +0.000 N 
ATOM     16  H   UNL     1       2.342   5.674  19.697  0.00  0.00    +0.000 HD
BRANCH  15  17
ATOM     17  C   UNL     1       2.066   7.619  19.079  0.00  0.00    +0.000 A 
ATOM     18  C   UNL     1       1.619   8.120  20.311  0.00  0.00    +0.000 A 
ATOM     19  C   UNL     1       0.962   9.349  20.402  0.00  0.00    +0.000 A 
ATOM     20  C   UNL     1       0.748  10.115  19.256  0.00  0.00    +0.000 A 
ATOM     21  C   UNL     1       0.021  11.426  19.338  0.00  0.00    +0.000 C 
ATOM     22  C   UNL     1       1.216   9.641  18.026  0.00  0.00    +0.000 A 
ATOM     23  C   UNL     1       1.869   8.403  17.938  0.00  0.00    +0.000 A 
ENDBRANCH  15  17
ENDBRANCH   3  15
TORSDOF 4
ENDMDL
MODEL 3
REMARK VINA RESULT:      -7.6      0.910      1.117
REMARK  Name = 
REMARK  6 active torsions:
REMARK  status: ('A' for Active; 'I' for Inactive)
REMARK    1  A    between atoms: C_1  and  O_2
REMARK    2  A    between atoms: O_2  and  C_3
REMARK    3  A    between atoms: C_5  and  N_6
REMARK    4  A    between atoms: N_6  and  C_7
REMARK    5  A    between atoms: C_10  and  C_11
REMARK    6  A    between atoms: C_19  and  N_20
REMARK                            x       y       z     vdW  Elec       q    Type
REMARK                         _______ _______ _______ _____ _____    ______ ____
ROOT
ATOM      1  C   UNL     1       5.984   6.524  17.210  0.00  0.00    +0.000 A 
ATOM      2  C   UNL     1       4.714   7.063  17.422  0.00  0.00    +0.000 A 
ATOM      3  C   UNL     1       3.614   6.267  17.794  0.00  0.00    +0.000 A 
ATOM      4  C   UNL     1       3.869   4.896  17.961  0.00  0.00    +0.000 A 
ATOM      5  N   UNL     1       2.716   4.065  18.348  0.00  0.00    +0.000 N 
ATOM      6  O   UNL     1       2.116   4.379  19.387  0.00  0.00    +0.000 OA
ATOM      7  O   UNL     1       2.434   3.109  17.609  0.00  0.00    +0.000 OA
ATOM      8  N   UNL     1       5.094   4.325  17.759  0.00  0.00    +0.000 NA
ATOM      9  C   UNL     1       6.123   5.143  17.381  0.00  0.00    +0.000 A 
ENDROOT
BRANCH   9  10
ATOM     10  N   UNL     1       7.463   4.584  17.146  0.00  0.00    +0.000 N 
ATOM     11  O   UNL     1       7.817   4.429  15.967  0.00  0.00    +0.000 OA
ATOM     12  O   UNL     1       8.155   4.350  18.145  0.00  0.00    +0.000 OA
ENDBRANCH   9  10
BRANCH   1  14
ATOM     13  C   UNL     1       7.765   7.987  17.795  0.00  0.00    +0.000 C 
ATOM     14  O   UNL     1       7.048   7.271  16.788  0.00  0.00    +0.000 OA
ENDBRANCH   1  14
BRANCH   3  15
ATOM     15  N   UNL     1       2.335   6.866  17.892  0.00  0.00    +0.000 N 
ATOM     16  H   UNL     1       1.575   6.338  17.467  0.00  0.00    +0.000 HD
BRANCH  15  17
ATOM     17  C   UNL     1       1.930   7.920  18.738  0.00  0.00    +0.000 A 
ATOM     18  C   UNL     1       1.821   7.743  20.126  0.00  0.00    +0.000 A 
ATOM     19  C   UNL     1       1.305   8.746  20.948  0.00  0.00    +0.000 A 
ATOM     20  C   UNL     1       0.896   9.961  20.399  0.00  0.00    +0.000 A 
ATOM     21  C   UNL     1       0.316  11.038  21.271  0.00  0.00    +0.000 C 
ATOM     22  C   UNL     1       1.028  10.161  19.021  0.00  0.00    +0.000 A 
ATOM     23  C   UNL     1       1.540   9.148  18.198  0.00  0.00    +0.000 A 
ENDBRANCH  15  17
ENDBRANCH   3  15
TORSDOF 4
ENDMDL
MODEL 4
REMARK VINA RESULT:      -7.5      1.395      1.972
REMARK  Name = 
REMARK  6 active torsions:
REMARK  status: ('A' for Active; 'I' for Inactive)
REMARK    1  A    between atoms: C_1  and  O_2
REMARK    2  A    between atoms: O_2  and  C_3
REMARK    3  A    between atoms: C_5  and  N_6
REMARK    4  A    between atoms: N_6  and  C_7
REMARK    5  A    between atoms: C_10  and  C_11
REMARK    6  A    between atoms: C_19  and  N_20
REMARK                            x       y       z     vdW  Elec       q    Type
REMARK                         _______ _______ _______ _____ _____    ______ ____
ROOT
ATOM      1  C   UNL     1       5.807   6.545  17.044  0.00  0.00    +0.000 A 
ATOM      2  C   UNL     1       4.764   6.852  17.919  0.00  0.00    +0.000 A 
ATOM      3  C   UNL     1       3.740   5.934  18.219  0.00  0.00    +0.000 A 
ATOM      4  C   UNL     1       3.836   4.675  17.601  0.00  0.00    +0.000 A 
ATOM      5  N   UNL     1       2.763   3.716  17.915  0.00  0.00    +0.000 N 
ATOM      6  O   UNL     1       2.582   3.442  19.110  0.00  0.00    +0.000 OA
ATOM      7  O   UNL     1       2.125   3.249  16.957  0.00  0.00    +0.000 OA
ATOM      8  N   UNL     1       4.836   4.333  16.735  0.00  0.00    +0.000 NA
ATOM      9  C   UNL     1       5.795   5.272  16.466  0.00  0.00    +0.000 A 
ENDROOT
BRANCH   9  10
ATOM     10  N   UNL     1       6.894   4.962  15.539  0.00  0.00    +0.000 N 
ATOM     11  O   UNL     1       6.744   5.284  14.350  0.00  0.00    +0.000 OA
ATOM     12  O   UNL     1       7.905   4.440  16.025  0.00  0.00    +0.000 OA
ENDBRANCH   9  10
BRANCH   1  14
ATOM     13  C   UNL     1       7.738   7.770  17.696  0.00  0.00    +0.000 C 
ATOM     14  O   UNL     1       6.773   7.446  16.695  0.00  0.00    +0.000 OA
ENDBRANCH   1  14
BRANCH   3  15
ATOM     15  N   UNL     1       2.660   6.350  19.034  0.00  0.00    +0.000 N 
ATOM     16  H   UNL     1       2.462   5.748  19.830  0.00  0.00    +0.000 HD
BRANCH  15  17
ATOM     17  C   UNL     1       2.031   7.612  19.067  0.00  0.00    +0.000 A 
ATOM     18  C   UNL     1       1.911   8.400  17.912  0.00  0.00    +0.000 A 
ATOM     19  C   UNL     1       1.399   9.698  17.967  0.00  0.00    +0.000 A 
ATOM     20  C   UNL     1       0.982  10.236  19.185  0.00  0.00    +0.000 A 
ATOM     21  C   UNL     1       0.454  11.639  19.260  0.00  0.00    +0.000 C 
ATOM     22  C   UNL     1       1.068   9.449  20.338  0.00  0.00    +0.000 A 
ATOM     23  C   UNL     1       1.589   8.149  20.279  0.00  0.00    +0.000 A 
ENDBRANCH  15  17
ENDBRANCH   3  15
TORSDOF 4
ENDMDL
MODEL 5
REMARK VINA RESULT:      -7.4      0.196      1.043
REMARK  Name = 
REMARK  6 active torsions:
REMARK  status: ('A' for Active; 'I' for Inactive)
REMARK    1  A    between atoms: C_1  and  O_2
REMARK    2  A    between atoms: O_2  and  C_3
REMARK    3  A    between atoms: C_5  and  N_6
REMARK    4  A    between atoms: N_6  and  C_7
REMARK    5  A    between atoms: C_10  and  C_11
REMARK    6  A    between atoms: C_19  and  N_20
REMARK                            x       y       z     vdW  Elec       q    Type
REMARK                         _______ _______ _______ _____ _____    ______ ____
ROOT
ATOM      1  C   UNL     1       6.098   6.353  17.648  0.00  0.00    +0.000 A 
ATOM      2  C   UNL     1       4.767   6.767  17.719  0.00  0.00    +0.000 A 
ATOM      3  C   UNL     1       3.794   6.045  18.436  0.00  0.00    +0.000 A 
ATOM      4  C   UNL     1       4.243   4.890  19.099  0.00  0.00    +0.000 A 
ATOM      5  N   UNL     1       3.224   4.135  19.849  0.00  0.00    +0.000 N 
ATOM      6  O   UNL     1       2.596   4.749  20.724  0.00  0.00    +0.000 OA
ATOM      7  O   UNL     1       3.074   2.940  19.551  0.00  0.00    +0.000 OA
ATOM      8  N   UNL     1       5.535   4.446  19.054  0.00  0.00    +0.000 NA
ATOM      9  C   UNL     1       6.433   5.177  18.326  0.00  0.00    +0.000 A 
ENDROOT
BRANCH   9  10
ATOM     10  N   UNL     1       7.837   4.746  18.237  0.00  0.00    +0.000 N 
ATOM     11  O   UNL     1       8.558   4.947  19.227  0.00  0.00    +0.000 OA
ATOM     12  O   UNL     1       8.183   4.175  17.195  0.00  0.00    +0.000 OA
ENDBRANCH   9  10
BRANCH   1  14
ATOM     13  C   UNL     1       7.692   8.115  17.529  0.00  0.00    +0.000 C 
ATOM     14  O   UNL     1       7.041   7.007  16.905  0.00  0.00    +0.000 OA
ENDBRANCH   1  14
BRANCH   3  15
ATOM     15  N   UNL     1       2.444   6.467  18.379  0.00  0.00    +0.000 N 
ATOM     16  H   UNL     1       1.764   5.724  18.230  0.00  0.00    +0.000 HD
BRANCH  15  17
ATOM     17  C   UNL     1       1.901   7.702  18.792  0.00  0.00    +0.000 A 
ATOM     18  C   UNL     1       1.732   8.765  17.892  0.00  0.00    +0.000 A 
ATOM     19  C   UNL     1       1.310  10.024  18.324  0.00  0.00    +0.000 A 
ATOM     20  C   UNL     1       1.033  10.245  19.673  0.00  0.00    +0.000 A 
ATOM     21  C   UNL     1       0.602  11.601  20.152  0.00  0.00    +0.000 C 
ATOM     22  C   UNL     1       1.168   9.185  20.576  0.00  0.00    +0.000 A 
ATOM     23  C   UNL     1       1.599   7.925  20.139  0.00  0.00    +0.000 A 
ENDBRANCH  15  17
ENDBRANCH   3  15
TORSDOF 4
ENDMDL
MODEL 6
REMARK VINA RESULT:      -7.3      1.733      4.016
REMARK  Name = 
REMARK  6 active torsions:
REMARK  status: ('A' for Active; 'I' for Inactive)
REMARK    1  A    between atoms: C_1  and  O_2
REMARK    2  A    between atoms: O_2  and  C_3
REMARK    3  A    between atoms: C_5  and  N_6
REMARK    4  A    between atoms: N_6  and  C_7
REMARK    5  A    between atoms: C_10  and  C_11
REMARK    6  A    between atoms: C_19  and  N_20
REMARK                            x       y       z     vdW  Elec       q    Type
REMARK                         _______ _______ _______ _____ _____    ______ ____
ROOT
ATOM      1  C   UNL     1       2.679   3.862  19.013  0.00  0.00    +0.000 A 
ATOM      2  C   UNL     1       2.430   5.183  18.636  0.00  0.00    +0.000 A 
ATOM      3  C   UNL     1       3.432   6.013  18.101  0.00  0.00    +0.000 A 
ATOM      4  C   UNL     1       4.701   5.431  17.945  0.00  0.00    +0.000 A 
ATOM      5  N   UNL     1       5.750   6.302  17.385  0.00  0.00    +0.000 N 
ATOM      6  O   UNL     1       5.527   6.816  16.280  0.00  0.00    +0.000 OA
ATOM      7  O   UNL     1       6.780   6.450  18.061  0.00  0.00    +0.000 OA
ATOM      8  N   UNL     1       4.992   4.145  18.304  0.00  0.00    +0.000 NA
ATOM      9  C   UNL     1       3.983   3.389  18.837  0.00  0.00    +0.000 A 
ENDROOT
BRANCH   9  10
ATOM     10  N   UNL     1       4.238   1.999  19.245  0.00  0.00    +0.000 N 
ATOM     11  O   UNL     1       3.834   1.101  18.490  0.00  0.00    +0.000 OA
ATOM     12  O   UNL     1       4.875   1.831  20.292  0.00  0.00    +0.000 OA
ENDBRANCH   9  10
BRANCH   1  14
ATOM     13  C   UNL     1       1.383   3.363  20.943  0.00  0.00    +0.000 C 
ATOM     14  O   UNL     1       1.734   3.063  19.591  0.00  0.00    +0.000 OA
ENDBRANCH   1  14
BRANCH   3  15
ATOM     15  N   UNL     1       3.132   7.371  17.837  0.00  0.00    +0.000 N 
ATOM     16  H   UNL     1       3.494   7.732  16.957  0.00  0.00    +0.000 HD
BRANCH  15  17
ATOM     17  C   UNL     1       2.169   8.187  18.468  0.00  0.00    +0.000 A 
ATOM     18  C   UNL     1       1.517   9.219  17.775  0.00  0.00    +0.000 A 
ATOM     19  C   UNL     1       0.656  10.103  18.428  0.00  0.00    +0.000 A 
ATOM     20  C   UNL     1       0.416   9.966  19.795  0.00  0.00    +0.000 A 
ATOM     21  C   UNL     1      -0.488  10.926  20.513  0.00  0.00    +0.000 C 
ATOM     22  C   UNL     1       1.036   8.922  20.491  0.00  0.00    +0.000 A 
ATOM     23  C   UNL     1       1.906   8.041  19.833  0.00  0.00    +0.000 A 
ENDBRANCH  15  17
ENDBRANCH   3  15
TORSDOF 4
ENDMDL
MODEL 7
REMARK VINA RESULT:      -7.3      1.216      1.729
REMARK  Name = 
REMARK  6 active torsions:
REMARK  status: ('A' for Active; 'I' for Inactive)
REMARK    1  A    between atoms: C_1  and  O_2
REMARK    2  A    between atoms: O_2  and  C_3
REMARK    3  A    between atoms: C_5  and  N_6
REMARK    4  A    between atoms: N_6  and  C_7
REMARK    5  A    between atoms: C_10  and  C_11
REMARK    6  A    between atoms: C_19  and  N_20
REMARK                            x       y       z     vdW  Elec       q    Type
REMARK                         _______ _______ _______ _____ _____    ______ ____
ROOT
ATOM      1  C   UNL     1       6.389   5.835  18.440  0.00  0.00    +0.000 A 
ATOM      2  C   UNL     1       5.274   6.149  19.218  0.00  0.00    +0.000 A 
ATOM      3  C   UNL     1       4.069   5.426  19.131  0.00  0.00    +0.000 A 
ATOM      4  C   UNL     1       4.056   4.350  18.227  0.00  0.00    +0.000 A 
ATOM      5  N   UNL     1       2.794   3.596  18.135  0.00  0.00    +0.000 N 
ATOM      6  O   UNL     1       2.354   3.101  19.183  0.00  0.00    +0.000 OA
ATOM      7  O   UNL     1       2.269   3.507  17.013  0.00  0.00    +0.000 OA
ATOM      8  N   UNL     1       5.122   4.010  17.442  0.00  0.00    +0.000 NA
ATOM      9  C   UNL     1       6.261   4.759  17.556  0.00  0.00    +0.000 A 
ENDROOT
BRANCH   9  10
ATOM     10  N   UNL     1       7.439   4.442  16.734  0.00  0.00    +0.000 N 
ATOM     11  O   UNL     1       8.436   3.990  17.318  0.00  0.00    +0.000 OA
ATOM     12  O   UNL     1       7.331   4.610  15.512  0.00  0.00    +0.000 OA
ENDBRANCH   9  10
BRANCH   1  14
ATOM     13  C   UNL     1       7.593   7.716  17.624  0.00  0.00    +0.000 C 
ATOM     14  O   UNL     1       7.544   6.564  18.468  0.00  0.00    +0.000 OA
ENDBRANCH   1  14
BRANCH   3  15
ATOM     15  N   UNL     1       2.948   5.865  19.875  0.00  0.00    +0.000 N 
ATOM     16  H   UNL     1       2.784   5.365  20.746  0.00  0.00    +0.000 HD
BRANCH  15  17
ATOM     17  C   UNL     1       2.223   7.067  19.729  0.00  0.00    +0.000 A 
ATOM     18  C   UNL     1       2.247   7.795  18.530  0.00  0.00    +0.000 A 
ATOM     19  C   UNL     1       1.631   9.044  18.424  0.00  0.00    +0.000 A 
ATOM     20  C   UNL     1       0.963   9.590  19.519  0.00  0.00    +0.000 A 
ATOM     21  C   UNL     1       0.318  10.943  19.425  0.00  0.00    +0.000 C 
ATOM     22  C   UNL     1       0.906   8.860  20.712  0.00  0.00    +0.000 A 
ATOM     23  C   UNL     1       1.531   7.610  20.815  0.00  0.00    +0.000 A 
ENDBRANCH  15  17
ENDBRANCH   3  15
TORSDOF 4
ENDMDL
MODEL 8
REMARK VINA RESULT:      -7.3      1.760      3.896
REMARK  Name = 
REMARK  6 active torsions:
REMARK  status: ('A' for Active; 'I' for Inactive)
REMARK    1  A    between atoms: C_1  and  O_2
REMARK    2  A    between atoms: O_2  and  C_3
REMARK    3  A    between atoms: C_5  and  N_6
REMARK    4  A    between atoms: N_6  and  C_7
REMARK    5  A    between atoms: C_10  and  C_11
REMARK    6  A    between atoms: C_19  and  N_20
REMARK                            x       y       z     vdW  Elec       q    Type
REMARK                         _______ _______ _______ _____ _____    ______ ____
ROOT
ATOM      1  C   UNL     1       2.639   3.919  19.072  0.00  0.00    +0.000 A 
ATOM      2  C   UNL     1       2.381   5.228  18.660  0.00  0.00    +0.000 A 
ATOM      3  C   UNL     1       3.371   6.038  18.073  0.00  0.00    +0.000 A 
ATOM      4  C   UNL     1       4.635   5.448  17.904  0.00  0.00    +0.000 A 
ATOM      5  N   UNL     1       5.671   6.298  17.291  0.00  0.00    +0.000 N 
ATOM      6  O   UNL     1       5.421   6.778  16.175  0.00  0.00    +0.000 OA
ATOM      7  O   UNL     1       6.718   6.466  17.935  0.00  0.00    +0.000 OA
ATOM      8  N   UNL     1       4.933   4.173  18.296  0.00  0.00    +0.000 NA
ATOM      9  C   UNL     1       3.937   3.438  18.878  0.00  0.00    +0.000 A 
ENDROOT
BRANCH   9  10
ATOM     10  N   UNL     1       4.199   2.060  19.323  0.00  0.00    +0.000 N 
ATOM     11  O   UNL     1       3.814   1.140  18.586  0.00  0.00    +0.000 OA
ATOM     12  O   UNL     1       4.825   1.925  20.382  0.00  0.00    +0.000 OA
ENDBRANCH   9  10
BRANCH   1  14
ATOM     13  C   UNL     1       1.498   3.389  21.090  0.00  0.00    +0.000 C 
ATOM     14  O   UNL     1       1.707   3.141  19.699  0.00  0.00    +0.000 OA
ENDBRANCH   1  14
BRANCH   3  15
ATOM     15  N   UNL     1       3.067   7.388  17.774  0.00  0.00    +0.000 N 
ATOM     16  H   UNL     1       3.314   7.690  16.834  0.00  0.00    +0.000 HD
BRANCH  15  17
ATOM     17  C   UNL     1       2.215   8.264  18.479  0.00  0.00    +0.000 A 
ATOM     18  C   UNL     1       1.958   8.091  19.848  0.00  0.00    +0.000 A 
ATOM     19  C   UNL     1       1.021   8.881  20.518  0.00  0.00    +0.000 A 
ATOM     20  C   UNL     1       0.326   9.877  19.832  0.00  0.00    +0.000 A 
ATOM     21  C   UNL     1      -0.701  10.716  20.536  0.00  0.00    +0.000 C 
ATOM     22  C   UNL     1       0.596  10.080  18.474  0.00  0.00    +0.000 A 
ATOM     23  C   UNL     1       1.532   9.279  17.804  0.00  0.00    +0.000 A 
ENDBRANCH  15  17
ENDBRANCH   3  15
TORSDOF 4
ENDMDL
MODEL 9
REMARK VINA RESULT:      -7.3      3.137      4.966
REMARK  Name = 
REMARK  6 active torsions:
REMARK  status: ('A' for Active; 'I' for Inactive)
REMARK    1  A    between atoms: C_1  and  O_2
REMARK    2  A    between atoms: O_2  and  C_3
REMARK    3  A    between atoms: C_5  and  N_6
REMARK    4  A    between atoms: N_6  and  C_7
REMARK    5  A    between atoms: C_10  and  C_11
REMARK    6  A    between atoms: C_19  and  N_20
REMARK                            x       y       z     vdW  Elec       q    Type
REMARK                         _______ _______ _______ _____ _____    ______ ____
ROOT
ATOM      1  C   UNL     1       1.412   4.235  20.218  0.00  0.00    +0.000 A 
ATOM      2  C   UNL     1       1.511   5.542  20.699  0.00  0.00    +0.000 A 
ATOM      3  C   UNL     1       2.023   6.593  19.916  0.00  0.00    +0.000 A 
ATOM      4  C   UNL     1       2.412   6.259  18.607  0.00  0.00    +0.000 A 
ATOM      5  N   UNL     1       2.949   7.359  17.789  0.00  0.00    +0.000 N 
ATOM      6  O   UNL     1       2.224   8.353  17.633  0.00  0.00    +0.000 OA
ATOM      7  O   UNL     1       4.084   7.207  17.312  0.00  0.00    +0.000 OA
ATOM      8  N   UNL     1       2.336   4.993  18.097  0.00  0.00    +0.000 NA
ATOM      9  C   UNL     1       1.848   4.007  18.910  0.00  0.00    +0.000 A 
ENDROOT
BRANCH   9  10
ATOM     10  N   UNL     1       1.746   2.625  18.416  0.00  0.00    +0.000 N 
ATOM     11  O   UNL     1       0.609   2.185  18.185  0.00  0.00    +0.000 OA
ATOM     12  O   UNL     1       2.809   2.019  18.227  0.00  0.00    +0.000 OA
ENDBRANCH   9  10
BRANCH   1  14
ATOM     13  C   UNL     1       1.923   2.624  21.891  0.00  0.00    +0.000 C 
ATOM     14  O   UNL     1       0.976   3.192  20.986  0.00  0.00    +0.000 OA
ENDBRANCH   1  14
BRANCH   3  15
ATOM     15  N   UNL     1       2.191   7.870  20.503  0.00  0.00    +0.000 N 
ATOM     16  H   UNL     1       3.074   8.331  20.294  0.00  0.00    +0.000 HD
BRANCH  15  17
ATOM     17  C   UNL     1       1.204   8.700  21.075  0.00  0.00    +0.000 A 
ATOM     18  C   UNL     1       0.423   9.559  20.288  0.00  0.00    +0.000 A 
ATOM     19  C   UNL     1      -0.467  10.468  20.865  0.00  0.00    +0.000 A 
ATOM     20  C   UNL     1      -0.605  10.528  22.251  0.00  0.00    +0.000 A 
ATOM     21  C   UNL     1      -1.540  11.518  22.884  0.00  0.00    +0.000 C 
ATOM     22  C   UNL     1       0.145   9.655  23.046  0.00  0.00    +0.000 A 
ATOM     23  C   UNL     1       1.043   8.750  22.463  0.00  0.00    +0.000 A 
ENDBRANCH  15  17
ENDBRANCH   3  15
TORSDOF 4
ENDMDL
