MODEL 1
REMARK VINA RESULT:      -5.8      0.000      0.000
REMARK  Name = 
REMARK  4 active torsions:
REMARK  status: ('A' for Active; 'I' for Inactive)
REMARK    1  A    between atoms: C_5  and  S_6
REMARK    2  A    between atoms: S_6  and  C_7
REMARK    3  A    between atoms: C_7  and  C_8
REMARK    4  A    between atoms: C_8  and  N_9
REMARK                            x       y       z     vdW  Elec       q    Type
REMARK                         _______ _______ _______ _____ _____    ______ ____
ROOT
ATOM      1  S   UNL     1       6.024   5.254  19.176  0.00  0.00    +0.000 S 
ENDROOT
BRANCH   1   6
ATOM      2 CL   UNL     1       0.507   2.246  18.702  0.00  0.00    +0.000 Cl
ATOM      3  C   UNL     1       2.011   3.070  18.823  0.00  0.00    +0.000 A 
ATOM      4  C   UNL     1       2.139   4.358  18.303  0.00  0.00    +0.000 A 
ATOM      5  C   UNL     1       3.360   5.028  18.401  0.00  0.00    +0.000 A 
ATOM      6  C   UNL     1       4.454   4.419  19.025  0.00  0.00    +0.000 A 
ATOM      7  C   UNL     1       4.319   3.121  19.532  0.00  0.00    +0.000 A 
ATOM      8  C   UNL     1       3.096   2.448  19.435  0.00  0.00    +0.000 A 
ENDBRANCH   1   6
BRANCH   1   9
ATOM      9  C   UNL     1       6.004   6.288  17.659  0.00  0.00    +0.000 C 
BRANCH   9  10
ATOM     10  C   UNL     1       7.216   5.996  16.783  0.00  0.00    +0.000 C 
BRANCH  10  11
ATOM     11  N   UNL     1       6.868   5.243  15.598  0.00  0.00    +0.000 N 
ATOM     12  C   UNL     1       5.941   4.256  15.481  0.00  0.00    +0.000 A 
ATOM     13  N   UNL     1       5.971   3.771  14.261  0.00  0.00    +0.000 NA
ATOM     14  C   UNL     1       6.963   4.499  13.665  0.00  0.00    +0.000 A 
ATOM     15  N   UNL     1       7.542   5.414  14.446  0.00  0.00    +0.000 NA
ENDBRANCH  10  11
ENDBRANCH   9  10
ENDBRANCH   1   9
TORSDOF 4
ENDMDL
MODEL 2
REMARK VINA RESULT:      -5.8      4.503      6.392
REMARK  Name = 
REMARK  4 active torsions:
REMARK  status: ('A' for Active; 'I' for Inactive)
REMARK    1  A    between atoms: C_5  and  S_6
REMARK    2  A    between atoms: S_6  and  C_7
REMARK    3  A    between atoms: C_7  and  C_8
REMARK    4  A    between atoms: C_8  and  N_9
REMARK                            x       y       z     vdW  Elec       q    Type
REMARK                         _______ _______ _______ _____ _____    ______ ____
ROOT
ATOM      1  S   UNL     1       3.930   3.259  17.714  0.00  0.00    +0.000 S 
ENDROOT
BRANCH   1   6
ATOM      2 CL   UNL     1       7.885   8.161  17.536  0.00  0.00    +0.000 Cl
ATOM      3  C   UNL     1       6.813   6.818  17.586  0.00  0.00    +0.000 A 
ATOM      4  C   UNL     1       6.967   5.845  18.573  0.00  0.00    +0.000 A 
ATOM      5  C   UNL     1       6.098   4.754  18.615  0.00  0.00    +0.000 A 
ATOM      6  C   UNL     1       5.065   4.635  17.679  0.00  0.00    +0.000 A 
ATOM      7  C   UNL     1       4.926   5.610  16.684  0.00  0.00    +0.000 A 
ATOM      8  C   UNL     1       5.797   6.704  16.641  0.00  0.00    +0.000 A 
ENDBRANCH   1   6
BRANCH   1   9
ATOM      9  C   UNL     1       2.323   4.144  17.656  0.00  0.00    +0.000 C 
BRANCH   9  10
ATOM     10  C   UNL     1       2.113   4.979  18.913  0.00  0.00    +0.000 C 
BRANCH  10  11
ATOM     11  N   UNL     1       1.915   4.160  20.089  0.00  0.00    +0.000 N 
ATOM     12  C   UNL     1       2.506   4.295  21.306  0.00  0.00    +0.000 A 
ATOM     13  N   UNL     1       2.120   3.315  22.089  0.00  0.00    +0.000 NA
ATOM     14  C   UNL     1       1.289   2.587  21.285  0.00  0.00    +0.000 A 
ATOM     15  N   UNL     1       1.132   3.068  20.049  0.00  0.00    +0.000 NA
ENDBRANCH  10  11
ENDBRANCH   9  10
ENDBRANCH   1   9
TORSDOF 4
ENDMDL
MODEL 3
REMARK VINA RESULT:      -5.7      4.500      6.246
REMARK  Name = 
REMARK  4 active torsions:
REMARK  status: ('A' for Active; 'I' for Inactive)
REMARK    1  A    between atoms: C_5  and  S_6
REMARK    2  A    between atoms: S_6  and  C_7
REMARK    3  A    between atoms: C_7  and  C_8
REMARK    4  A    between atoms: C_8  and  N_9
REMARK                            x       y       z     vdW  Elec       q    Type
REMARK                         _______ _______ _______ _____ _____    ______ ____
ROOT
ATOM      1  S   UNL     1       3.342   3.301  17.415  0.00  0.00    +0.000 S 
ENDROOT
BRANCH   1   6
ATOM      2 CL   UNL     1       7.871   7.663  17.820  0.00  0.00    +0.000 Cl
ATOM      3  C   UNL     1       6.629   6.479  17.707  0.00  0.00    +0.000 A 
ATOM      4  C   UNL     1       5.708   6.540  16.663  0.00  0.00    +0.000 A 
ATOM      5  C   UNL     1       4.699   5.580  16.570  0.00  0.00    +0.000 A 
ATOM      6  C   UNL     1       4.612   4.551  17.513  0.00  0.00    +0.000 A 
ATOM      7  C   UNL     1       5.534   4.505  18.565  0.00  0.00    +0.000 A 
ATOM      8  C   UNL     1       6.546   5.467  18.660  0.00  0.00    +0.000 A 
ENDBRANCH   1   6
BRANCH   1   9
ATOM      9  C   UNL     1       1.841   4.323  17.678  0.00  0.00    +0.000 C 
BRANCH   9  10
ATOM     10  C   UNL     1       1.927   5.095  18.989  0.00  0.00    +0.000 C 
BRANCH  10  11
ATOM     11  N   UNL     1       1.817   4.231  20.144  0.00  0.00    +0.000 N 
ATOM     12  C   UNL     1       2.579   4.244  21.269  0.00  0.00    +0.000 A 
ATOM     13  N   UNL     1       2.214   3.258  22.055  0.00  0.00    +0.000 NA
ATOM     14  C   UNL     1       1.216   2.652  21.345  0.00  0.00    +0.000 A 
ATOM     15  N   UNL     1       0.937   3.214  20.166  0.00  0.00    +0.000 NA
ENDBRANCH  10  11
ENDBRANCH   9  10
ENDBRANCH   1   9
TORSDOF 4
ENDMDL
MODEL 4
REMARK VINA RESULT:      -5.7      4.298      5.884
REMARK  Name = 
REMARK  4 active torsions:
REMARK  status: ('A' for Active; 'I' for Inactive)
REMARK    1  A    between atoms: C_5  and  S_6
REMARK    2  A    between atoms: S_6  and  C_7
REMARK    3  A    between atoms: C_7  and  C_8
REMARK    4  A    between atoms: C_8  and  N_9
REMARK                            x       y       z     vdW  Elec       q    Type
REMARK                         _______ _______ _______ _____ _____    ______ ____
ROOT
ATOM      1  S   UNL     1       4.893   4.266  18.462  0.00  0.00    +0.000 S 
ENDROOT
BRANCH   1   6
ATOM      2 CL   UNL     1       1.244   9.389  18.858  0.00  0.00    +0.000 Cl
ATOM      3  C   UNL     1       2.242   7.992  18.759  0.00  0.00    +0.000 A 
ATOM      4  C   UNL     1       2.201   7.039  19.775  0.00  0.00    +0.000 A 
ATOM      5  C   UNL     1       3.010   5.904  19.696  0.00  0.00    +0.000 A 
ATOM      6  C   UNL     1       3.855   5.713  18.598  0.00  0.00    +0.000 A 
ATOM      7  C   UNL     1       3.899   6.682  17.589  0.00  0.00    +0.000 A 
ATOM      8  C   UNL     1       3.088   7.820  17.667  0.00  0.00    +0.000 A 
ENDBRANCH   1   6
BRANCH   1   9
ATOM      9  C   UNL     1       3.705   3.065  17.745  0.00  0.00    +0.000 C 
BRANCH   9  10
ATOM     10  C   UNL     1       3.421   1.929  18.720  0.00  0.00    +0.000 C 
BRANCH  10  11
ATOM     11  N   UNL     1       2.699   2.377  19.891  0.00  0.00    +0.000 N 
ATOM     12  C   UNL     1       3.156   2.465  21.167  0.00  0.00    +0.000 A 
ATOM     13  N   UNL     1       2.177   2.847  21.955  0.00  0.00    +0.000 NA
ATOM     14  C   UNL     1       1.120   2.968  21.097  0.00  0.00    +0.000 A 
ATOM     15  N   UNL     1       1.392   2.690  19.820  0.00  0.00    +0.000 NA
ENDBRANCH  10  11
ENDBRANCH   9  10
ENDBRANCH   1   9
TORSDOF 4
ENDMDL
MODEL 5
REMARK VINA RESULT:      -5.7      4.355      6.262
REMARK  Name = 
REMARK  4 active torsions:
REMARK  status: ('A' for Active; 'I' for Inactive)
REMARK    1  A    between atoms: C_5  and  S_6
REMARK    2  A    between atoms: S_6  and  C_7
REMARK    3  A    between atoms: C_7  and  C_8
REMARK    4  A    between atoms: C_8  and  N_9
REMARK                            x       y       z     vdW  Elec       q    Type
REMARK                         _______ _______ _______ _____ _____    ______ ____
ROOT
ATOM      1  S   UNL     1       3.579   2.307  17.853  0.00  0.00    +0.000 S 
ENDROOT
BRANCH   1   6
ATOM      2 CL   UNL     1       7.372   7.325  17.484  0.00  0.00    +0.000 Cl
ATOM      3  C   UNL     1       6.343   5.952  17.590  0.00  0.00    +0.000 A 
ATOM      4  C   UNL     1       6.085   5.375  18.833  0.00  0.00    +0.000 A 
ATOM      5  C   UNL     1       5.249   4.261  18.922  0.00  0.00    +0.000 A 
ATOM      6  C   UNL     1       4.661   3.724  17.772  0.00  0.00    +0.000 A 
ATOM      7  C   UNL     1       4.937   4.302  16.527  0.00  0.00    +0.000 A 
ATOM      8  C   UNL     1       5.774   5.419  16.437  0.00  0.00    +0.000 A 
ENDBRANCH   1   6
BRANCH   1   9
ATOM      9  C   UNL     1       1.955   3.104  17.547  0.00  0.00    +0.000 C 
BRANCH   9  10
ATOM     10  C   UNL     1       0.986   2.828  18.690  0.00  0.00    +0.000 C 
BRANCH  10  11
ATOM     11  N   UNL     1       1.521   3.231  19.973  0.00  0.00    +0.000 N 
ATOM     12  C   UNL     1       1.645   2.476  21.096  0.00  0.00    +0.000 A 
ATOM     13  N   UNL     1       2.109   3.222  22.072  0.00  0.00    +0.000 NA
ATOM     14  C   UNL     1       2.240   4.450  21.487  0.00  0.00    +0.000 A 
ATOM     15  N   UNL     1       1.891   4.504  20.199  0.00  0.00    +0.000 NA
ENDBRANCH  10  11
ENDBRANCH   9  10
ENDBRANCH   1   9
TORSDOF 4
ENDMDL
MODEL 6
REMARK VINA RESULT:      -5.7      4.275      5.803
REMARK  Name = 
REMARK  4 active torsions:
REMARK  status: ('A' for Active; 'I' for Inactive)
REMARK    1  A    between atoms: C_5  and  S_6
REMARK    2  A    between atoms: S_6  and  C_7
REMARK    3  A    between atoms: C_7  and  C_8
REMARK    4  A    between atoms: C_8  and  N_9
REMARK                            x       y       z     vdW  Elec       q    Type
REMARK                         _______ _______ _______ _____ _____    ______ ____
ROOT
ATOM      1  S   UNL     1       5.075   4.325  18.850  0.00  0.00    +0.000 S 
ENDROOT
BRANCH   1   6
ATOM      2 CL   UNL     1       1.328   9.370  18.383  0.00  0.00    +0.000 Cl
ATOM      3  C   UNL     1       2.350   7.991  18.502  0.00  0.00    +0.000 A 
ATOM      4  C   UNL     1       3.287   7.736  17.501  0.00  0.00    +0.000 A 
ATOM      5  C   UNL     1       4.117   6.618  17.596  0.00  0.00    +0.000 A 
ATOM      6  C   UNL     1       4.021   5.756  18.694  0.00  0.00    +0.000 A 
ATOM      7  C   UNL     1       3.068   6.013  19.686  0.00  0.00    +0.000 A 
ATOM      8  C   UNL     1       2.235   7.134  19.593  0.00  0.00    +0.000 A 
ENDBRANCH   1   6
BRANCH   1   9
ATOM      9  C   UNL     1       4.061   3.061  17.989  0.00  0.00    +0.000 C 
BRANCH   9  10
ATOM     10  C   UNL     1       3.647   1.948  18.944  0.00  0.00    +0.000 C 
BRANCH  10  11
ATOM     11  N   UNL     1       2.753   2.417  19.981  0.00  0.00    +0.000 N 
ATOM     12  C   UNL     1       2.996   2.497  21.315  0.00  0.00    +0.000 A 
ATOM     13  N   UNL     1       1.911   2.906  21.932  0.00  0.00    +0.000 NA
ATOM     14  C   UNL     1       1.013   3.051  20.912  0.00  0.00    +0.000 A 
ATOM     15  N   UNL     1       1.485   2.763  19.696  0.00  0.00    +0.000 NA
ENDBRANCH  10  11
ENDBRANCH   9  10
ENDBRANCH   1   9
TORSDOF 4
ENDMDL
MODEL 7
REMARK VINA RESULT:      -5.6      2.023      2.863
REMARK  Name = 
REMARK  4 active torsions:
REMARK  status: ('A' for Active; 'I' for Inactive)
REMARK    1  A    between atoms: C_5  and  S_6
REMARK    2  A    between atoms: S_6  and  C_7
REMARK    3  A    between atoms: C_7  and  C_8
REMARK    4  A    between atoms: C_8  and  N_9
REMARK                            x       y       z     vdW  Elec       q    Type
REMARK                         _______ _______ _______ _____ _____    ______ ____
ROOT
ATOM      1  S   UNL     1       4.113   5.450  17.211  0.00  0.00    +0.000 S 
ENDROOT
BRANCH   1   6
ATOM      2 CL   UNL     1       1.299   2.416  21.964  0.00  0.00    +0.000 Cl
ATOM      3  C   UNL     1       2.058   3.247  20.664  0.00  0.00    +0.000 A 
ATOM      4  C   UNL     1       1.670   4.550  20.354  0.00  0.00    +0.000 A 
ATOM      5  C   UNL     1       2.286   5.226  19.299  0.00  0.00    +0.000 A 
ATOM      6  C   UNL     1       3.298   4.608  18.557  0.00  0.00    +0.000 A 
ATOM      7  C   UNL     1       3.672   3.296  18.868  0.00  0.00    +0.000 A 
ATOM      8  C   UNL     1       3.056   2.617  19.925  0.00  0.00    +0.000 A 
ENDBRANCH   1   6
BRANCH   1   9
ATOM      9  C   UNL     1       5.321   4.170  16.694  0.00  0.00    +0.000 C 
BRANCH   9  10
ATOM     10  C   UNL     1       6.580   4.807  16.118  0.00  0.00    +0.000 C 
BRANCH  10  11
ATOM     11  N   UNL     1       7.183   5.755  17.030  0.00  0.00    +0.000 N 
ATOM     12  C   UNL     1       7.607   5.532  18.302  0.00  0.00    +0.000 A 
ATOM     13  N   UNL     1       8.029   6.660  18.825  0.00  0.00    +0.000 NA
ATOM     14  C   UNL     1       7.825   7.561  17.818  0.00  0.00    +0.000 A 
ATOM     15  N   UNL     1       7.307   7.052  16.697  0.00  0.00    +0.000 NA
ENDBRANCH  10  11
ENDBRANCH   9  10
ENDBRANCH   1   9
TORSDOF 4
ENDMDL
MODEL 8
REMARK VINA RESULT:      -5.6      2.640      3.660
REMARK  Name = 
REMARK  4 active torsions:
REMARK  status: ('A' for Active; 'I' for Inactive)
REMARK    1  A    between atoms: C_5  and  S_6
REMARK    2  A    between atoms: S_6  and  C_7
REMARK    3  A    between atoms: C_7  and  C_8
REMARK    4  A    between atoms: C_8  and  N_9
REMARK                            x       y       z     vdW  Elec       q    Type
REMARK                         _______ _______ _______ _____ _____    ______ ____
ROOT
ATOM      1  S   UNL     1       4.217   3.512  17.937  0.00  0.00    +0.000 S 
ENDROOT
BRANCH   1   6
ATOM      2 CL   UNL     1       1.325   8.485  20.509  0.00  0.00    +0.000 Cl
ATOM      3  C   UNL     1       2.117   7.126  19.815  0.00  0.00    +0.000 A 
ATOM      4  C   UNL     1       2.058   5.889  20.456  0.00  0.00    +0.000 A 
ATOM      5  C   UNL     1       2.701   4.784  19.894  0.00  0.00    +0.000 A 
ATOM      6  C   UNL     1       3.396   4.908  18.687  0.00  0.00    +0.000 A 
ATOM      7  C   UNL     1       3.460   6.157  18.058  0.00  0.00    +0.000 A 
ATOM      8  C   UNL     1       2.816   7.265  18.619  0.00  0.00    +0.000 A 
ENDBRANCH   1   6
BRANCH   1   9
ATOM      9  C   UNL     1       4.887   4.291  16.416  0.00  0.00    +0.000 C 
BRANCH   9  10
ATOM     10  C   UNL     1       6.411   4.256  16.409  0.00  0.00    +0.000 C 
BRANCH  10  11
ATOM     11  N   UNL     1       6.990   5.392  17.092  0.00  0.00    +0.000 N 
ATOM     12  C   UNL     1       7.563   5.419  18.324  0.00  0.00    +0.000 A 
ATOM     13  N   UNL     1       7.905   6.652  18.619  0.00  0.00    +0.000 NA
ATOM     14  C   UNL     1       7.499   7.355  17.520  0.00  0.00    +0.000 A 
ATOM     15  N   UNL     1       6.933   6.624  16.557  0.00  0.00    +0.000 NA
ENDBRANCH  10  11
ENDBRANCH   9  10
ENDBRANCH   1   9
TORSDOF 4
ENDMDL
MODEL 9
REMARK VINA RESULT:      -5.6      2.082      3.052
REMARK  Name = 
REMARK  4 active torsions:
REMARK  status: ('A' for Active; 'I' for Inactive)
REMARK    1  A    between atoms: C_5  and  S_6
REMARK    2  A    between atoms: S_6  and  C_7
REMARK    3  A    between atoms: C_7  and  C_8
REMARK    4  A    between atoms: C_8  and  N_9
REMARK                            x       y       z     vdW  Elec       q    Type
REMARK                         _______ _______ _______ _____ _____    ______ ____
ROOT
ATOM      1  S   UNL     1       4.131   5.566  17.341  0.00  0.00    +0.000 S 
ENDROOT
BRANCH   1   6
ATOM      2 CL   UNL     1       1.316   2.425  22.022  0.00  0.00    +0.000 Cl
ATOM      3  C   UNL     1       2.090   3.275  20.744  0.00  0.00    +0.000 A 
ATOM      4  C   UNL     1       2.525   2.582  19.615  0.00  0.00    +0.000 A 
ATOM      5  C   UNL     1       3.154   3.271  18.576  0.00  0.00    +0.000 A 
ATOM      6  C   UNL     1       3.341   4.655  18.657  0.00  0.00    +0.000 A 
ATOM      7  C   UNL     1       2.913   5.340  19.800  0.00  0.00    +0.000 A 
ATOM      8  C   UNL     1       2.282   4.651  20.842  0.00  0.00    +0.000 A 
ENDBRANCH   1   6
BRANCH   1   9
ATOM      9  C   UNL     1       5.299   4.301  16.706  0.00  0.00    +0.000 C 
BRANCH   9  10
ATOM     10  C   UNL     1       6.544   4.953  16.117  0.00  0.00    +0.000 C 
BRANCH  10  11
ATOM     11  N   UNL     1       7.186   5.854  17.048  0.00  0.00    +0.000 N 
ATOM     12  C   UNL     1       7.600   5.586  18.315  0.00  0.00    +0.000 A 
ATOM     13  N   UNL     1       8.071   6.683  18.861  0.00  0.00    +0.000 NA
ATOM     14  C   UNL     1       7.907   7.614  17.874  0.00  0.00    +0.000 A 
ATOM     15  N   UNL     1       7.368   7.151  16.743  0.00  0.00    +0.000 NA
ENDBRANCH  10  11
ENDBRANCH   9  10
ENDBRANCH   1   9
TORSDOF 4
ENDMDL
