MODEL 1
REMARK VINA RESULT:      -7.4      0.000      0.000
REMARK  Name = 
REMARK  5 active torsions:
REMARK  status: ('A' for Active; 'I' for Inactive)
REMARK    1  A    between atoms: C_1  and  C_2
REMARK    2  A    between atoms: C_5  and  C_6
REMARK    3  A    between atoms: C_6  and  C_8
REMARK    4  A    between atoms: C_9  and  C_10
REMARK    5  A    between atoms: C_13  and  O_14
REMARK                            x       y       z     vdW  Elec       q    Type
REMARK                         _______ _______ _______ _____ _____    ______ ____
ROOT
ATOM      1  C   UNL     1       5.498   4.538  16.283  0.00  0.00    +0.000 C 
ATOM      2  C   UNL     1       4.623   5.313  16.944  0.00  0.00    +0.000 C 
ENDROOT
BRANCH   2   3
ATOM      3  C   UNL     1       3.509   4.750  17.725  0.00  0.00    +0.000 A 
ATOM      4  C   UNL     1       2.976   5.411  18.844  0.00  0.00    +0.000 A 
ATOM      5  C   UNL     1       1.929   4.850  19.580  0.00  0.00    +0.000 A 
ATOM      6  C   UNL     1       1.393   3.633  19.182  0.00  0.00    +0.000 A 
ATOM      7  C   UNL     1       1.881   2.977  18.058  0.00  0.00    +0.000 A 
ATOM      8  C   UNL     1       2.934   3.536  17.327  0.00  0.00    +0.000 A 
BRANCH   6   9
ATOM      9  O   UNL     1       0.377   3.048  19.875  0.00  0.00    +0.000 OA
ATOM     10  H   UNL     1       0.266   3.517  20.718  0.00  0.00    +0.000 HD
ENDBRANCH   6   9
ENDBRANCH   2   3
BRANCH   1  11
ATOM     11  C   UNL     1       6.642   5.094  15.496  0.00  0.00    +0.000 C 
ATOM     12  O   UNL     1       7.435   5.874  16.020  0.00  0.00    +0.000 OA
BRANCH  11  17
ATOM     13  C   UNL     1       5.418   2.414  11.662  0.00  0.00    +0.000 C 
ATOM     14  C   UNL     1       6.218   3.449  12.347  0.00  0.00    +0.000 A 
ATOM     15  C   UNL     1       7.243   4.279  11.955  0.00  0.00    +0.000 A 
ATOM     16  C   UNL     1       7.585   5.055  13.093  0.00  0.00    +0.000 A 
ATOM     17  C   UNL     1       6.747   4.655  14.118  0.00  0.00    +0.000 A 
ATOM     18  O   UNL     1       5.913   3.669  13.654  0.00  0.00    +0.000 OA
ENDBRANCH  11  17
ENDBRANCH   1  11
TORSDOF 4
ENDMDL
MODEL 2
REMARK VINA RESULT:      -7.2      0.860      1.097
REMARK  Name = 
REMARK  5 active torsions:
REMARK  status: ('A' for Active; 'I' for Inactive)
REMARK    1  A    between atoms: C_1  and  C_2
REMARK    2  A    between atoms: C_5  and  C_6
REMARK    3  A    between atoms: C_6  and  C_8
REMARK    4  A    between atoms: C_9  and  C_10
REMARK    5  A    between atoms: C_13  and  O_14
REMARK                            x       y       z     vdW  Elec       q    Type
REMARK                         _______ _______ _______ _____ _____    ______ ____
ROOT
ATOM      1  C   UNL     1       5.231   4.978  16.261  0.00  0.00    +0.000 C 
ATOM      2  C   UNL     1       5.145   4.067  17.244  0.00  0.00    +0.000 C 
ENDROOT
BRANCH   2   3
ATOM      3  C   UNL     1       3.884   3.791  17.951  0.00  0.00    +0.000 A 
ATOM      4  C   UNL     1       2.633   4.110  17.395  0.00  0.00    +0.000 A 
ATOM      5  C   UNL     1       1.450   3.854  18.090  0.00  0.00    +0.000 A 
ATOM      6  C   UNL     1       1.511   3.254  19.341  0.00  0.00    +0.000 A 
ATOM      7  C   UNL     1       2.734   2.898  19.897  0.00  0.00    +0.000 A 
ATOM      8  C   UNL     1       3.919   3.162  19.202  0.00  0.00    +0.000 A 
BRANCH   6   9
ATOM      9  O   UNL     1       0.382   2.993  20.056  0.00  0.00    +0.000 OA
ATOM     10  H   UNL     1      -0.205   2.437  19.517  0.00  0.00    +0.000 HD
ENDBRANCH   6   9
ENDBRANCH   2   3
BRANCH   1  11
ATOM     11  C   UNL     1       6.502   5.261  15.526  0.00  0.00    +0.000 C 
ATOM     12  O   UNL     1       7.402   5.904  16.065  0.00  0.00    +0.000 OA
BRANCH  11  17
ATOM     13  C   UNL     1       4.936   2.757  11.698  0.00  0.00    +0.000 C 
ATOM     14  C   UNL     1       5.915   3.601  12.411  0.00  0.00    +0.000 A 
ATOM     15  C   UNL     1       7.138   4.136  12.077  0.00  0.00    +0.000 A 
ATOM     16  C   UNL     1       7.578   4.865  13.213  0.00  0.00    +0.000 A 
ATOM     17  C   UNL     1       6.595   4.737  14.177  0.00  0.00    +0.000 A 
ATOM     18  O   UNL     1       5.580   3.960  13.679  0.00  0.00    +0.000 OA
ENDBRANCH  11  17
ENDBRANCH   1  11
TORSDOF 4
ENDMDL
MODEL 3
REMARK VINA RESULT:      -7.2      1.829      2.357
REMARK  Name = 
REMARK  5 active torsions:
REMARK  status: ('A' for Active; 'I' for Inactive)
REMARK    1  A    between atoms: C_1  and  C_2
REMARK    2  A    between atoms: C_5  and  C_6
REMARK    3  A    between atoms: C_6  and  C_8
REMARK    4  A    between atoms: C_9  and  C_10
REMARK    5  A    between atoms: C_13  and  O_14
REMARK                            x       y       z     vdW  Elec       q    Type
REMARK                         _______ _______ _______ _____ _____    ______ ____
ROOT
ATOM      1  C   UNL     1       6.039   4.594  18.294  0.00  0.00    +0.000 C 
ATOM      2  C   UNL     1       4.778   5.020  18.468  0.00  0.00    +0.000 C 
ENDROOT
BRANCH   2   3
ATOM      3  C   UNL     1       3.873   4.413  19.457  0.00  0.00    +0.000 A 
ATOM      4  C   UNL     1       2.837   5.142  20.065  0.00  0.00    +0.000 A 
ATOM      5  C   UNL     1       1.999   4.550  21.013  0.00  0.00    +0.000 A 
ATOM      6  C   UNL     1       2.181   3.213  21.341  0.00  0.00    +0.000 A 
ATOM      7  C   UNL     1       3.177   2.462  20.728  0.00  0.00    +0.000 A 
ATOM      8  C   UNL     1       4.019   3.058  19.784  0.00  0.00    +0.000 A 
BRANCH   6   9
ATOM      9  O   UNL     1       1.392   2.598  22.265  0.00  0.00    +0.000 OA
ATOM     10  H   UNL     1       1.315   3.177  23.041  0.00  0.00    +0.000 HD
ENDBRANCH   6   9
ENDBRANCH   2   3
BRANCH   1  11
ATOM     11  C   UNL     1       6.974   5.208  17.302  0.00  0.00    +0.000 C 
ATOM     12  O   UNL     1       7.840   5.999  17.673  0.00  0.00    +0.000 OA
BRANCH  11  17
ATOM     13  C   UNL     1       7.903   5.372  12.560  0.00  0.00    +0.000 C 
ATOM     14  C   UNL     1       7.190   4.861  13.747  0.00  0.00    +0.000 A 
ATOM     15  C   UNL     1       6.204   3.920  13.939  0.00  0.00    +0.000 A 
ATOM     16  C   UNL     1       5.948   3.889  15.335  0.00  0.00    +0.000 A 
ATOM     17  C   UNL     1       6.795   4.812  15.918  0.00  0.00    +0.000 A 
ATOM     18  O   UNL     1       7.552   5.405  14.940  0.00  0.00    +0.000 OA
ENDBRANCH  11  17
ENDBRANCH   1  11
TORSDOF 4
ENDMDL
MODEL 4
REMARK VINA RESULT:      -7.1      1.826      2.506
REMARK  Name = 
REMARK  5 active torsions:
REMARK  status: ('A' for Active; 'I' for Inactive)
REMARK    1  A    between atoms: C_1  and  C_2
REMARK    2  A    between atoms: C_5  and  C_6
REMARK    3  A    between atoms: C_6  and  C_8
REMARK    4  A    between atoms: C_9  and  C_10
REMARK    5  A    between atoms: C_13  and  O_14
REMARK                            x       y       z     vdW  Elec       q    Type
REMARK                         _______ _______ _______ _____ _____    ______ ____
ROOT
ATOM      1  C   UNL     1       6.048   4.555  18.129  0.00  0.00    +0.000 C 
ATOM      2  C   UNL     1       4.853   5.068  18.460  0.00  0.00    +0.000 C 
ENDROOT
BRANCH   2   3
ATOM      3  C   UNL     1       3.960   4.418  19.433  0.00  0.00    +0.000 A 
ATOM      4  C   UNL     1       4.125   3.075  19.812  0.00  0.00    +0.000 A 
ATOM      5  C   UNL     1       3.256   2.472  20.725  0.00  0.00    +0.000 A 
ATOM      6  C   UNL     1       2.229   3.222  21.283  0.00  0.00    +0.000 A 
ATOM      7  C   UNL     1       2.067   4.561  20.950  0.00  0.00    +0.000 A 
ATOM      8  C   UNL     1       2.933   5.161  20.030  0.00  0.00    +0.000 A 
BRANCH   6   9
ATOM      9  O   UNL     1       1.355   2.672  22.172  0.00  0.00    +0.000 OA
ATOM     10  H   UNL     1       1.286   1.721  21.990  0.00  0.00    +0.000 HD
ENDBRANCH   6   9
ENDBRANCH   2   3
BRANCH   1  11
ATOM     11  C   UNL     1       6.971   5.210  17.152  0.00  0.00    +0.000 C 
ATOM     12  O   UNL     1       7.794   6.040  17.535  0.00  0.00    +0.000 OA
BRANCH  11  17
ATOM     13  C   UNL     1       7.895   5.479  12.414  0.00  0.00    +0.000 C 
ATOM     14  C   UNL     1       7.227   4.900  13.596  0.00  0.00    +0.000 A 
ATOM     15  C   UNL     1       6.330   3.873  13.780  0.00  0.00    +0.000 A 
ATOM     16  C   UNL     1       6.074   3.813  15.175  0.00  0.00    +0.000 A 
ATOM     17  C   UNL     1       6.832   4.806  15.765  0.00  0.00    +0.000 A 
ATOM     18  O   UNL     1       7.535   5.469  14.792  0.00  0.00    +0.000 OA
ENDBRANCH  11  17
ENDBRANCH   1  11
TORSDOF 4
ENDMDL
MODEL 5
REMARK VINA RESULT:      -7.0      2.417      4.077
REMARK  Name = 
REMARK  5 active torsions:
REMARK  status: ('A' for Active; 'I' for Inactive)
REMARK    1  A    between atoms: C_1  and  C_2
REMARK    2  A    between atoms: C_5  and  C_6
REMARK    3  A    between atoms: C_6  and  C_8
REMARK    4  A    between atoms: C_9  and  C_10
REMARK    5  A    between atoms: C_13  and  O_14
REMARK                            x       y       z     vdW  Elec       q    Type
REMARK                         _______ _______ _______ _____ _____    ______ ____
ROOT
ATOM      1  C   UNL     1       4.848   4.973  16.594  0.00  0.00    +0.000 C 
ATOM      2  C   UNL     1       4.397   5.155  17.845  0.00  0.00    +0.000 C 
ENDROOT
BRANCH   2   3
ATOM      3  C   UNL     1       3.203   4.466  18.359  0.00  0.00    +0.000 A 
ATOM      4  C   UNL     1       2.429   4.995  19.404  0.00  0.00    +0.000 A 
ATOM      5  C   UNL     1       1.308   4.315  19.887  0.00  0.00    +0.000 A 
ATOM      6  C   UNL     1       0.943   3.108  19.307  0.00  0.00    +0.000 A 
ATOM      7  C   UNL     1       1.672   2.581  18.249  0.00  0.00    +0.000 A 
ATOM      8  C   UNL     1       2.798   3.259  17.771  0.00  0.00    +0.000 A 
BRANCH   6   9
ATOM      9  O   UNL     1      -0.138   2.409  19.752  0.00  0.00    +0.000 OA
ATOM     10  H   UNL     1      -0.345   1.714  19.105  0.00  0.00    +0.000 HD
ENDBRANCH   6   9
ENDBRANCH   2   3
BRANCH   1  11
ATOM     11  C   UNL     1       6.066   5.657  16.061  0.00  0.00    +0.000 C 
ATOM     12  O   UNL     1       6.309   5.641  14.855  0.00  0.00    +0.000 OA
BRANCH  11  17
ATOM     13  C   UNL     1       8.328   9.465  17.999  0.00  0.00    +0.000 C 
ATOM     14  C   UNL     1       7.958   8.037  17.948  0.00  0.00    +0.000 A 
ATOM     15  C   UNL     1       8.251   6.944  18.730  0.00  0.00    +0.000 A 
ATOM     16  C   UNL     1       7.578   5.841  18.144  0.00  0.00    +0.000 A 
ATOM     17  C   UNL     1       6.908   6.323  17.036  0.00  0.00    +0.000 A 
ATOM     18  O   UNL     1       7.146   7.669  16.920  0.00  0.00    +0.000 OA
ENDBRANCH  11  17
ENDBRANCH   1  11
TORSDOF 4
ENDMDL
MODEL 6
REMARK VINA RESULT:      -7.0      5.765      8.124
REMARK  Name = 
REMARK  5 active torsions:
REMARK  status: ('A' for Active; 'I' for Inactive)
REMARK    1  A    between atoms: C_1  and  C_2
REMARK    2  A    between atoms: C_5  and  C_6
REMARK    3  A    between atoms: C_6  and  C_8
REMARK    4  A    between atoms: C_9  and  C_10
REMARK    5  A    between atoms: C_13  and  O_14
REMARK                            x       y       z     vdW  Elec       q    Type
REMARK                         _______ _______ _______ _____ _____    ______ ____
ROOT
ATOM      1  C   UNL     1       8.112   8.635  17.702  0.00  0.00    +0.000 C 
ATOM      2  C   UNL     1       8.801   9.405  18.559  0.00  0.00    +0.000 C 
ENDROOT
BRANCH   2   3
ATOM      3  C   UNL     1       9.150  10.802  18.255  0.00  0.00    +0.000 A 
ATOM      4  C   UNL     1      10.455  11.296  18.420  0.00  0.00    +0.000 A 
ATOM      5  C   UNL     1      10.760  12.630  18.140  0.00  0.00    +0.000 A 
ATOM      6  C   UNL     1       9.762  13.473  17.670  0.00  0.00    +0.000 A 
ATOM      7  C   UNL     1       8.472  12.998  17.467  0.00  0.00    +0.000 A 
ATOM      8  C   UNL     1       8.166  11.664  17.754  0.00  0.00    +0.000 A 
BRANCH   6   9
ATOM      9  O   UNL     1      10.015  14.782  17.392  0.00  0.00    +0.000 OA
ATOM     10  H   UNL     1       9.646  14.990  16.518  0.00  0.00    +0.000 HD
ENDBRANCH   6   9
ENDBRANCH   2   3
BRANCH   1  11
ATOM     11  C   UNL     1       7.739   7.218  18.001  0.00  0.00    +0.000 C 
ATOM     12  O   UNL     1       8.197   6.652  18.992  0.00  0.00    +0.000 OA
BRANCH  11  17
ATOM     13  C   UNL     1       6.598   4.455  14.202  0.00  0.00    +0.000 C 
ATOM     14  C   UNL     1       6.265   5.332  15.341  0.00  0.00    +0.000 A 
ATOM     15  C   UNL     1       5.087   5.807  15.871  0.00  0.00    +0.000 A 
ATOM     16  C   UNL     1       5.445   6.613  16.982  0.00  0.00    +0.000 A 
ATOM     17  C   UNL     1       6.825   6.584  17.071  0.00  0.00    +0.000 A 
ATOM     18  O   UNL     1       7.320   5.798  16.061  0.00  0.00    +0.000 OA
ENDBRANCH  11  17
ENDBRANCH   1  11
TORSDOF 4
ENDMDL
MODEL 7
REMARK VINA RESULT:      -7.0      0.925      1.042
REMARK  Name = 
REMARK  5 active torsions:
REMARK  status: ('A' for Active; 'I' for Inactive)
REMARK    1  A    between atoms: C_1  and  C_2
REMARK    2  A    between atoms: C_5  and  C_6
REMARK    3  A    between atoms: C_6  and  C_8
REMARK    4  A    between atoms: C_9  and  C_10
REMARK    5  A    between atoms: C_13  and  O_14
REMARK                            x       y       z     vdW  Elec       q    Type
REMARK                         _______ _______ _______ _____ _____    ______ ____
ROOT
ATOM      1  C   UNL     1       5.179   4.894  15.901  0.00  0.00    +0.000 C 
ATOM      2  C   UNL     1       4.985   3.924  16.809  0.00  0.00    +0.000 C 
ENDROOT
BRANCH   2   3
ATOM      3  C   UNL     1       3.814   3.905  17.700  0.00  0.00    +0.000 A 
ATOM      4  C   UNL     1       3.832   4.512  18.967  0.00  0.00    +0.000 A 
ATOM      5  C   UNL     1       2.714   4.468  19.803  0.00  0.00    +0.000 A 
ATOM      6  C   UNL     1       1.560   3.832  19.363  0.00  0.00    +0.000 A 
ATOM      7  C   UNL     1       1.507   3.254  18.101  0.00  0.00    +0.000 A 
ATOM      8  C   UNL     1       2.629   3.293  17.268  0.00  0.00    +0.000 A 
BRANCH   6   9
ATOM      9  O   UNL     1       0.450   3.760  20.149  0.00  0.00    +0.000 OA
ATOM     10  H   UNL     1      -0.116   4.525  19.957  0.00  0.00    +0.000 HD
ENDBRANCH   6   9
ENDBRANCH   2   3
BRANCH   1  11
ATOM     11  C   UNL     1       6.357   4.921  14.981  0.00  0.00    +0.000 C 
ATOM     12  O   UNL     1       7.394   5.491  15.316  0.00  0.00    +0.000 OA
BRANCH  11  17
ATOM     13  C   UNL     1       3.808   3.115  11.291  0.00  0.00    +0.000 C 
ATOM     14  C   UNL     1       5.065   3.405  12.008  0.00  0.00    +0.000 A 
ATOM     15  C   UNL     1       6.394   3.162  11.746  0.00  0.00    +0.000 A 
ATOM     16  C   UNL     1       7.122   3.700  12.839  0.00  0.00    +0.000 A 
ATOM     17  C   UNL     1       6.195   4.244  13.708  0.00  0.00    +0.000 A 
ATOM     18  O   UNL     1       4.937   4.059  13.194  0.00  0.00    +0.000 OA
ENDBRANCH  11  17
ENDBRANCH   1  11
TORSDOF 4
ENDMDL
MODEL 8
REMARK VINA RESULT:      -7.0      2.404      4.270
REMARK  Name = 
REMARK  5 active torsions:
REMARK  status: ('A' for Active; 'I' for Inactive)
REMARK    1  A    between atoms: C_1  and  C_2
REMARK    2  A    between atoms: C_5  and  C_6
REMARK    3  A    between atoms: C_6  and  C_8
REMARK    4  A    between atoms: C_9  and  C_10
REMARK    5  A    between atoms: C_13  and  O_14
REMARK                            x       y       z     vdW  Elec       q    Type
REMARK                         _______ _______ _______ _____ _____    ______ ____
ROOT
ATOM      1  C   UNL     1       5.595   4.399  16.769  0.00  0.00    +0.000 C 
ATOM      2  C   UNL     1       4.586   4.987  17.431  0.00  0.00    +0.000 C 
ENDROOT
BRANCH   2   3
ATOM      3  C   UNL     1       3.403   4.240  17.887  0.00  0.00    +0.000 A 
ATOM      4  C   UNL     1       3.203   2.889  17.556  0.00  0.00    +0.000 A 
ATOM      5  C   UNL     1       2.064   2.203  17.986  0.00  0.00    +0.000 A 
ATOM      6  C   UNL     1       1.129   2.863  18.773  0.00  0.00    +0.000 A 
ATOM      7  C   UNL     1       1.322   4.188  19.141  0.00  0.00    +0.000 A 
ATOM      8  C   UNL     1       2.459   4.876  18.704  0.00  0.00    +0.000 A 
BRANCH   6   9
ATOM      9  O   UNL     1       0.002   2.234  19.207  0.00  0.00    +0.000 OA
ATOM     10  H   UNL     1      -0.736   2.487  18.630  0.00  0.00    +0.000 HD
ENDBRANCH   6   9
ENDBRANCH   2   3
BRANCH   1  11
ATOM     11  C   UNL     1       6.808   5.142  16.310  0.00  0.00    +0.000 C 
ATOM     12  O   UNL     1       7.274   4.938  15.190  0.00  0.00    +0.000 OA
BRANCH  11  17
ATOM     13  C   UNL     1       8.222   9.534  17.755  0.00  0.00    +0.000 C 
ATOM     14  C   UNL     1       8.033   8.082  17.941  0.00  0.00    +0.000 A 
ATOM     15  C   UNL     1       8.299   7.207  18.970  0.00  0.00    +0.000 A 
ATOM     16  C   UNL     1       7.877   5.927  18.525  0.00  0.00    +0.000 A 
ATOM     17  C   UNL     1       7.374   6.093  17.248  0.00  0.00    +0.000 A 
ATOM     18  O   UNL     1       7.475   7.415  16.896  0.00  0.00    +0.000 OA
ENDBRANCH  11  17
ENDBRANCH   1  11
TORSDOF 4
ENDMDL
MODEL 9
REMARK VINA RESULT:      -6.9      5.752      8.172
REMARK  Name = 
REMARK  5 active torsions:
REMARK  status: ('A' for Active; 'I' for Inactive)
REMARK    1  A    between atoms: C_1  and  C_2
REMARK    2  A    between atoms: C_5  and  C_6
REMARK    3  A    between atoms: C_6  and  C_8
REMARK    4  A    between atoms: C_9  and  C_10
REMARK    5  A    between atoms: C_13  and  O_14
REMARK                            x       y       z     vdW  Elec       q    Type
REMARK                         _______ _______ _______ _____ _____    ______ ____
ROOT
ATOM      1  C   UNL     1       8.207   8.603  17.639  0.00  0.00    +0.000 C 
ATOM      2  C   UNL     1       8.709   9.462  18.539  0.00  0.00    +0.000 C 
ENDROOT
BRANCH   2   3
ATOM      3  C   UNL     1       9.130  10.825  18.175  0.00  0.00    +0.000 A 
ATOM      4  C   UNL     1       8.201  11.834  17.870  0.00  0.00    +0.000 A 
ATOM      5  C   UNL     1       8.623  13.117  17.511  0.00  0.00    +0.000 A 
ATOM      6  C   UNL     1       9.982  13.402  17.479  0.00  0.00    +0.000 A 
ATOM      7  C   UNL     1      10.918  12.430  17.809  0.00  0.00    +0.000 A 
ATOM      8  C   UNL     1      10.494  11.144  18.162  0.00  0.00    +0.000 A 
BRANCH   6   9
ATOM      9  O   UNL     1      10.437  14.637  17.128  0.00  0.00    +0.000 OA
ATOM     10  H   UNL     1      11.061  14.539  16.390  0.00  0.00    +0.000 HD
ENDBRANCH   6   9
ENDBRANCH   2   3
BRANCH   1  11
ATOM     11  C   UNL     1       7.765   7.220  17.995  0.00  0.00    +0.000 C 
ATOM     12  O   UNL     1       8.166   6.686  19.028  0.00  0.00    +0.000 OA
BRANCH  11  17
ATOM     13  C   UNL     1       6.639   4.451  14.194  0.00  0.00    +0.000 C 
ATOM     14  C   UNL     1       6.301   5.322  15.337  0.00  0.00    +0.000 A 
ATOM     15  C   UNL     1       5.120   5.783  15.872  0.00  0.00    +0.000 A 
ATOM     16  C   UNL     1       5.474   6.591  16.984  0.00  0.00    +0.000 A 
ATOM     17  C   UNL     1       6.854   6.577  17.067  0.00  0.00    +0.000 A 
ATOM     18  O   UNL     1       7.354   5.799  16.054  0.00  0.00    +0.000 OA
ENDBRANCH  11  17
ENDBRANCH   1  11
TORSDOF 4
ENDMDL
