MODEL 1
REMARK VINA RESULT:      -6.4      0.000      0.000
REMARK  Name = 
REMARK  9 active torsions:
REMARK  status: ('A' for Active; 'I' for Inactive)
REMARK    1  A    between atoms: C_1  and  C_2
REMARK    2  A    between atoms: C_2  and  C_3
REMARK    3  A    between atoms: C_2  and  C_4
REMARK    4  A    between atoms: C_2  and  S_5
REMARK    5  A    between atoms: S_5  and  C_6
REMARK    6  A    between atoms: C_6  and  C_7
REMARK    7  A    between atoms: C_7  and  N_8
REMARK    8  A    between atoms: C_9  and  C_11
REMARK    9  A    between atoms: C_16  and  N_17
REMARK                            x       y       z     vdW  Elec       q    Type
REMARK                         _______ _______ _______ _____ _____    ______ ____
ROOT
ATOM      1  N   UNL     1       3.923   6.091  19.523  0.00  0.00    +0.000 N 
ATOM      2  C   UNL     1       3.487   6.894  18.488  0.00  0.00    +0.000 C 
ATOM      3  O   UNL     1       3.908   6.810  17.339  0.00  0.00    +0.000 OA
ATOM      4  H   UNL     1       3.336   5.989  20.342  0.00  0.00    +0.000 HD
ENDROOT
BRANCH   2   5
ATOM      5  C   UNL     1       2.436   7.894  18.814  0.00  0.00    +0.000 A 
ATOM      6  C   UNL     1       1.912   8.753  17.839  0.00  0.00    +0.000 A 
ATOM      7  C   UNL     1       0.893   9.656  18.164  0.00  0.00    +0.000 A 
ATOM      8  C   UNL     1       0.377   9.708  19.466  0.00  0.00    +0.000 A 
ATOM      9 CL   UNL     1      -0.843  10.881  19.792  0.00  0.00    +0.000 Cl
ATOM     10  C   UNL     1       0.896   8.836  20.423  0.00  0.00    +0.000 A 
ATOM     11  C   UNL     1       1.922   7.929  20.116  0.00  0.00    +0.000 A 
BRANCH  10  12
ATOM     12  N   UNL     1       0.384   8.841  21.776  0.00  0.00    +0.000 N 
ATOM     13  O   UNL     1       1.002   9.503  22.618  0.00  0.00    +0.000 OA
ATOM     14  O   UNL     1      -0.663   8.211  21.977  0.00  0.00    +0.000 OA
ENDBRANCH  10  12
ENDBRANCH   2   5
BRANCH   1  15
ATOM     15  C   UNL     1       4.869   5.018  19.259  0.00  0.00    +0.000 C 
BRANCH  15  16
ATOM     16  C   UNL     1       4.257   3.850  18.483  0.00  0.00    +0.000 C 
BRANCH  16  17
ATOM     17  S   UNL     1       3.226   2.797  19.578  0.00  0.00    +0.000 S 
BRANCH  17  19
ATOM     18  C   UNL     1       0.623   2.058  18.932  0.00  0.00    +0.000 C 
ATOM     19  C   UNL     1       1.507   3.299  19.095  0.00  0.00    +0.000 C 
ATOM     20  C   UNL     1       1.515   4.133  17.809  0.00  0.00    +0.000 C 
ATOM     21  C   UNL     1       0.946   4.160  20.241  0.00  0.00    +0.000 C 
ENDBRANCH  17  19
ENDBRANCH  16  17
ENDBRANCH  15  16
ENDBRANCH   1  15
TORSDOF 6
ENDMDL
MODEL 2
REMARK VINA RESULT:      -6.4      0.083      1.198
REMARK  Name = 
REMARK  9 active torsions:
REMARK  status: ('A' for Active; 'I' for Inactive)
REMARK    1  A    between atoms: C_1  and  C_2
REMARK    2  A    between atoms: C_2  and  C_3
REMARK    3  A    between atoms: C_2  and  C_4
REMARK    4  A    between atoms: C_2  and  S_5
REMARK    5  A    between atoms: S_5  and  C_6
REMARK    6  A    between atoms: C_6  and  C_7
REMARK    7  A    between atoms: C_7  and  N_8
REMARK    8  A    between atoms: C_9  and  C_11
REMARK    9  A    between atoms: C_16  and  N_17
REMARK                            x       y       z     vdW  Elec       q    Type
REMARK                         _______ _______ _______ _____ _____    ______ ____
ROOT
ATOM      1  N   UNL     1       3.848   6.109  19.489  0.00  0.00    +0.000 N 
ATOM      2  C   UNL     1       3.463   6.976  18.486  0.00  0.00    +0.000 C 
ATOM      3  O   UNL     1       3.943   6.965  17.357  0.00  0.00    +0.000 OA
ATOM      4  H   UNL     1       3.220   5.954  20.268  0.00  0.00    +0.000 HD
ENDROOT
BRANCH   2   5
ATOM      5  C   UNL     1       2.392   7.952  18.821  0.00  0.00    +0.000 A 
ATOM      6  C   UNL     1       1.834   8.792  17.847  0.00  0.00    +0.000 A 
ATOM      7  C   UNL     1       0.798   9.672  18.180  0.00  0.00    +0.000 A 
ATOM      8  C   UNL     1       0.299   9.720  19.489  0.00  0.00    +0.000 A 
ATOM      9 CL   UNL     1      -0.945  10.865  19.825  0.00  0.00    +0.000 Cl
ATOM     10  C   UNL     1       0.851   8.867  20.444  0.00  0.00    +0.000 A 
ATOM     11  C   UNL     1       1.895   7.983  20.129  0.00  0.00    +0.000 A 
BRANCH  10  12
ATOM     12  N   UNL     1       0.358   8.868  21.804  0.00  0.00    +0.000 N 
ATOM     13  O   UNL     1      -0.677   8.232  22.037  0.00  0.00    +0.000 OA
ATOM     14  O   UNL     1       1.039   9.474  22.642  0.00  0.00    +0.000 OA
ENDBRANCH  10  12
ENDBRANCH   2   5
BRANCH   1  15
ATOM     15  C   UNL     1       4.811   5.056  19.207  0.00  0.00    +0.000 C 
BRANCH  15  16
ATOM     16  C   UNL     1       4.218   3.894  18.407  0.00  0.00    +0.000 C 
BRANCH  16  17
ATOM     17  S   UNL     1       3.208   2.798  19.480  0.00  0.00    +0.000 S 
BRANCH  17  19
ATOM     18  C   UNL     1       1.469   4.161  17.790  0.00  0.00    +0.000 C 
ATOM     19  C   UNL     1       1.483   3.361  19.097  0.00  0.00    +0.000 C 
ATOM     20  C   UNL     1       0.904   4.191  20.248  0.00  0.00    +0.000 C 
ATOM     21  C   UNL     1       0.623   2.098  18.914  0.00  0.00    +0.000 C 
ENDBRANCH  17  19
ENDBRANCH  16  17
ENDBRANCH  15  16
ENDBRANCH   1  15
TORSDOF 6
ENDMDL
MODEL 3
REMARK VINA RESULT:      -6.3      0.657      1.226
REMARK  Name = 
REMARK  9 active torsions:
REMARK  status: ('A' for Active; 'I' for Inactive)
REMARK    1  A    between atoms: C_1  and  C_2
REMARK    2  A    between atoms: C_2  and  C_3
REMARK    3  A    between atoms: C_2  and  C_4
REMARK    4  A    between atoms: C_2  and  S_5
REMARK    5  A    between atoms: S_5  and  C_6
REMARK    6  A    between atoms: C_6  and  C_7
REMARK    7  A    between atoms: C_7  and  N_8
REMARK    8  A    between atoms: C_9  and  C_11
REMARK    9  A    between atoms: C_16  and  N_17
REMARK                            x       y       z     vdW  Elec       q    Type
REMARK                         _______ _______ _______ _____ _____    ______ ____
ROOT
ATOM      1  N   UNL     1       4.122   5.962  19.472  0.00  0.00    +0.000 N 
ATOM      2  C   UNL     1       3.642   6.706  18.414  0.00  0.00    +0.000 C 
ATOM      3  O   UNL     1       4.014   6.558  17.254  0.00  0.00    +0.000 OA
ATOM      4  H   UNL     1       3.571   5.906  20.320  0.00  0.00    +0.000 HD
ENDROOT
BRANCH   2   5
ATOM      5  C   UNL     1       2.604   7.723  18.728  0.00  0.00    +0.000 A 
ATOM      6  C   UNL     1       2.105   8.591  17.748  0.00  0.00    +0.000 A 
ATOM      7  C   UNL     1       1.097   9.511  18.061  0.00  0.00    +0.000 A 
ATOM      8  C   UNL     1       0.567   9.570  19.357  0.00  0.00    +0.000 A 
ATOM      9 CL   UNL     1      -0.638  10.763  19.669  0.00  0.00    +0.000 Cl
ATOM     10  C   UNL     1       1.059   8.689  20.319  0.00  0.00    +0.000 A 
ATOM     11  C   UNL     1       2.074   7.765  20.024  0.00  0.00    +0.000 A 
BRANCH  10  12
ATOM     12  N   UNL     1       0.531   8.701  21.666  0.00  0.00    +0.000 N 
ATOM     13  O   UNL     1       1.179   9.307  22.528  0.00  0.00    +0.000 OA
ATOM     14  O   UNL     1      -0.557   8.137  21.842  0.00  0.00    +0.000 OA
ENDBRANCH  10  12
ENDBRANCH   2   5
BRANCH   1  15
ATOM     15  C   UNL     1       5.059   4.876  19.229  0.00  0.00    +0.000 C 
BRANCH  15  16
ATOM     16  C   UNL     1       4.457   3.492  19.481  0.00  0.00    +0.000 C 
BRANCH  16  17
ATOM     17  S   UNL     1       2.710   3.619  20.031  0.00  0.00    +0.000 S 
BRANCH  17  19
ATOM     18  C   UNL     1       1.394   4.234  17.659  0.00  0.00    +0.000 C 
ATOM     19  C   UNL     1       1.786   3.038  18.532  0.00  0.00    +0.000 C 
ATOM     20  C   UNL     1       0.548   2.225  18.927  0.00  0.00    +0.000 C 
ATOM     21  C   UNL     1       2.741   2.133  17.733  0.00  0.00    +0.000 C 
ENDBRANCH  17  19
ENDBRANCH  16  17
ENDBRANCH  15  16
ENDBRANCH   1  15
TORSDOF 6
ENDMDL
MODEL 4
REMARK VINA RESULT:      -6.3      0.972      1.186
REMARK  Name = 
REMARK  9 active torsions:
REMARK  status: ('A' for Active; 'I' for Inactive)
REMARK    1  A    between atoms: C_1  and  C_2
REMARK    2  A    between atoms: C_2  and  C_3
REMARK    3  A    between atoms: C_2  and  C_4
REMARK    4  A    between atoms: C_2  and  S_5
REMARK    5  A    between atoms: S_5  and  C_6
REMARK    6  A    between atoms: C_6  and  C_7
REMARK    7  A    between atoms: C_7  and  N_8
REMARK    8  A    between atoms: C_9  and  C_11
REMARK    9  A    between atoms: C_16  and  N_17
REMARK                            x       y       z     vdW  Elec       q    Type
REMARK                         _______ _______ _______ _____ _____    ______ ____
ROOT
ATOM      1  N   UNL     1       2.838   5.659  17.970  0.00  0.00    +0.000 N 
ATOM      2  C   UNL     1       3.315   6.955  17.964  0.00  0.00    +0.000 C 
ATOM      3  O   UNL     1       4.423   7.269  17.543  0.00  0.00    +0.000 OA
ATOM      4  H   UNL     1       1.838   5.507  18.026  0.00  0.00    +0.000 HD
ENDROOT
BRANCH   2   5
ATOM      5  C   UNL     1       2.402   8.005  18.489  0.00  0.00    +0.000 A 
ATOM      6  C   UNL     1       1.940   9.049  17.675  0.00  0.00    +0.000 A 
ATOM      7  C   UNL     1       1.048  10.001  18.183  0.00  0.00    +0.000 A 
ATOM      8  C   UNL     1       0.598   9.918  19.508  0.00  0.00    +0.000 A 
ATOM      9 CL   UNL     1      -0.463  11.157  20.066  0.00  0.00    +0.000 Cl
ATOM     10  C   UNL     1       1.052   8.865  20.301  0.00  0.00    +0.000 A 
ATOM     11  C   UNL     1       1.951   7.906  19.811  0.00  0.00    +0.000 A 
BRANCH  10  12
ATOM     12  N   UNL     1       0.603   8.729  21.670  0.00  0.00    +0.000 N 
ATOM     13  O   UNL     1       1.294   9.251  22.552  0.00  0.00    +0.000 OA
ATOM     14  O   UNL     1      -0.468   8.132  21.846  0.00  0.00    +0.000 OA
ENDBRANCH  10  12
ENDBRANCH   2   5
BRANCH   1  15
ATOM     15  C   UNL     1       3.628   4.593  17.374  0.00  0.00    +0.000 C 
BRANCH  15  16
ATOM     16  C   UNL     1       3.359   3.221  17.996  0.00  0.00    +0.000 C 
BRANCH  16  17
ATOM     17  S   UNL     1       3.460   3.293  19.828  0.00  0.00    +0.000 S 
BRANCH  17  19
ATOM     18  C   UNL     1       0.869   2.465  19.249  0.00  0.00    +0.000 C 
ATOM     19  C   UNL     1       1.675   3.207  20.321  0.00  0.00    +0.000 C 
ATOM     20  C   UNL     1       1.099   4.607  20.560  0.00  0.00    +0.000 C 
ATOM     21  C   UNL     1       1.604   2.409  21.635  0.00  0.00    +0.000 C 
ENDBRANCH  17  19
ENDBRANCH  16  17
ENDBRANCH  15  16
ENDBRANCH   1  15
TORSDOF 6
ENDMDL
MODEL 5
REMARK VINA RESULT:      -6.2      1.962      3.342
REMARK  Name = 
REMARK  9 active torsions:
REMARK  status: ('A' for Active; 'I' for Inactive)
REMARK    1  A    between atoms: C_1  and  C_2
REMARK    2  A    between atoms: C_2  and  C_3
REMARK    3  A    between atoms: C_2  and  C_4
REMARK    4  A    between atoms: C_2  and  S_5
REMARK    5  A    between atoms: S_5  and  C_6
REMARK    6  A    between atoms: C_6  and  C_7
REMARK    7  A    between atoms: C_7  and  N_8
REMARK    8  A    between atoms: C_9  and  C_11
REMARK    9  A    between atoms: C_16  and  N_17
REMARK                            x       y       z     vdW  Elec       q    Type
REMARK                         _______ _______ _______ _____ _____    ______ ____
ROOT
ATOM      1  N   UNL     1       3.495   5.549  19.808  0.00  0.00    +0.000 N 
ATOM      2  C   UNL     1       2.551   6.070  18.946  0.00  0.00    +0.000 C 
ATOM      3  O   UNL     1       2.112   5.465  17.973  0.00  0.00    +0.000 OA
ATOM      4  H   UNL     1       3.579   5.945  20.737  0.00  0.00    +0.000 HD
ENDROOT
BRANCH   2   5
ATOM      5  C   UNL     1       2.045   7.434  19.253  0.00  0.00    +0.000 A 
ATOM      6  C   UNL     1       1.966   8.426  18.267  0.00  0.00    +0.000 A 
ATOM      7  C   UNL     1       1.446   9.690  18.573  0.00  0.00    +0.000 A 
ATOM      8  C   UNL     1       0.990   9.977  19.867  0.00  0.00    +0.000 A 
ATOM      9 CL   UNL     1       0.409  11.571  20.170  0.00  0.00    +0.000 Cl
ATOM     10  C   UNL     1       1.059   8.975  20.834  0.00  0.00    +0.000 A 
ATOM     11  C   UNL     1       1.583   7.705  20.547  0.00  0.00    +0.000 A 
BRANCH  10  12
ATOM     12  N   UNL     1       0.585   9.218  22.180  0.00  0.00    +0.000 N 
ATOM     13  O   UNL     1      -0.603   8.975  22.420  0.00  0.00    +0.000 OA
ATOM     14  O   UNL     1       1.424   9.613  23.002  0.00  0.00    +0.000 OA
ENDBRANCH  10  12
ENDBRANCH   2   5
BRANCH   1  15
ATOM     15  C   UNL     1       3.957   4.181  19.637  0.00  0.00    +0.000 C 
BRANCH  15  16
ATOM     16  C   UNL     1       5.236   4.075  18.803  0.00  0.00    +0.000 C 
BRANCH  16  17
ATOM     17  S   UNL     1       6.362   5.487  19.136  0.00  0.00    +0.000 S 
BRANCH  17  19
ATOM     18  C   UNL     1       7.216   5.028  16.529  0.00  0.00    +0.000 C 
ATOM     19  C   UNL     1       6.678   6.144  17.431  0.00  0.00    +0.000 C 
ATOM     20  C   UNL     1       7.648   7.329  17.466  0.00  0.00    +0.000 C 
ATOM     21  C   UNL     1       5.327   6.624  16.871  0.00  0.00    +0.000 C 
ENDBRANCH  17  19
ENDBRANCH  16  17
ENDBRANCH  15  16
ENDBRANCH   1  15
TORSDOF 6
ENDMDL
MODEL 6
REMARK VINA RESULT:      -6.0      4.115      6.594
REMARK  Name = 
REMARK  9 active torsions:
REMARK  status: ('A' for Active; 'I' for Inactive)
REMARK    1  A    between atoms: C_1  and  C_2
REMARK    2  A    between atoms: C_2  and  C_3
REMARK    3  A    between atoms: C_2  and  C_4
REMARK    4  A    between atoms: C_2  and  S_5
REMARK    5  A    between atoms: S_5  and  C_6
REMARK    6  A    between atoms: C_6  and  C_7
REMARK    7  A    between atoms: C_7  and  N_8
REMARK    8  A    between atoms: C_9  and  C_11
REMARK    9  A    between atoms: C_16  and  N_17
REMARK                            x       y       z     vdW  Elec       q    Type
REMARK                         _______ _______ _______ _____ _____    ______ ____
ROOT
ATOM      1  N   UNL     1       1.526   7.714  21.319  0.00  0.00    +0.000 N 
ATOM      2  C   UNL     1       1.922   7.437  20.026  0.00  0.00    +0.000 C 
ATOM      3  O   UNL     1       2.085   8.297  19.166  0.00  0.00    +0.000 OA
ATOM      4  H   UNL     1       1.712   7.031  22.044  0.00  0.00    +0.000 HD
ENDROOT
BRANCH   2   5
ATOM      5  C   UNL     1       2.173   6.010  19.695  0.00  0.00    +0.000 A 
ATOM      6  C   UNL     1       2.532   5.608  18.402  0.00  0.00    +0.000 A 
ATOM      7  C   UNL     1       2.804   4.263  18.127  0.00  0.00    +0.000 A 
ATOM      8  C   UNL     1       2.729   3.300  19.143  0.00  0.00    +0.000 A 
ATOM      9 CL   UNL     1       3.034   1.660  18.709  0.00  0.00    +0.000 Cl
ATOM     10  C   UNL     1       2.388   3.716  20.429  0.00  0.00    +0.000 A 
ATOM     11  C   UNL     1       2.105   5.059  20.721  0.00  0.00    +0.000 A 
BRANCH  10  12
ATOM     12  N   UNL     1       2.314   2.762  21.515  0.00  0.00    +0.000 N 
ATOM     13  O   UNL     1       3.369   2.233  21.883  0.00  0.00    +0.000 OA
ATOM     14  O   UNL     1       1.198   2.581  22.022  0.00  0.00    +0.000 OA
ENDBRANCH  10  12
ENDBRANCH   2   5
BRANCH   1  15
ATOM     15  C   UNL     1       1.366   9.095  21.749  0.00  0.00    +0.000 C 
BRANCH  15  16
ATOM     16  C   UNL     1      -0.075   9.598  21.642  0.00  0.00    +0.000 C 
BRANCH  16  17
ATOM     17  S   UNL     1      -0.125  11.420  21.414  0.00  0.00    +0.000 S 
BRANCH  17  19
ATOM     18  C   UNL     1       1.209  11.690  18.988  0.00  0.00    +0.000 C 
ATOM     19  C   UNL     1      -0.205  11.579  19.569  0.00  0.00    +0.000 C 
ATOM     20  C   UNL     1      -1.057  12.784  19.154  0.00  0.00    +0.000 C 
ATOM     21  C   UNL     1      -0.862  10.296  19.029  0.00  0.00    +0.000 C 
ENDBRANCH  17  19
ENDBRANCH  16  17
ENDBRANCH  15  16
ENDBRANCH   1  15
TORSDOF 6
ENDMDL
MODEL 7
REMARK VINA RESULT:      -6.0      5.234      7.616
REMARK  Name = 
REMARK  9 active torsions:
REMARK  status: ('A' for Active; 'I' for Inactive)
REMARK    1  A    between atoms: C_1  and  C_2
REMARK    2  A    between atoms: C_2  and  C_3
REMARK    3  A    between atoms: C_2  and  C_4
REMARK    4  A    between atoms: C_2  and  S_5
REMARK    5  A    between atoms: S_5  and  C_6
REMARK    6  A    between atoms: C_6  and  C_7
REMARK    7  A    between atoms: C_7  and  N_8
REMARK    8  A    between atoms: C_9  and  C_11
REMARK    9  A    between atoms: C_16  and  N_17
REMARK                            x       y       z     vdW  Elec       q    Type
REMARK                         _______ _______ _______ _____ _____    ______ ____
ROOT
ATOM      1  N   UNL     1       6.812   7.024  18.086  0.00  0.00    +0.000 N 
ATOM      2  C   UNL     1       5.837   6.621  17.195  0.00  0.00    +0.000 C 
ATOM      3  O   UNL     1       5.874   6.861  15.993  0.00  0.00    +0.000 OA
ATOM      4  H   UNL     1       6.891   6.543  18.974  0.00  0.00    +0.000 HD
ENDROOT
BRANCH   2   5
ATOM      5  C   UNL     1       4.702   5.841  17.755  0.00  0.00    +0.000 A 
ATOM      6  C   UNL     1       3.401   6.361  17.791  0.00  0.00    +0.000 A 
ATOM      7  C   UNL     1       2.343   5.589  18.285  0.00  0.00    +0.000 A 
ATOM      8  C   UNL     1       2.568   4.282  18.740  0.00  0.00    +0.000 A 
ATOM      9 CL   UNL     1       1.218   3.418  19.375  0.00  0.00    +0.000 Cl
ATOM     10  C   UNL     1       3.864   3.771  18.682  0.00  0.00    +0.000 A 
ATOM     11  C   UNL     1       4.938   4.533  18.197  0.00  0.00    +0.000 A 
BRANCH  10  12
ATOM     12  N   UNL     1       4.143   2.422  19.126  0.00  0.00    +0.000 N 
ATOM     13  O   UNL     1       3.697   1.493  18.443  0.00  0.00    +0.000 OA
ATOM     14  O   UNL     1       4.848   2.304  20.138  0.00  0.00    +0.000 OA
ENDBRANCH  10  12
ENDBRANCH   2   5
BRANCH   1  15
ATOM     15  C   UNL     1       8.006   7.697  17.599  0.00  0.00    +0.000 C 
BRANCH  15  16
ATOM     16  C   UNL     1       7.935   9.221  17.725  0.00  0.00    +0.000 C 
BRANCH  16  17
ATOM     17  S   UNL     1       9.066   9.829  19.036  0.00  0.00    +0.000 S 
BRANCH  17  19
ATOM     18  C   UNL     1       8.280  12.067  17.583  0.00  0.00    +0.000 C 
ATOM     19  C   UNL     1       9.420  11.561  18.473  0.00  0.00    +0.000 C 
ATOM     20  C   UNL     1      10.761  11.639  17.735  0.00  0.00    +0.000 C 
ATOM     21  C   UNL     1       9.494  12.442  19.733  0.00  0.00    +0.000 C 
ENDBRANCH  17  19
ENDBRANCH  16  17
ENDBRANCH  15  16
ENDBRANCH   1  15
TORSDOF 6
ENDMDL
MODEL 8
REMARK VINA RESULT:      -6.0      5.235      7.630
REMARK  Name = 
REMARK  9 active torsions:
REMARK  status: ('A' for Active; 'I' for Inactive)
REMARK    1  A    between atoms: C_1  and  C_2
REMARK    2  A    between atoms: C_2  and  C_3
REMARK    3  A    between atoms: C_2  and  C_4
REMARK    4  A    between atoms: C_2  and  S_5
REMARK    5  A    between atoms: S_5  and  C_6
REMARK    6  A    between atoms: C_6  and  C_7
REMARK    7  A    between atoms: C_7  and  N_8
REMARK    8  A    between atoms: C_9  and  C_11
REMARK    9  A    between atoms: C_16  and  N_17
REMARK                            x       y       z     vdW  Elec       q    Type
REMARK                         _______ _______ _______ _____ _____    ______ ____
ROOT
ATOM      1  N   UNL     1       6.705   7.104  18.003  0.00  0.00    +0.000 N 
ATOM      2  C   UNL     1       5.761   6.584  17.140  0.00  0.00    +0.000 C 
ATOM      3  O   UNL     1       5.805   6.719  15.922  0.00  0.00    +0.000 OA
ATOM      4  H   UNL     1       6.791   6.706  18.930  0.00  0.00    +0.000 HD
ENDROOT
BRANCH   2   5
ATOM      5  C   UNL     1       4.651   5.808  17.754  0.00  0.00    +0.000 A 
ATOM      6  C   UNL     1       3.360   6.340  17.870  0.00  0.00    +0.000 A 
ATOM      7  C   UNL     1       2.322   5.573  18.413  0.00  0.00    +0.000 A 
ATOM      8  C   UNL     1       2.559   4.259  18.840  0.00  0.00    +0.000 A 
ATOM      9 CL   UNL     1       1.238   3.400  19.539  0.00  0.00    +0.000 Cl
ATOM     10  C   UNL     1       3.844   3.736  18.703  0.00  0.00    +0.000 A 
ATOM     11  C   UNL     1       4.897   4.493  18.167  0.00  0.00    +0.000 A 
BRANCH  10  12
ATOM     12  N   UNL     1       4.134   2.379  19.115  0.00  0.00    +0.000 N 
ATOM     13  O   UNL     1       4.773   2.223  20.162  0.00  0.00    +0.000 OA
ATOM     14  O   UNL     1       3.678   1.473  18.403  0.00  0.00    +0.000 OA
ENDBRANCH  10  12
ENDBRANCH   2   5
BRANCH   1  15
ATOM     15  C   UNL     1       7.877   7.782  17.471  0.00  0.00    +0.000 C 
BRANCH  15  16
ATOM     16  C   UNL     1       7.865   9.293  17.716  0.00  0.00    +0.000 C 
BRANCH  16  17
ATOM     17  S   UNL     1       9.106   9.767  18.984  0.00  0.00    +0.000 S 
BRANCH  17  19
ATOM     18  C   UNL     1      10.783  11.641  17.795  0.00  0.00    +0.000 C 
ATOM     19  C   UNL     1       9.452  11.536  18.546  0.00  0.00    +0.000 C 
ATOM     20  C   UNL     1       9.463  12.423  19.796  0.00  0.00    +0.000 C 
ATOM     21  C   UNL     1       8.319  12.004  17.615  0.00  0.00    +0.000 C 
ENDBRANCH  17  19
ENDBRANCH  16  17
ENDBRANCH  15  16
ENDBRANCH   1  15
TORSDOF 6
ENDMDL
MODEL 9
REMARK VINA RESULT:      -6.0      3.877      6.880
REMARK  Name = 
REMARK  9 active torsions:
REMARK  status: ('A' for Active; 'I' for Inactive)
REMARK    1  A    between atoms: C_1  and  C_2
REMARK    2  A    between atoms: C_2  and  C_3
REMARK    3  A    between atoms: C_2  and  C_4
REMARK    4  A    between atoms: C_2  and  S_5
REMARK    5  A    between atoms: S_5  and  C_6
REMARK    6  A    between atoms: C_6  and  C_7
REMARK    7  A    between atoms: C_7  and  N_8
REMARK    8  A    between atoms: C_9  and  C_11
REMARK    9  A    between atoms: C_16  and  N_17
REMARK                            x       y       z     vdW  Elec       q    Type
REMARK                         _______ _______ _______ _____ _____    ______ ____
ROOT
ATOM      1  N   UNL     1       2.362   6.766  19.959  0.00  0.00    +0.000 N 
ATOM      2  C   UNL     1       2.813   5.463  20.034  0.00  0.00    +0.000 C 
ATOM      3  O   UNL     1       2.553   4.706  20.963  0.00  0.00    +0.000 OA
ATOM      4  H   UNL     1       2.339   7.223  19.055  0.00  0.00    +0.000 HD
ENDROOT
BRANCH   2   5
ATOM      5  C   UNL     1       3.645   4.977  18.901  0.00  0.00    +0.000 A 
ATOM      6  C   UNL     1       3.084   4.265  17.832  0.00  0.00    +0.000 A 
ATOM      7  C   UNL     1       3.882   3.856  16.757  0.00  0.00    +0.000 A 
ATOM      8  C   UNL     1       5.250   4.160  16.731  0.00  0.00    +0.000 A 
ATOM      9 CL   UNL     1       6.169   3.578  15.393  0.00  0.00    +0.000 Cl
ATOM     10  C   UNL     1       5.791   4.884  17.792  0.00  0.00    +0.000 A 
ATOM     11  C   UNL     1       5.008   5.297  18.881  0.00  0.00    +0.000 A 
BRANCH  10  12
ATOM     12  N   UNL     1       7.195   5.237  17.802  0.00  0.00    +0.000 N 
ATOM     13  O   UNL     1       7.538   6.232  17.154  0.00  0.00    +0.000 OA
ATOM     14  O   UNL     1       7.940   4.533  18.498  0.00  0.00    +0.000 OA
ENDBRANCH  10  12
ENDBRANCH   2   5
BRANCH   1  15
ATOM     15  C   UNL     1       1.455   7.279  20.974  0.00  0.00    +0.000 C 
BRANCH  15  16
ATOM     16  C   UNL     1       1.469   8.806  21.080  0.00  0.00    +0.000 C 
BRANCH  16  17
ATOM     17  S   UNL     1      -0.195   9.506  20.745  0.00  0.00    +0.000 S 
BRANCH  17  19
ATOM     18  C   UNL     1      -1.240  10.558  18.391  0.00  0.00    +0.000 C 
ATOM     19  C   UNL     1       0.081  10.422  19.157  0.00  0.00    +0.000 C 
ATOM     20  C   UNL     1       1.139   9.727  18.294  0.00  0.00    +0.000 C 
ATOM     21  C   UNL     1       0.586  11.829  19.525  0.00  0.00    +0.000 C 
ENDBRANCH  17  19
ENDBRANCH  16  17
ENDBRANCH  15  16
ENDBRANCH   1  15
TORSDOF 6
ENDMDL
