MODEL 1
REMARK VINA RESULT:      -8.5      0.000      0.000
REMARK  Name = 
REMARK  4 active torsions:
REMARK  status: ('A' for Active; 'I' for Inactive)
REMARK    1  A    between atoms: C_2  and  C_19
REMARK    2  A    between atoms: N_3  and  C_4
REMARK    3  A    between atoms: N_11  and  C_12
REMARK    4  A    between atoms: C_12  and  C_13
REMARK                            x       y       z     vdW  Elec       q    Type
REMARK                         _______ _______ _______ _____ _____    ______ ____
ROOT
ATOM      1  C   UNL     1       2.292   6.385  20.189  0.00  0.00    +0.000 C 
ATOM      2  C   UNL     1       2.157   4.994  20.843  0.00  0.00    +0.000 C 
ATOM      3  C   UNL     1       2.559   3.856  19.879  0.00  0.00    +0.000 C 
ATOM      4  C   UNL     1       1.412   3.356  18.975  0.00  0.00    +0.000 C 
ATOM      5  C   UNL     1       1.602   4.077  17.640  0.00  0.00    +0.000 C 
ATOM      6  C   UNL     1       2.628   5.151  17.988  0.00  0.00    +0.000 C 
ATOM      7  C   UNL     1       1.890   6.320  18.710  0.00  0.00    +0.000 C 
ATOM      8  N   UNL     1       3.532   4.446  18.940  0.00  0.00    +0.000 NA
ENDROOT
BRANCH   1  11
ATOM      9  O   UNL     1       1.606   9.000  19.236  0.00  0.00    +0.000 OA
ATOM     10  C   UNL     1       1.327   8.675  20.378  0.00  0.00    +0.000 C 
ATOM     11  N   UNL     1       1.651   7.460  20.939  0.00  0.00    +0.000 N 
ATOM     12  H   UNL     1       1.277   7.223  21.841  0.00  0.00    +0.000 HD
BRANCH  10  13
ATOM     13  C   UNL     1       0.532   9.601  21.218  0.00  0.00    +0.000 A 
ATOM     14  C   UNL     1      -0.092   9.188  22.402  0.00  0.00    +0.000 A 
ATOM     15  C   UNL     1      -0.806  10.112  23.170  0.00  0.00    +0.000 A 
ATOM     16  C   UNL     1      -0.899  11.441  22.756  0.00  0.00    +0.000 A 
ATOM     17  C   UNL     1      -0.272  11.842  21.578  0.00  0.00    +0.000 A 
ATOM     18  F   UNL     1      -0.360  13.118  21.191  0.00  0.00    +0.000 F 
ATOM     19  C   UNL     1       0.445  10.942  20.808  0.00  0.00    +0.000 A 
ENDBRANCH  10  13
ENDBRANCH   1  11
BRANCH   8  20
ATOM     20  C   UNL     1       4.397   3.430  18.315  0.00  0.00    +0.000 C 
BRANCH  20  21
ATOM     21  C   UNL     1       5.326   4.013  17.264  0.00  0.00    +0.000 A 
ATOM     22  C   UNL     1       5.168   3.671  15.910  0.00  0.00    +0.000 A 
ATOM     23  C   UNL     1       6.023   4.195  14.938  0.00  0.00    +0.000 A 
ATOM     24  C   UNL     1       7.045   5.067  15.306  0.00  0.00    +0.000 A 
ATOM     25  C   UNL     1       7.215   5.412  16.647  0.00  0.00    +0.000 A 
ATOM     26  C   UNL     1       6.363   4.886  17.622  0.00  0.00    +0.000 A 
ENDBRANCH  20  21
ENDBRANCH   8  20
TORSDOF 4
ENDMDL
MODEL 2
REMARK VINA RESULT:      -8.3      5.450      7.076
REMARK  Name = 
REMARK  4 active torsions:
REMARK  status: ('A' for Active; 'I' for Inactive)
REMARK    1  A    between atoms: C_2  and  C_19
REMARK    2  A    between atoms: N_3  and  C_4
REMARK    3  A    between atoms: N_11  and  C_12
REMARK    4  A    between atoms: C_12  and  C_13
REMARK                            x       y       z     vdW  Elec       q    Type
REMARK                         _______ _______ _______ _____ _____    ______ ____
ROOT
ATOM      1  C   UNL     1       7.786   7.226  18.022  0.00  0.00    +0.000 C 
ATOM      2  C   UNL     1       7.792   5.861  18.743  0.00  0.00    +0.000 C 
ATOM      3  C   UNL     1       6.701   4.912  18.202  0.00  0.00    +0.000 C 
ATOM      4  C   UNL     1       5.324   5.075  18.881  0.00  0.00    +0.000 C 
ATOM      5  C   UNL     1       4.511   5.971  17.945  0.00  0.00    +0.000 C 
ATOM      6  C   UNL     1       5.576   6.498  16.988  0.00  0.00    +0.000 C 
ATOM      7  C   UNL     1       6.348   7.652  17.700  0.00  0.00    +0.000 C 
ATOM      8  N   UNL     1       6.467   5.319  16.803  0.00  0.00    +0.000 NA
ENDROOT
BRANCH   1  11
ATOM      9  O   UNL     1       8.069   9.971  17.250  0.00  0.00    +0.000 OA
ATOM     10  C   UNL     1       8.625   9.560  18.255  0.00  0.00    +0.000 C 
ATOM     11  N   UNL     1       8.583   8.252  18.683  0.00  0.00    +0.000 N 
ATOM     12  H   UNL     1       8.963   8.021  19.585  0.00  0.00    +0.000 HD
BRANCH  10  13
ATOM     13  C   UNL     1       9.345  10.519  19.125  0.00  0.00    +0.000 A 
ATOM     14  C   UNL     1       9.053  10.658  20.488  0.00  0.00    +0.000 A 
ATOM     15  C   UNL     1       9.784  11.559  21.267  0.00  0.00    +0.000 A 
ATOM     16  C   UNL     1      10.799  12.320  20.687  0.00  0.00    +0.000 A 
ATOM     17  C   UNL     1      11.084  12.173  19.331  0.00  0.00    +0.000 A 
ATOM     18  F   UNL     1      12.061  12.901  18.784  0.00  0.00    +0.000 F 
ATOM     19  C   UNL     1      10.374  11.281  18.545  0.00  0.00    +0.000 A 
ENDBRANCH  10  13
ENDBRANCH   1  11
BRANCH   8  20
ATOM     20  C   UNL     1       5.880   4.237  15.993  0.00  0.00    +0.000 C 
BRANCH  20  21
ATOM     21  C   UNL     1       6.345   4.264  14.547  0.00  0.00    +0.000 A 
ATOM     22  C   UNL     1       7.369   5.139  14.148  0.00  0.00    +0.000 A 
ATOM     23  C   UNL     1       7.797   5.176  12.819  0.00  0.00    +0.000 A 
ATOM     24  C   UNL     1       7.208   4.339  11.874  0.00  0.00    +0.000 A 
ATOM     25  C   UNL     1       6.188   3.469  12.256  0.00  0.00    +0.000 A 
ATOM     26  C   UNL     1       5.757   3.432  13.585  0.00  0.00    +0.000 A 
ENDBRANCH  20  21
ENDBRANCH   8  20
TORSDOF 4
ENDMDL
MODEL 3
REMARK VINA RESULT:      -8.3      3.958      8.574
REMARK  Name = 
REMARK  4 active torsions:
REMARK  status: ('A' for Active; 'I' for Inactive)
REMARK    1  A    between atoms: C_2  and  C_19
REMARK    2  A    between atoms: N_3  and  C_4
REMARK    3  A    between atoms: N_11  and  C_12
REMARK    4  A    between atoms: C_12  and  C_13
REMARK                            x       y       z     vdW  Elec       q    Type
REMARK                         _______ _______ _______ _____ _____    ______ ____
ROOT
ATOM      1  C   UNL     1       1.986   8.692  18.400  0.00  0.00    +0.000 C 
ATOM      2  C   UNL     1       1.463   8.489  19.838  0.00  0.00    +0.000 C 
ATOM      3  C   UNL     1       0.429   9.564  20.238  0.00  0.00    +0.000 C 
ATOM      4  C   UNL     1       1.048  10.852  20.825  0.00  0.00    +0.000 C 
ATOM      5  C   UNL     1       1.103  11.843  19.662  0.00  0.00    +0.000 C 
ATOM      6  C   UNL     1       0.818  10.953  18.456  0.00  0.00    +0.000 C 
ATOM      7  C   UNL     1       2.127  10.188  18.090  0.00  0.00    +0.000 C 
ATOM      8  N   UNL     1      -0.204  10.005  18.980  0.00  0.00    +0.000 NA
ENDROOT
BRANCH   1  11
ATOM      9  O   UNL     1       2.100   5.872  17.903  0.00  0.00    +0.000 OA
ATOM     10  C   UNL     1       3.113   6.547  17.819  0.00  0.00    +0.000 C 
ATOM     11  N   UNL     1       3.167   7.898  18.079  0.00  0.00    +0.000 N 
ATOM     12  H   UNL     1       4.009   8.403  17.866  0.00  0.00    +0.000 HD
BRANCH  10  13
ATOM     13  C   UNL     1       4.366   5.913  17.346  0.00  0.00    +0.000 A 
ATOM     14  C   UNL     1       4.407   4.591  16.884  0.00  0.00    +0.000 A 
ATOM     15  C   UNL     1       5.612   4.053  16.424  0.00  0.00    +0.000 A 
ATOM     16  C   UNL     1       6.770   4.829  16.427  0.00  0.00    +0.000 A 
ATOM     17  C   UNL     1       6.718   6.144  16.886  0.00  0.00    +0.000 A 
ATOM     18  F   UNL     1       7.831   6.884  16.881  0.00  0.00    +0.000 F 
ATOM     19  C   UNL     1       5.533   6.696  17.341  0.00  0.00    +0.000 A 
ENDBRANCH  10  13
ENDBRANCH   1  11
BRANCH   8  20
ATOM     20  C   UNL     1      -1.532  10.606  19.200  0.00  0.00    +0.000 C 
BRANCH  20  21
ATOM     21  C   UNL     1      -2.382  10.632  17.942  0.00  0.00    +0.000 A 
ATOM     22  C   UNL     1      -2.019   9.864  16.824  0.00  0.00    +0.000 A 
ATOM     23  C   UNL     1      -2.790   9.888  15.660  0.00  0.00    +0.000 A 
ATOM     24  C   UNL     1      -3.935  10.679  15.600  0.00  0.00    +0.000 A 
ATOM     25  C   UNL     1      -4.305  11.450  16.701  0.00  0.00    +0.000 A 
ATOM     26  C   UNL     1      -3.533  11.429  17.866  0.00  0.00    +0.000 A 
ENDBRANCH  20  21
ENDBRANCH   8  20
TORSDOF 4
ENDMDL
MODEL 4
REMARK VINA RESULT:      -8.3      1.336      1.668
REMARK  Name = 
REMARK  4 active torsions:
REMARK  status: ('A' for Active; 'I' for Inactive)
REMARK    1  A    between atoms: C_2  and  C_19
REMARK    2  A    between atoms: N_3  and  C_4
REMARK    3  A    between atoms: N_11  and  C_12
REMARK    4  A    between atoms: C_12  and  C_13
REMARK                            x       y       z     vdW  Elec       q    Type
REMARK                         _______ _______ _______ _____ _____    ______ ____
ROOT
ATOM      1  C   UNL     1       2.596   5.889  19.470  0.00  0.00    +0.000 C 
ATOM      2  C   UNL     1       3.263   4.787  20.321  0.00  0.00    +0.000 C 
ATOM      3  C   UNL     1       3.591   3.528  19.489  0.00  0.00    +0.000 C 
ATOM      4  C   UNL     1       2.431   2.514  19.388  0.00  0.00    +0.000 C 
ATOM      5  C   UNL     1       1.760   2.796  18.043  0.00  0.00    +0.000 C 
ATOM      6  C   UNL     1       2.376   4.132  17.641  0.00  0.00    +0.000 C 
ATOM      7  C   UNL     1       1.654   5.265  18.433  0.00  0.00    +0.000 C 
ATOM      8  N   UNL     1       3.786   3.998  18.104  0.00  0.00    +0.000 NA
ENDROOT
BRANCH   1  11
ATOM      9  O   UNL     1       2.029   8.559  18.599  0.00  0.00    +0.000 OA
ATOM     10  C   UNL     1       1.732   8.211  19.731  0.00  0.00    +0.000 C 
ATOM     11  N   UNL     1       2.001   6.966  20.253  0.00  0.00    +0.000 N 
ATOM     12  H   UNL     1       1.614   6.717  21.146  0.00  0.00    +0.000 HD
BRANCH  10  13
ATOM     13  C   UNL     1       0.975   9.144  20.598  0.00  0.00    +0.000 A 
ATOM     14  C   UNL     1       0.359  10.298  20.096  0.00  0.00    +0.000 A 
ATOM     15  C   UNL     1      -0.365  11.128  20.956  0.00  0.00    +0.000 A 
ATOM     16  C   UNL     1      -0.471  10.810  22.309  0.00  0.00    +0.000 A 
ATOM     17  C   UNL     1       0.142   9.658  22.798  0.00  0.00    +0.000 A 
ATOM     18  F   UNL     1       0.031   9.356  24.095  0.00  0.00    +0.000 F 
ATOM     19  C   UNL     1       0.860   8.821  21.961  0.00  0.00    +0.000 A 
ENDBRANCH  10  13
ENDBRANCH   1  11
BRANCH   8  20
ATOM     20  C   UNL     1       4.600   3.066  17.303  0.00  0.00    +0.000 C 
BRANCH  20  21
ATOM     21  C   UNL     1       5.494   3.776  16.301  0.00  0.00    +0.000 A 
ATOM     22  C   UNL     1       5.265   3.635  14.922  0.00  0.00    +0.000 A 
ATOM     23  C   UNL     1       6.086   4.276  13.993  0.00  0.00    +0.000 A 
ATOM     24  C   UNL     1       7.146   5.068  14.431  0.00  0.00    +0.000 A 
ATOM     25  C   UNL     1       7.387   5.213  15.796  0.00  0.00    +0.000 A 
ATOM     26  C   UNL     1       6.568   4.570  16.727  0.00  0.00    +0.000 A 
ENDBRANCH  20  21
ENDBRANCH   8  20
TORSDOF 4
ENDMDL
MODEL 5
REMARK VINA RESULT:      -8.2      4.471      7.122
REMARK  Name = 
REMARK  4 active torsions:
REMARK  status: ('A' for Active; 'I' for Inactive)
REMARK    1  A    between atoms: C_2  and  C_19
REMARK    2  A    between atoms: N_3  and  C_4
REMARK    3  A    between atoms: N_11  and  C_12
REMARK    4  A    between atoms: C_12  and  C_13
REMARK                            x       y       z     vdW  Elec       q    Type
REMARK                         _______ _______ _______ _____ _____    ______ ____
ROOT
ATOM      1  C   UNL     1       6.494   7.157  17.434  0.00  0.00    +0.000 C 
ATOM      2  C   UNL     1       5.169   7.062  16.648  0.00  0.00    +0.000 C 
ATOM      3  C   UNL     1       4.785   5.600  16.329  0.00  0.00    +0.000 C 
ATOM      4  C   UNL     1       5.404   5.052  15.025  0.00  0.00    +0.000 C 
ATOM      5  C   UNL     1       6.638   4.261  15.461  0.00  0.00    +0.000 C 
ATOM      6  C   UNL     1       6.802   4.683  16.917  0.00  0.00    +0.000 C 
ATOM      7  C   UNL     1       7.481   6.088  16.948  0.00  0.00    +0.000 C 
ATOM      8  N   UNL     1       5.394   4.780  17.394  0.00  0.00    +0.000 NA
ENDROOT
BRANCH   1  11
ATOM      9  O   UNL     1       8.760   8.025  18.958  0.00  0.00    +0.000 OA
ATOM     10  C   UNL     1       8.172   8.815  18.237  0.00  0.00    +0.000 C 
ATOM     11  N   UNL     1       7.051   8.503  17.501  0.00  0.00    +0.000 N 
ATOM     12  H   UNL     1       6.700   9.173  16.838  0.00  0.00    +0.000 HD
BRANCH  10  13
ATOM     13  C   UNL     1       8.713  10.184  18.073  0.00  0.00    +0.000 A 
ATOM     14  C   UNL     1      10.051  10.497  18.343  0.00  0.00    +0.000 A 
ATOM     15  C   UNL     1      10.514  11.800  18.144  0.00  0.00    +0.000 A 
ATOM     16  C   UNL     1       9.644  12.787  17.682  0.00  0.00    +0.000 A 
ATOM     17  C   UNL     1       8.315  12.466  17.414  0.00  0.00    +0.000 A 
ATOM     18  F   UNL     1       7.489  13.415  16.966  0.00  0.00    +0.000 F 
ATOM     19  C   UNL     1       7.840  11.179  17.600  0.00  0.00    +0.000 A 
ENDBRANCH  10  13
ENDBRANCH   1  11
BRANCH   8  20
ATOM     20  C   UNL     1       4.720   3.481  17.558  0.00  0.00    +0.000 C 
BRANCH  20  21
ATOM     21  C   UNL     1       3.436   3.580  18.364  0.00  0.00    +0.000 A 
ATOM     22  C   UNL     1       3.396   4.346  19.541  0.00  0.00    +0.000 A 
ATOM     23  C   UNL     1       2.223   4.436  20.293  0.00  0.00    +0.000 A 
ATOM     24  C   UNL     1       1.075   3.764  19.878  0.00  0.00    +0.000 A 
ATOM     25  C   UNL     1       1.103   2.997  18.714  0.00  0.00    +0.000 A 
ATOM     26  C   UNL     1       2.277   2.903  17.961  0.00  0.00    +0.000 A 
ENDBRANCH  20  21
ENDBRANCH   8  20
TORSDOF 4
ENDMDL
MODEL 6
REMARK VINA RESULT:      -8.2      5.142      6.916
REMARK  Name = 
REMARK  4 active torsions:
REMARK  status: ('A' for Active; 'I' for Inactive)
REMARK    1  A    between atoms: C_2  and  C_19
REMARK    2  A    between atoms: N_3  and  C_4
REMARK    3  A    between atoms: N_11  and  C_12
REMARK    4  A    between atoms: C_12  and  C_13
REMARK                            x       y       z     vdW  Elec       q    Type
REMARK                         _______ _______ _______ _____ _____    ______ ____
ROOT
ATOM      1  C   UNL     1       7.771   7.233  18.010  0.00  0.00    +0.000 C 
ATOM      2  C   UNL     1       7.785   5.845  18.685  0.00  0.00    +0.000 C 
ATOM      3  C   UNL     1       6.659   4.929  18.156  0.00  0.00    +0.000 C 
ATOM      4  C   UNL     1       5.313   5.089  18.895  0.00  0.00    +0.000 C 
ATOM      5  C   UNL     1       4.478   6.026  18.021  0.00  0.00    +0.000 C 
ATOM      6  C   UNL     1       5.512   6.571  17.041  0.00  0.00    +0.000 C 
ATOM      7  C   UNL     1       6.329   7.689  17.760  0.00  0.00    +0.000 C 
ATOM      8  N   UNL     1       6.378   5.387  16.782  0.00  0.00    +0.000 NA
ENDROOT
BRANCH   1  11
ATOM      9  O   UNL     1       8.013  10.014  17.362  0.00  0.00    +0.000 OA
ATOM     10  C   UNL     1       8.628   9.553  18.310  0.00  0.00    +0.000 C 
ATOM     11  N   UNL     1       8.609   8.225  18.673  0.00  0.00    +0.000 N 
ATOM     12  H   UNL     1       9.042   7.949  19.537  0.00  0.00    +0.000 HD
BRANCH  10  13
ATOM     13  C   UNL     1       9.402  10.468  19.182  0.00  0.00    +0.000 A 
ATOM     14  C   UNL     1      10.608  11.050  18.771  0.00  0.00    +0.000 A 
ATOM     15  C   UNL     1      11.282  11.928  19.625  0.00  0.00    +0.000 A 
ATOM     16  C   UNL     1      10.755  12.220  20.883  0.00  0.00    +0.000 A 
ATOM     17  C   UNL     1       9.553  11.639  21.280  0.00  0.00    +0.000 A 
ATOM     18  F   UNL     1       9.051  11.929  22.484  0.00  0.00    +0.000 F 
ATOM     19  C   UNL     1       8.869  10.771  20.446  0.00  0.00    +0.000 A 
ENDBRANCH  10  13
ENDBRANCH   1  11
BRANCH   8  20
ATOM     20  C   UNL     1       5.743   4.341  15.960  0.00  0.00    +0.000 C 
BRANCH  20  21
ATOM     21  C   UNL     1       6.257   4.321  14.531  0.00  0.00    +0.000 A 
ATOM     22  C   UNL     1       7.322   5.152  14.149  0.00  0.00    +0.000 A 
ATOM     23  C   UNL     1       7.797   5.147  12.836  0.00  0.00    +0.000 A 
ATOM     24  C   UNL     1       7.212   4.308  11.889  0.00  0.00    +0.000 A 
ATOM     25  C   UNL     1       6.152   3.481  12.253  0.00  0.00    +0.000 A 
ATOM     26  C   UNL     1       5.674   3.487  13.567  0.00  0.00    +0.000 A 
ENDBRANCH  20  21
ENDBRANCH   8  20
TORSDOF 4
ENDMDL
MODEL 7
REMARK VINA RESULT:      -8.2      5.143      7.806
REMARK  Name = 
REMARK  4 active torsions:
REMARK  status: ('A' for Active; 'I' for Inactive)
REMARK    1  A    between atoms: C_2  and  C_19
REMARK    2  A    between atoms: N_3  and  C_4
REMARK    3  A    between atoms: N_11  and  C_12
REMARK    4  A    between atoms: C_12  and  C_13
REMARK                            x       y       z     vdW  Elec       q    Type
REMARK                         _______ _______ _______ _____ _____    ______ ____
ROOT
ATOM      1  C   UNL     1       7.578   7.475  18.308  0.00  0.00    +0.000 C 
ATOM      2  C   UNL     1       7.243   7.422  16.802  0.00  0.00    +0.000 C 
ATOM      3  C   UNL     1       6.397   6.182  16.438  0.00  0.00    +0.000 C 
ATOM      4  C   UNL     1       7.227   4.918  16.126  0.00  0.00    +0.000 C 
ATOM      5  C   UNL     1       7.226   4.101  17.419  0.00  0.00    +0.000 C 
ATOM      6  C   UNL     1       6.680   5.097  18.437  0.00  0.00    +0.000 C 
ATOM      7  C   UNL     1       7.834   6.062  18.847  0.00  0.00    +0.000 C 
ATOM      8  N   UNL     1       5.645   5.832  17.658  0.00  0.00    +0.000 NA
ENDROOT
BRANCH   1  11
ATOM      9  O   UNL     1       7.719  10.221  17.499  0.00  0.00    +0.000 OA
ATOM     10  C   UNL     1       8.568   9.761  18.244  0.00  0.00    +0.000 C 
ATOM     11  N   UNL     1       8.609   8.447  18.654  0.00  0.00    +0.000 N 
ATOM     12  H   UNL     1       9.267   8.177  19.364  0.00  0.00    +0.000 HD
BRANCH  10  13
ATOM     13  C   UNL     1       9.597  10.664  18.812  0.00  0.00    +0.000 A 
ATOM     14  C   UNL     1       9.714  10.891  20.189  0.00  0.00    +0.000 A 
ATOM     15  C   UNL     1      10.721  11.732  20.671  0.00  0.00    +0.000 A 
ATOM     16  C   UNL     1      11.604  12.345  19.782  0.00  0.00    +0.000 A 
ATOM     17  C   UNL     1      11.481  12.110  18.414  0.00  0.00    +0.000 A 
ATOM     18  F   UNL     1      12.333  12.696  17.570  0.00  0.00    +0.000 F 
ATOM     19  C   UNL     1      10.493  11.276  17.919  0.00  0.00    +0.000 A 
ENDBRANCH  10  13
ENDBRANCH   1  11
BRANCH   8  20
ATOM     20  C   UNL     1       4.434   5.045  17.365  0.00  0.00    +0.000 C 
BRANCH  20  21
ATOM     21  C   UNL     1       3.519   4.900  18.569  0.00  0.00    +0.000 A 
ATOM     22  C   UNL     1       2.883   6.027  19.115  0.00  0.00    +0.000 A 
ATOM     23  C   UNL     1       2.047   5.905  20.227  0.00  0.00    +0.000 A 
ATOM     24  C   UNL     1       1.836   4.655  20.806  0.00  0.00    +0.000 A 
ATOM     25  C   UNL     1       2.465   3.529  20.276  0.00  0.00    +0.000 A 
ATOM     26  C   UNL     1       3.304   3.650  19.165  0.00  0.00    +0.000 A 
ENDBRANCH  20  21
ENDBRANCH   8  20
TORSDOF 4
ENDMDL
MODEL 8
REMARK VINA RESULT:      -8.2      4.924      7.630
REMARK  Name = 
REMARK  4 active torsions:
REMARK  status: ('A' for Active; 'I' for Inactive)
REMARK    1  A    between atoms: C_2  and  C_19
REMARK    2  A    between atoms: N_3  and  C_4
REMARK    3  A    between atoms: N_11  and  C_12
REMARK    4  A    between atoms: C_12  and  C_13
REMARK                            x       y       z     vdW  Elec       q    Type
REMARK                         _______ _______ _______ _____ _____    ______ ____
ROOT
ATOM      1  C   UNL     1       7.593   7.494  18.304  0.00  0.00    +0.000 C 
ATOM      2  C   UNL     1       7.381   7.375  16.780  0.00  0.00    +0.000 C 
ATOM      3  C   UNL     1       6.505   6.159  16.408  0.00  0.00    +0.000 C 
ATOM      4  C   UNL     1       7.290   4.841  16.232  0.00  0.00    +0.000 C 
ATOM      5  C   UNL     1       7.139   4.097  17.559  0.00  0.00    +0.000 C 
ATOM      6  C   UNL     1       6.564   5.172  18.476  0.00  0.00    +0.000 C 
ATOM      7  C   UNL     1       7.729   6.102  18.934  0.00  0.00    +0.000 C 
ATOM      8  N   UNL     1       5.637   5.913  17.576  0.00  0.00    +0.000 NA
ENDROOT
BRANCH   1  11
ATOM      9  O   UNL     1       7.754  10.280  17.653  0.00  0.00    +0.000 OA
ATOM     10  C   UNL     1       8.610   9.768  18.355  0.00  0.00    +0.000 C 
ATOM     11  N   UNL     1       8.642   8.432  18.687  0.00  0.00    +0.000 N 
ATOM     12  H   UNL     1       9.308   8.114  19.369  0.00  0.00    +0.000 HD
BRANCH  10  13
ATOM     13  C   UNL     1       9.659  10.625  18.955  0.00  0.00    +0.000 A 
ATOM     14  C   UNL     1      10.833  10.962  18.269  0.00  0.00    +0.000 A 
ATOM     15  C   UNL     1      11.776  11.797  18.874  0.00  0.00    +0.000 A 
ATOM     16  C   UNL     1      11.549  12.291  20.158  0.00  0.00    +0.000 A 
ATOM     17  C   UNL     1      10.377  11.953  20.832  0.00  0.00    +0.000 A 
ATOM     18  F   UNL     1      10.164  12.435  22.059  0.00  0.00    +0.000 F 
ATOM     19  C   UNL     1       9.429  11.131  20.246  0.00  0.00    +0.000 A 
ENDBRANCH  10  13
ENDBRANCH   1  11
BRANCH   8  20
ATOM     20  C   UNL     1       4.414   5.170  17.221  0.00  0.00    +0.000 C 
BRANCH  20  21
ATOM     21  C   UNL     1       3.421   5.088  18.367  0.00  0.00    +0.000 A 
ATOM     22  C   UNL     1       2.803   3.867  18.683  0.00  0.00    +0.000 A 
ATOM     23  C   UNL     1       1.882   3.783  19.729  0.00  0.00    +0.000 A 
ATOM     24  C   UNL     1       1.569   4.918  20.474  0.00  0.00    +0.000 A 
ATOM     25  C   UNL     1       2.172   6.137  20.168  0.00  0.00    +0.000 A 
ATOM     26  C   UNL     1       3.092   6.224  19.120  0.00  0.00    +0.000 A 
ENDBRANCH  20  21
ENDBRANCH   8  20
TORSDOF 4
ENDMDL
MODEL 9
REMARK VINA RESULT:      -8.2      1.388      2.028
REMARK  Name = 
REMARK  4 active torsions:
REMARK  status: ('A' for Active; 'I' for Inactive)
REMARK    1  A    between atoms: C_2  and  C_19
REMARK    2  A    between atoms: N_3  and  C_4
REMARK    3  A    between atoms: N_11  and  C_12
REMARK    4  A    between atoms: C_12  and  C_13
REMARK                            x       y       z     vdW  Elec       q    Type
REMARK                         _______ _______ _______ _____ _____    ______ ____
ROOT
ATOM      1  C   UNL     1       2.553   5.832  19.383  0.00  0.00    +0.000 C 
ATOM      2  C   UNL     1       3.617   4.982  20.109  0.00  0.00    +0.000 C 
ATOM      3  C   UNL     1       3.947   3.683  19.340  0.00  0.00    +0.000 C 
ATOM      4  C   UNL     1       3.016   2.496  19.669  0.00  0.00    +0.000 C 
ATOM      5  C   UNL     1       1.973   2.475  18.551  0.00  0.00    +0.000 C 
ATOM      6  C   UNL     1       2.197   3.819  17.866  0.00  0.00    +0.000 C 
ATOM      7  C   UNL     1       1.507   4.927  18.720  0.00  0.00    +0.000 C 
ATOM      8  N   UNL     1       3.678   3.975  17.919  0.00  0.00    +0.000 NA
ENDROOT
BRANCH   1  11
ATOM      9  O   UNL     1       2.031   8.533  18.579  0.00  0.00    +0.000 OA
ATOM     10  C   UNL     1       1.742   8.166  19.706  0.00  0.00    +0.000 C 
ATOM     11  N   UNL     1       1.991   6.904  20.197  0.00  0.00    +0.000 N 
ATOM     12  H   UNL     1       1.611   6.644  21.090  0.00  0.00    +0.000 HD
BRANCH  10  13
ATOM     13  C   UNL     1       1.017   9.095  20.605  0.00  0.00    +0.000 A 
ATOM     14  C   UNL     1       0.419  10.273  20.137  0.00  0.00    +0.000 A 
ATOM     15  C   UNL     1      -0.276  11.098  21.025  0.00  0.00    +0.000 A 
ATOM     16  C   UNL     1      -0.371  10.752  22.373  0.00  0.00    +0.000 A 
ATOM     17  C   UNL     1       0.225   9.577  22.827  0.00  0.00    +0.000 A 
ATOM     18  F   UNL     1       0.125   9.248  24.118  0.00  0.00    +0.000 F 
ATOM     19  C   UNL     1       0.913   8.744  21.961  0.00  0.00    +0.000 A 
ENDBRANCH  10  13
ENDBRANCH   1  11
BRANCH   8  20
ATOM     20  C   UNL     1       4.414   3.077  17.012  0.00  0.00    +0.000 C 
BRANCH  20  21
ATOM     21  C   UNL     1       5.441   3.808  16.164  0.00  0.00    +0.000 A 
ATOM     22  C   UNL     1       6.385   4.655  16.767  0.00  0.00    +0.000 A 
ATOM     23  C   UNL     1       7.327   5.338  15.995  0.00  0.00    +0.000 A 
ATOM     24  C   UNL     1       7.338   5.181  14.611  0.00  0.00    +0.000 A 
ATOM     25  C   UNL     1       6.404   4.346  13.999  0.00  0.00    +0.000 A 
ATOM     26  C   UNL     1       5.458   3.664  14.769  0.00  0.00    +0.000 A 
ENDBRANCH  20  21
ENDBRANCH   8  20
TORSDOF 4
ENDMDL
