MODEL 1
REMARK VINA RESULT:      -6.9      0.000      0.000
REMARK  Name = 
REMARK  7 active torsions:
REMARK  status: ('A' for Active; 'I' for Inactive)
REMARK    1  A    between atoms: C_1  and  O_2
REMARK    2  A    between atoms: O_2  and  C_3
REMARK    3  A    between atoms: C_6  and  N_7
REMARK    4  A    between atoms: C_11  and  S_12
REMARK    5  A    between atoms: S_12  and  C_13
REMARK    6  A    between atoms: C_13  and  C_14
REMARK    7  A    between atoms: N_16  and  O_17
REMARK                            x       y       z     vdW  Elec       q    Type
REMARK                         _______ _______ _______ _____ _____    ______ ____
ROOT
ATOM      1  N   UNL     1       5.045   4.139  16.320  0.00  0.00    +0.000 N 
ATOM      2  C   UNL     1       5.526   3.304  15.324  0.00  0.00    +0.000 A 
ATOM      3  C   UNL     1       6.327   4.074  14.520  0.00  0.00    +0.000 A 
ATOM      4  N   UNL     1       6.408   5.352  14.999  0.00  0.00    +0.000 NA
ATOM      5  C   UNL     1       5.677   5.358  16.101  0.00  0.00    +0.000 A 
ENDROOT
BRANCH   1   9
ATOM      6  C   UNL     1       2.122   3.214  19.245  0.00  0.00    +0.000 A 
ATOM      7  C   UNL     1       1.865   4.156  18.253  0.00  0.00    +0.000 A 
ATOM      8  C   UNL     1       2.809   4.426  17.261  0.00  0.00    +0.000 A 
ATOM      9  C   UNL     1       4.043   3.756  17.260  0.00  0.00    +0.000 A 
ATOM     10  C   UNL     1       4.295   2.801  18.250  0.00  0.00    +0.000 A 
ATOM     11  C   UNL     1       3.340   2.531  19.238  0.00  0.00    +0.000 A 
BRANCH   6  13
ATOM     12  C   UNL     1       1.572   2.926  21.533  0.00  0.00    +0.000 C 
ATOM     13  O   UNL     1       1.142   3.091  20.190  0.00  0.00    +0.000 OA
ENDBRANCH   6  13
ENDBRANCH   1   9
BRANCH   5  14
ATOM     14  S   UNL     1       5.637   6.720  17.180  0.00  0.00    +0.000 S 
BRANCH  14  15
ATOM     15  C   UNL     1       7.265   6.625  17.978  0.00  0.00    +0.000 C 
BRANCH  15  16
ATOM     16  C   UNL     1       7.206   5.840  19.275  0.00  0.00    +0.000 C 
ATOM     17  O   UNL     1       6.168   5.349  19.717  0.00  0.00    +0.000 OA
ATOM     18  N   UNL     1       8.410   5.685  19.915  0.00  0.00    +0.000 N 
ATOM     19  H   UNL     1       9.208   6.292  19.714  0.00  0.00    +0.000 HD
BRANCH  18  20
ATOM     20  O   UNL     1       8.375   5.053  21.178  0.00  0.00    +0.000 OA
ATOM     21  H   UNL     1       8.160   4.125  20.942  0.00  0.00    +0.000 HD
ENDBRANCH  18  20
ENDBRANCH  15  16
ENDBRANCH  14  15
ENDBRANCH   5  14
TORSDOF 6
ENDMDL
MODEL 2
REMARK VINA RESULT:      -6.9      3.102      6.163
REMARK  Name = 
REMARK  7 active torsions:
REMARK  status: ('A' for Active; 'I' for Inactive)
REMARK    1  A    between atoms: C_1  and  O_2
REMARK    2  A    between atoms: O_2  and  C_3
REMARK    3  A    between atoms: C_6  and  N_7
REMARK    4  A    between atoms: C_11  and  S_12
REMARK    5  A    between atoms: S_12  and  C_13
REMARK    6  A    between atoms: C_13  and  C_14
REMARK    7  A    between atoms: N_16  and  O_17
REMARK                            x       y       z     vdW  Elec       q    Type
REMARK                         _______ _______ _______ _____ _____    ______ ____
ROOT
ATOM      1  N   UNL     1       3.793   5.182  19.319  0.00  0.00    +0.000 N 
ATOM      2  C   UNL     1       2.934   6.176  19.758  0.00  0.00    +0.000 A 
ATOM      3  C   UNL     1       2.003   5.565  20.557  0.00  0.00    +0.000 A 
ATOM      4  N   UNL     1       2.271   4.229  20.679  0.00  0.00    +0.000 NA
ATOM      5  C   UNL     1       3.372   4.030  19.974  0.00  0.00    +0.000 A 
ENDROOT
BRANCH   1   9
ATOM      6  C   UNL     1       6.770   5.535  16.324  0.00  0.00    +0.000 A 
ATOM      7  C   UNL     1       5.420   5.487  15.986  0.00  0.00    +0.000 A 
ATOM      8  C   UNL     1       4.437   5.420  16.975  0.00  0.00    +0.000 A 
ATOM      9  C   UNL     1       4.801   5.385  18.330  0.00  0.00    +0.000 A 
ATOM     10  C   UNL     1       6.156   5.445  18.668  0.00  0.00    +0.000 A 
ATOM     11  C   UNL     1       7.137   5.519  17.670  0.00  0.00    +0.000 A 
BRANCH   6  13
ATOM     12  C   UNL     1       7.168   4.908  14.072  0.00  0.00    +0.000 C 
ATOM     13  O   UNL     1       7.629   5.536  15.261  0.00  0.00    +0.000 OA
ENDBRANCH   6  13
ENDBRANCH   1   9
BRANCH   5  14
ATOM     14  S   UNL     1       4.222   2.514  19.991  0.00  0.00    +0.000 S 
BRANCH  14  15
ATOM     15  C   UNL     1       3.795   1.816  18.370  0.00  0.00    +0.000 C 
BRANCH  15  16
ATOM     16  C   UNL     1       2.393   2.208  17.945  0.00  0.00    +0.000 C 
ATOM     17  O   UNL     1       2.159   2.908  16.961  0.00  0.00    +0.000 OA
ATOM     18  N   UNL     1       1.386   1.696  18.726  0.00  0.00    +0.000 N 
ATOM     19  H   UNL     1       1.562   1.349  19.671  0.00  0.00    +0.000 HD
BRANCH  18  20
ATOM     20  O   UNL     1       0.075   2.127  18.425  0.00  0.00    +0.000 OA
ATOM     21  H   UNL     1      -0.467   1.608  19.058  0.00  0.00    +0.000 HD
ENDBRANCH  18  20
ENDBRANCH  15  16
ENDBRANCH  14  15
ENDBRANCH   5  14
TORSDOF 6
ENDMDL
MODEL 3
REMARK VINA RESULT:      -6.6      2.701      3.989
REMARK  Name = 
REMARK  7 active torsions:
REMARK  status: ('A' for Active; 'I' for Inactive)
REMARK    1  A    between atoms: C_1  and  O_2
REMARK    2  A    between atoms: O_2  and  C_3
REMARK    3  A    between atoms: C_6  and  N_7
REMARK    4  A    between atoms: C_11  and  S_12
REMARK    5  A    between atoms: S_12  and  C_13
REMARK    6  A    between atoms: C_13  and  C_14
REMARK    7  A    between atoms: N_16  and  O_17
REMARK                            x       y       z     vdW  Elec       q    Type
REMARK                         _______ _______ _______ _____ _____    ______ ____
ROOT
ATOM      1  N   UNL     1       5.901   5.406  18.732  0.00  0.00    +0.000 N 
ATOM      2  C   UNL     1       6.989   5.703  19.535  0.00  0.00    +0.000 A 
ATOM      3  C   UNL     1       7.990   6.126  18.700  0.00  0.00    +0.000 A 
ATOM      4  N   UNL     1       7.559   6.153  17.403  0.00  0.00    +0.000 NA
ATOM      5  C   UNL     1       6.294   5.769  17.448  0.00  0.00    +0.000 A 
ENDROOT
BRANCH   1   9
ATOM      6  C   UNL     1       2.308   3.487  19.898  0.00  0.00    +0.000 A 
ATOM      7  C   UNL     1       3.420   2.744  19.512  0.00  0.00    +0.000 A 
ATOM      8  C   UNL     1       4.618   3.375  19.174  0.00  0.00    +0.000 A 
ATOM      9  C   UNL     1       4.713   4.775  19.207  0.00  0.00    +0.000 A 
ATOM     10  C   UNL     1       3.599   5.519  19.606  0.00  0.00    +0.000 A 
ATOM     11  C   UNL     1       2.401   4.878  19.950  0.00  0.00    +0.000 A 
BRANCH   6  13
ATOM     12  C   UNL     1       0.495   2.247  19.004  0.00  0.00    +0.000 C 
ATOM     13  O   UNL     1       1.182   2.751  20.141  0.00  0.00    +0.000 OA
ENDBRANCH   6  13
ENDBRANCH   1   9
BRANCH   5  14
ATOM     14  S   UNL     1       5.253   5.839  16.058  0.00  0.00    +0.000 S 
BRANCH  14  15
ATOM     15  C   UNL     1       5.647   4.285  15.205  0.00  0.00    +0.000 C 
BRANCH  15  16
ATOM     16  C   UNL     1       6.628   4.504  14.070  0.00  0.00    +0.000 C 
ATOM     17  O   UNL     1       6.589   3.871  13.015  0.00  0.00    +0.000 OA
ATOM     18  N   UNL     1       7.557   5.491  14.287  0.00  0.00    +0.000 N 
ATOM     19  H   UNL     1       7.770   5.830  15.228  0.00  0.00    +0.000 HD
BRANCH  18  20
ATOM     20  O   UNL     1       8.552   5.649  13.297  0.00  0.00    +0.000 OA
ATOM     21  H   UNL     1       8.830   6.582  13.427  0.00  0.00    +0.000 HD
ENDBRANCH  18  20
ENDBRANCH  15  16
ENDBRANCH  14  15
ENDBRANCH   5  14
TORSDOF 6
ENDMDL
MODEL 4
REMARK VINA RESULT:      -6.6      2.729      3.834
REMARK  Name = 
REMARK  7 active torsions:
REMARK  status: ('A' for Active; 'I' for Inactive)
REMARK    1  A    between atoms: C_1  and  O_2
REMARK    2  A    between atoms: O_2  and  C_3
REMARK    3  A    between atoms: C_6  and  N_7
REMARK    4  A    between atoms: C_11  and  S_12
REMARK    5  A    between atoms: S_12  and  C_13
REMARK    6  A    between atoms: C_13  and  C_14
REMARK    7  A    between atoms: N_16  and  O_17
REMARK                            x       y       z     vdW  Elec       q    Type
REMARK                         _______ _______ _______ _____ _____    ______ ____
ROOT
ATOM      1  N   UNL     1       5.859   5.328  18.580  0.00  0.00    +0.000 N 
ATOM      2  C   UNL     1       6.939   5.655  19.384  0.00  0.00    +0.000 A 
ATOM      3  C   UNL     1       7.952   6.036  18.544  0.00  0.00    +0.000 A 
ATOM      4  N   UNL     1       7.538   6.007  17.241  0.00  0.00    +0.000 NA
ATOM      5  C   UNL     1       6.271   5.631  17.287  0.00  0.00    +0.000 A 
ENDROOT
BRANCH   1   9
ATOM      6  C   UNL     1       2.365   3.616  20.260  0.00  0.00    +0.000 A 
ATOM      7  C   UNL     1       2.430   4.979  19.984  0.00  0.00    +0.000 A 
ATOM      8  C   UNL     1       3.563   5.535  19.387  0.00  0.00    +0.000 A 
ATOM      9  C   UNL     1       4.662   4.723  19.067  0.00  0.00    +0.000 A 
ATOM     10  C   UNL     1       4.591   3.352  19.333  0.00  0.00    +0.000 A 
ATOM     11  C   UNL     1       3.448   2.801  19.927  0.00  0.00    +0.000 A 
BRANCH   6  13
ATOM     12  C   UNL     1       1.403   2.382  22.040  0.00  0.00    +0.000 C 
ATOM     13  O   UNL     1       1.228   3.214  20.902  0.00  0.00    +0.000 OA
ENDBRANCH   6  13
ENDBRANCH   1   9
BRANCH   5  14
ATOM     14  S   UNL     1       5.249   5.644  15.881  0.00  0.00    +0.000 S 
BRANCH  14  15
ATOM     15  C   UNL     1       5.832   4.185  14.970  0.00  0.00    +0.000 C 
BRANCH  15  16
ATOM     16  C   UNL     1       6.812   4.564  13.877  0.00  0.00    +0.000 C 
ATOM     17  O   UNL     1       6.765   4.097  12.739  0.00  0.00    +0.000 OA
ATOM     18  N   UNL     1       7.750   5.500  14.237  0.00  0.00    +0.000 N 
ATOM     19  H   UNL     1       7.968   5.692  15.217  0.00  0.00    +0.000 HD
BRANCH  18  20
ATOM     20  O   UNL     1       8.744   5.797  13.279  0.00  0.00    +0.000 OA
ATOM     21  H   UNL     1       8.211   6.068  12.500  0.00  0.00    +0.000 HD
ENDBRANCH  18  20
ENDBRANCH  15  16
ENDBRANCH  14  15
ENDBRANCH   5  14
TORSDOF 6
ENDMDL
MODEL 5
REMARK VINA RESULT:      -6.5      0.609      1.254
REMARK  Name = 
REMARK  7 active torsions:
REMARK  status: ('A' for Active; 'I' for Inactive)
REMARK    1  A    between atoms: C_1  and  O_2
REMARK    2  A    between atoms: O_2  and  C_3
REMARK    3  A    between atoms: C_6  and  N_7
REMARK    4  A    between atoms: C_11  and  S_12
REMARK    5  A    between atoms: S_12  and  C_13
REMARK    6  A    between atoms: C_13  and  C_14
REMARK    7  A    between atoms: N_16  and  O_17
REMARK                            x       y       z     vdW  Elec       q    Type
REMARK                         _______ _______ _______ _____ _____    ______ ____
ROOT
ATOM      1  N   UNL     1       5.405   4.395  16.165  0.00  0.00    +0.000 N 
ATOM      2  C   UNL     1       5.737   3.601  15.080  0.00  0.00    +0.000 A 
ATOM      3  C   UNL     1       6.496   4.378  14.244  0.00  0.00    +0.000 A 
ATOM      4  N   UNL     1       6.697   5.618  14.783  0.00  0.00    +0.000 NA
ATOM      5  C   UNL     1       6.080   5.592  15.953  0.00  0.00    +0.000 A 
ENDROOT
BRANCH   1   9
ATOM      6  C   UNL     1       2.581   3.050  19.024  0.00  0.00    +0.000 A 
ATOM      7  C   UNL     1       3.796   2.391  18.856  0.00  0.00    +0.000 A 
ATOM      8  C   UNL     1       4.746   2.862  17.949  0.00  0.00    +0.000 A 
ATOM      9  C   UNL     1       4.481   4.006  17.180  0.00  0.00    +0.000 A 
ATOM     10  C   UNL     1       3.265   4.673  17.358  0.00  0.00    +0.000 A 
ATOM     11  C   UNL     1       2.319   4.198  18.275  0.00  0.00    +0.000 A 
BRANCH   6  13
ATOM     12  C   UNL     1       0.591   3.214  20.303  0.00  0.00    +0.000 C 
ATOM     13  O   UNL     1       1.717   2.449  19.895  0.00  0.00    +0.000 OA
ENDBRANCH   6  13
ENDBRANCH   1   9
BRANCH   5  14
ATOM     14  S   UNL     1       6.226   6.885  17.106  0.00  0.00    +0.000 S 
BRANCH  14  15
ATOM     15  C   UNL     1       7.745   6.438  17.994  0.00  0.00    +0.000 C 
BRANCH  15  16
ATOM     16  C   UNL     1       7.441   5.786  19.330  0.00  0.00    +0.000 C 
ATOM     17  O   UNL     1       6.298   5.533  19.710  0.00  0.00    +0.000 OA
ATOM     18  N   UNL     1       8.542   5.466  20.084  0.00  0.00    +0.000 N 
ATOM     19  H   UNL     1       9.453   5.897  19.914  0.00  0.00    +0.000 HD
BRANCH  18  20
ATOM     20  O   UNL     1       8.293   4.957  21.378  0.00  0.00    +0.000 OA
ATOM     21  H   UNL     1       9.184   4.985  21.789  0.00  0.00    +0.000 HD
ENDBRANCH  18  20
ENDBRANCH  15  16
ENDBRANCH  14  15
ENDBRANCH   5  14
TORSDOF 6
ENDMDL
MODEL 6
REMARK VINA RESULT:      -6.5      3.616      4.584
REMARK  Name = 
REMARK  7 active torsions:
REMARK  status: ('A' for Active; 'I' for Inactive)
REMARK    1  A    between atoms: C_1  and  O_2
REMARK    2  A    between atoms: O_2  and  C_3
REMARK    3  A    between atoms: C_6  and  N_7
REMARK    4  A    between atoms: C_11  and  S_12
REMARK    5  A    between atoms: S_12  and  C_13
REMARK    6  A    between atoms: C_13  and  C_14
REMARK    7  A    between atoms: N_16  and  O_17
REMARK                            x       y       z     vdW  Elec       q    Type
REMARK                         _______ _______ _______ _____ _____    ______ ____
ROOT
ATOM      1  N   UNL     1       3.023   5.109  18.335  0.00  0.00    +0.000 N 
ATOM      2  C   UNL     1       2.178   4.187  17.738  0.00  0.00    +0.000 A 
ATOM      3  C   UNL     1       2.968   3.153  17.307  0.00  0.00    +0.000 A 
ATOM      4  N   UNL     1       4.274   3.365  17.652  0.00  0.00    +0.000 NA
ATOM      5  C   UNL     1       4.279   4.512  18.309  0.00  0.00    +0.000 A 
ENDROOT
BRANCH   1   9
ATOM      6  C   UNL     1       1.545   8.876  19.591  0.00  0.00    +0.000 A 
ATOM      7  C   UNL     1       1.633   7.811  20.482  0.00  0.00    +0.000 A 
ATOM      8  C   UNL     1       2.164   6.584  20.082  0.00  0.00    +0.000 A 
ATOM      9  C   UNL     1       2.607   6.405  18.762  0.00  0.00    +0.000 A 
ATOM     10  C   UNL     1       2.529   7.479  17.870  0.00  0.00    +0.000 A 
ATOM     11  C   UNL     1       2.001   8.709  18.282  0.00  0.00    +0.000 A 
BRANCH   6  13
ATOM     12  C   UNL     1       0.769  10.047  21.501  0.00  0.00    +0.000 C 
ATOM     13  O   UNL     1       0.948   9.998  20.092  0.00  0.00    +0.000 OA
ENDBRANCH   6  13
ENDBRANCH   1   9
BRANCH   5  14
ATOM     14  S   UNL     1       5.692   5.106  19.128  0.00  0.00    +0.000 S 
BRANCH  14  15
ATOM     15  C   UNL     1       6.422   6.209  17.884  0.00  0.00    +0.000 C 
BRANCH  15  16
ATOM     16  C   UNL     1       7.202   5.434  16.840  0.00  0.00    +0.000 C 
ATOM     17  O   UNL     1       7.893   4.452  17.107  0.00  0.00    +0.000 OA
ATOM     18  N   UNL     1       7.059   5.890  15.552  0.00  0.00    +0.000 N 
ATOM     19  H   UNL     1       6.720   6.833  15.351  0.00  0.00    +0.000 HD
BRANCH  18  20
ATOM     20  O   UNL     1       7.855   5.260  14.569  0.00  0.00    +0.000 OA
ATOM     21  H   UNL     1       7.437   4.374  14.498  0.00  0.00    +0.000 HD
ENDBRANCH  18  20
ENDBRANCH  15  16
ENDBRANCH  14  15
ENDBRANCH   5  14
TORSDOF 6
ENDMDL
MODEL 7
REMARK VINA RESULT:      -6.5      3.876      5.052
REMARK  Name = 
REMARK  7 active torsions:
REMARK  status: ('A' for Active; 'I' for Inactive)
REMARK    1  A    between atoms: C_1  and  O_2
REMARK    2  A    between atoms: O_2  and  C_3
REMARK    3  A    between atoms: C_6  and  N_7
REMARK    4  A    between atoms: C_11  and  S_12
REMARK    5  A    between atoms: S_12  and  C_13
REMARK    6  A    between atoms: C_13  and  C_14
REMARK    7  A    between atoms: N_16  and  O_17
REMARK                            x       y       z     vdW  Elec       q    Type
REMARK                         _______ _______ _______ _____ _____    ______ ____
ROOT
ATOM      1  N   UNL     1       3.010   5.367  18.118  0.00  0.00    +0.000 N 
ATOM      2  C   UNL     1       2.265   4.200  18.168  0.00  0.00    +0.000 A 
ATOM      3  C   UNL     1       2.926   3.280  17.398  0.00  0.00    +0.000 A 
ATOM      4  N   UNL     1       4.087   3.807  16.902  0.00  0.00    +0.000 NA
ATOM      5  C   UNL     1       4.144   5.037  17.385  0.00  0.00    +0.000 A 
ENDROOT
BRANCH   1   9
ATOM      6  C   UNL     1       1.463   8.974  19.717  0.00  0.00    +0.000 A 
ATOM      7  C   UNL     1       1.678   7.866  20.533  0.00  0.00    +0.000 A 
ATOM      8  C   UNL     1       2.233   6.694  20.016  0.00  0.00    +0.000 A 
ATOM      9  C   UNL     1       2.570   6.613  18.656  0.00  0.00    +0.000 A 
ATOM     10  C   UNL     1       2.364   7.730  17.840  0.00  0.00    +0.000 A 
ATOM     11  C   UNL     1       1.813   8.905  18.368  0.00  0.00    +0.000 A 
BRANCH   6  13
ATOM     12  C   UNL     1      -0.141  10.715  19.588  0.00  0.00    +0.000 C 
ATOM     13  O   UNL     1       0.857  10.032  20.333  0.00  0.00    +0.000 OA
ENDBRANCH   6  13
ENDBRANCH   1   9
BRANCH   5  14
ATOM     14  S   UNL     1       5.548   6.043  17.193  0.00  0.00    +0.000 S 
BRANCH  14  15
ATOM     15  C   UNL     1       6.834   4.832  16.770  0.00  0.00    +0.000 C 
BRANCH  15  16
ATOM     16  C   UNL     1       6.979   4.674  15.269  0.00  0.00    +0.000 C 
ATOM     17  O   UNL     1       7.601   5.470  14.566  0.00  0.00    +0.000 OA
ATOM     18  N   UNL     1       6.389   3.551  14.744  0.00  0.00    +0.000 N 
ATOM     19  H   UNL     1       5.664   3.038  15.250  0.00  0.00    +0.000 HD
BRANCH  18  20
ATOM     20  O   UNL     1       6.412   3.427  13.336  0.00  0.00    +0.000 OA
ATOM     21  H   UNL     1       6.075   2.515  13.201  0.00  0.00    +0.000 HD
ENDBRANCH  18  20
ENDBRANCH  15  16
ENDBRANCH  14  15
ENDBRANCH   5  14
TORSDOF 6
ENDMDL
MODEL 8
REMARK VINA RESULT:      -6.4      3.585      4.401
REMARK  Name = 
REMARK  7 active torsions:
REMARK  status: ('A' for Active; 'I' for Inactive)
REMARK    1  A    between atoms: C_1  and  O_2
REMARK    2  A    between atoms: O_2  and  C_3
REMARK    3  A    between atoms: C_6  and  N_7
REMARK    4  A    between atoms: C_11  and  S_12
REMARK    5  A    between atoms: S_12  and  C_13
REMARK    6  A    between atoms: C_13  and  C_14
REMARK    7  A    between atoms: N_16  and  O_17
REMARK                            x       y       z     vdW  Elec       q    Type
REMARK                         _______ _______ _______ _____ _____    ______ ____
ROOT
ATOM      1  N   UNL     1       3.200   5.807  18.067  0.00  0.00    +0.000 N 
ATOM      2  C   UNL     1       2.668   4.543  18.261  0.00  0.00    +0.000 A 
ATOM      3  C   UNL     1       3.419   3.681  17.506  0.00  0.00    +0.000 A 
ATOM      4  N   UNL     1       4.437   4.345  16.880  0.00  0.00    +0.000 NA
ATOM      5  C   UNL     1       4.320   5.604  17.268  0.00  0.00    +0.000 A 
ENDROOT
BRANCH   1   9
ATOM      6  C   UNL     1       1.178   9.239  19.511  0.00  0.00    +0.000 A 
ATOM      7  C   UNL     1       1.563   8.221  20.378  0.00  0.00    +0.000 A 
ATOM      8  C   UNL     1       2.271   7.113  19.910  0.00  0.00    +0.000 A 
ATOM      9  C   UNL     1       2.594   7.005  18.549  0.00  0.00    +0.000 A 
ATOM     10  C   UNL     1       2.218   8.035  17.681  0.00  0.00    +0.000 A 
ATOM     11  C   UNL     1       1.513   9.147  18.160  0.00  0.00    +0.000 A 
BRANCH   6  13
ATOM     12  C   UNL     1       0.660  11.551  19.605  0.00  0.00    +0.000 C 
ATOM     13  O   UNL     1       0.437  10.234  20.085  0.00  0.00    +0.000 OA
ENDBRANCH   6  13
ENDBRANCH   1   9
BRANCH   5  14
ATOM     14  S   UNL     1       5.518   6.806  16.891  0.00  0.00    +0.000 S 
BRANCH  14  15
ATOM     15  C   UNL     1       7.068   5.889  17.125  0.00  0.00    +0.000 C 
BRANCH  15  16
ATOM     16  C   UNL     1       7.680   6.166  18.485  0.00  0.00    +0.000 C 
ATOM     17  O   UNL     1       8.323   7.184  18.739  0.00  0.00    +0.000 OA
ATOM     18  N   UNL     1       7.439   5.205  19.436  0.00  0.00    +0.000 N 
ATOM     19  H   UNL     1       7.149   4.258  19.182  0.00  0.00    +0.000 HD
BRANCH  18  20
ATOM     20  O   UNL     1       8.083   5.377  20.682  0.00  0.00    +0.000 OA
ATOM     21  H   UNL     1       7.328   5.381  21.309  0.00  0.00    +0.000 HD
ENDBRANCH  18  20
ENDBRANCH  15  16
ENDBRANCH  14  15
ENDBRANCH   5  14
TORSDOF 6
ENDMDL
MODEL 9
REMARK VINA RESULT:      -6.4      3.257      4.534
REMARK  Name = 
REMARK  7 active torsions:
REMARK  status: ('A' for Active; 'I' for Inactive)
REMARK    1  A    between atoms: C_1  and  O_2
REMARK    2  A    between atoms: O_2  and  C_3
REMARK    3  A    between atoms: C_6  and  N_7
REMARK    4  A    between atoms: C_11  and  S_12
REMARK    5  A    between atoms: S_12  and  C_13
REMARK    6  A    between atoms: C_13  and  C_14
REMARK    7  A    between atoms: N_16  and  O_17
REMARK                            x       y       z     vdW  Elec       q    Type
REMARK                         _______ _______ _______ _____ _____    ______ ____
ROOT
ATOM      1  N   UNL     1       5.516   5.366  17.354  0.00  0.00    +0.000 N 
ATOM      2  C   UNL     1       6.000   6.601  17.753  0.00  0.00    +0.000 A 
ATOM      3  C   UNL     1       7.135   6.833  17.020  0.00  0.00    +0.000 A 
ATOM      4  N   UNL     1       7.359   5.813  16.139  0.00  0.00    +0.000 NA
ATOM      5  C   UNL     1       6.355   4.971  16.318  0.00  0.00    +0.000 A 
ENDROOT
BRANCH   1   9
ATOM      6  C   UNL     1       2.295   3.558  19.431  0.00  0.00    +0.000 A 
ATOM      7  C   UNL     1       2.063   4.537  18.467  0.00  0.00    +0.000 A 
ATOM      8  C   UNL     1       3.121   5.097  17.749  0.00  0.00    +0.000 A 
ATOM      9  C   UNL     1       4.440   4.689  18.001  0.00  0.00    +0.000 A 
ATOM     10  C   UNL     1       4.670   3.698  18.960  0.00  0.00    +0.000 A 
ATOM     11  C   UNL     1       3.602   3.135  19.672  0.00  0.00    +0.000 A 
BRANCH   6  13
ATOM     12  C   UNL     1       1.358   2.795  21.470  0.00  0.00    +0.000 C 
ATOM     13  O   UNL     1       1.181   3.140  20.104  0.00  0.00    +0.000 OA
ENDBRANCH   6  13
ENDBRANCH   1   9
BRANCH   5  14
ATOM     14  S   UNL     1       6.093   3.606  15.275  0.00  0.00    +0.000 S 
BRANCH  14  15
ATOM     15  C   UNL     1       6.320   4.333  13.626  0.00  0.00    +0.000 C 
BRANCH  15  16
ATOM     16  C   UNL     1       5.801   3.415  12.535  0.00  0.00    +0.000 C 
ATOM     17  O   UNL     1       4.669   3.505  12.062  0.00  0.00    +0.000 OA
ATOM     18  N   UNL     1       6.703   2.484  12.082  0.00  0.00    +0.000 N 
ATOM     19  H   UNL     1       7.527   2.225  12.629  0.00  0.00    +0.000 HD
BRANCH  18  20
ATOM     20  O   UNL     1       6.221   1.544  11.144  0.00  0.00    +0.000 OA
ATOM     21  H   UNL     1       5.500   1.102  11.643  0.00  0.00    +0.000 HD
ENDBRANCH  18  20
ENDBRANCH  15  16
ENDBRANCH  14  15
ENDBRANCH   5  14
TORSDOF 6
ENDMDL
