MODEL 1
REMARK VINA RESULT:      -8.8      0.000      0.000
REMARK  Name = 
REMARK  7 active torsions:
REMARK  status: ('A' for Active; 'I' for Inactive)
REMARK    1  A    between atoms: C_1  and  O_2
REMARK    2  A    between atoms: O_2  and  C_3
REMARK    3  A    between atoms: C_3  and  C_5
REMARK    4  A    between atoms: N_7  and  C_8
REMARK    5  A    between atoms: C_13  and  N_14
REMARK    6  A    between atoms: N_14  and  S_15
REMARK    7  A    between atoms: S_15  and  C_18
REMARK                            x       y       z     vdW  Elec       q    Type
REMARK                         _______ _______ _______ _____ _____    ______ ____
ROOT
ATOM      1  C   UNL     1       6.507   4.949  17.250  0.00  0.00    +0.000 C 
ATOM      2  C   UNL     1       7.607   5.669  18.040  0.00  0.00    +0.000 C 
ATOM      3  C   UNL     1       7.753   7.144  17.690  0.00  0.00    +0.000 C 
ATOM      4  C   UNL     1       6.429   7.900  17.721  0.00  0.00    +0.000 C 
ATOM      5  C   UNL     1       5.314   7.189  16.957  0.00  0.00    +0.000 C 
ATOM      6  C   UNL     1       5.159   5.701  17.350  0.00  0.00    +0.000 C 
ENDROOT
BRANCH   1   9
ATOM      7  C   UNL     1       6.581   4.015  13.820  0.00  0.00    +0.000 A 
ATOM      8  C   UNL     1       6.313   3.620  15.117  0.00  0.00    +0.000 A 
ATOM      9  N   UNL     1       6.892   4.593  15.887  0.00  0.00    +0.000 N 
ATOM     10  N   UNL     1       7.643   5.409  15.129  0.00  0.00    +0.000 NA
ATOM     11  N   UNL     1       7.437   5.088  13.861  0.00  0.00    +0.000 NA
BRANCH   7  12
ATOM     12  C   UNL     1       6.023   3.470  12.594  0.00  0.00    +0.000 C 
ATOM     13  O   UNL     1       6.688   2.859  11.764  0.00  0.00    +0.000 OA
BRANCH  12  15
ATOM     14  C   UNL     1       4.062   3.182  11.313  0.00  0.00    +0.000 C 
ATOM     15  O   UNL     1       4.677   3.678  12.501  0.00  0.00    +0.000 OA
ENDBRANCH  12  15
ENDBRANCH   7  12
ENDBRANCH   1   9
BRANCH   6  16
ATOM     16  N   UNL     1       4.594   5.658  18.743  0.00  0.00    +0.000 NA
ATOM     17  H   UNL     1       4.856   6.453  19.332  0.00  0.00    +0.000 HD
BRANCH  16  18
ATOM     18  S   UNL     1       2.946   5.336  18.986  0.00  0.00    +0.000 S 
ATOM     19  O   UNL     1       2.472   4.801  17.732  0.00  0.00    +0.000 OA
ATOM     20  O   UNL     1       2.814   4.611  20.225  0.00  0.00    +0.000 OA
BRANCH  18  21
ATOM     21  C   UNL     1       2.201   6.946  19.171  0.00  0.00    +0.000 A 
ATOM     22  C   UNL     1       2.209   7.855  18.110  0.00  0.00    +0.000 A 
ATOM     23  C   UNL     1       1.638   9.121  18.280  0.00  0.00    +0.000 A 
ATOM     24  C   UNL     1       1.065   9.493  19.505  0.00  0.00    +0.000 A 
ATOM     25  C   UNL     1       1.093   8.585  20.581  0.00  0.00    +0.000 A 
ATOM     26  C   UNL     1       1.649   7.307  20.401  0.00  0.00    +0.000 A 
ATOM     27  C   UNL     1       0.492   8.928  21.921  0.00  0.00    +0.000 C 
ATOM     28  C   UNL     1       0.250  10.422  22.116  0.00  0.00    +0.000 C 
ATOM     29  C   UNL     1      -0.414  11.022  20.884  0.00  0.00    +0.000 C 
ATOM     30  C   UNL     1       0.502  10.887  19.669  0.00  0.00    +0.000 C 
ENDBRANCH  18  21
ENDBRANCH  16  18
ENDBRANCH   6  16
TORSDOF 6
ENDMDL
MODEL 2
REMARK VINA RESULT:      -8.8      0.751      1.701
REMARK  Name = 
REMARK  7 active torsions:
REMARK  status: ('A' for Active; 'I' for Inactive)
REMARK    1  A    between atoms: C_1  and  O_2
REMARK    2  A    between atoms: O_2  and  C_3
REMARK    3  A    between atoms: C_3  and  C_5
REMARK    4  A    between atoms: N_7  and  C_8
REMARK    5  A    between atoms: C_13  and  N_14
REMARK    6  A    between atoms: N_14  and  S_15
REMARK    7  A    between atoms: S_15  and  C_18
REMARK                            x       y       z     vdW  Elec       q    Type
REMARK                         _______ _______ _______ _____ _____    ______ ____
ROOT
ATOM      1  C   UNL     1       6.483   4.780  17.058  0.00  0.00    +0.000 C 
ATOM      2  C   UNL     1       7.529   5.634  17.785  0.00  0.00    +0.000 C 
ATOM      3  C   UNL     1       7.478   7.112  17.423  0.00  0.00    +0.000 C 
ATOM      4  C   UNL     1       6.077   7.705  17.523  0.00  0.00    +0.000 C 
ATOM      5  C   UNL     1       5.016   6.859  16.822  0.00  0.00    +0.000 C 
ATOM      6  C   UNL     1       5.061   5.367  17.227  0.00  0.00    +0.000 C 
ENDROOT
BRANCH   1   9
ATOM      7  C   UNL     1       6.475   3.926  13.606  0.00  0.00    +0.000 A 
ATOM      8  C   UNL     1       6.245   3.499  14.900  0.00  0.00    +0.000 A 
ATOM      9  N   UNL     1       6.836   4.460  15.677  0.00  0.00    +0.000 N 
ATOM     10  N   UNL     1       7.558   5.301  14.919  0.00  0.00    +0.000 NA
ATOM     11  N   UNL     1       7.322   5.007  13.649  0.00  0.00    +0.000 NA
BRANCH   7  12
ATOM     12  C   UNL     1       5.890   3.404  12.383  0.00  0.00    +0.000 C 
ATOM     13  O   UNL     1       4.724   3.599  12.056  0.00  0.00    +0.000 OA
BRANCH  12  15
ATOM     14  C   UNL     1       6.383   1.419  11.206  0.00  0.00    +0.000 C 
ATOM     15  O   UNL     1       6.797   2.717  11.628  0.00  0.00    +0.000 OA
ENDBRANCH  12  15
ENDBRANCH   7  12
ENDBRANCH   1   9
BRANCH   6  16
ATOM     16  N   UNL     1       4.580   5.270  18.649  0.00  0.00    +0.000 NA
ATOM     17  H   UNL     1       4.867   6.049  19.248  0.00  0.00    +0.000 HD
BRANCH  16  18
ATOM     18  S   UNL     1       2.953   4.917  18.976  0.00  0.00    +0.000 S 
ATOM     19  O   UNL     1       2.356   4.637  17.693  0.00  0.00    +0.000 OA
ATOM     20  O   UNL     1       2.916   3.967  20.061  0.00  0.00    +0.000 OA
BRANCH  18  21
ATOM     21  C   UNL     1       2.266   6.465  19.535  0.00  0.00    +0.000 A 
ATOM     22  C   UNL     1       1.686   6.564  20.802  0.00  0.00    +0.000 A 
ATOM     23  C   UNL     1       1.133   7.782  21.216  0.00  0.00    +0.000 A 
ATOM     24  C   UNL     1       1.146   8.901  20.372  0.00  0.00    +0.000 A 
ATOM     25  C   UNL     1       1.700   8.783  19.082  0.00  0.00    +0.000 A 
ATOM     26  C   UNL     1       2.272   7.565  18.677  0.00  0.00    +0.000 A 
ATOM     27  C   UNL     1       1.742   9.953  18.131  0.00  0.00    +0.000 C 
ATOM     28  C   UNL     1       0.798  11.088  18.516  0.00  0.00    +0.000 C 
ATOM     29  C   UNL     1       0.913  11.399  20.002  0.00  0.00    +0.000 C 
ATOM     30  C   UNL     1       0.494  10.186  20.832  0.00  0.00    +0.000 C 
ENDBRANCH  18  21
ENDBRANCH  16  18
ENDBRANCH   6  16
TORSDOF 6
ENDMDL
MODEL 3
REMARK VINA RESULT:      -8.3      2.959      5.120
REMARK  Name = 
REMARK  7 active torsions:
REMARK  status: ('A' for Active; 'I' for Inactive)
REMARK    1  A    between atoms: C_1  and  O_2
REMARK    2  A    between atoms: O_2  and  C_3
REMARK    3  A    between atoms: C_3  and  C_5
REMARK    4  A    between atoms: N_7  and  C_8
REMARK    5  A    between atoms: C_13  and  N_14
REMARK    6  A    between atoms: N_14  and  S_15
REMARK    7  A    between atoms: S_15  and  C_18
REMARK                            x       y       z     vdW  Elec       q    Type
REMARK                         _______ _______ _______ _____ _____    ______ ____
ROOT
ATOM      1  C   UNL     1       5.705   5.931  17.067  0.00  0.00    +0.000 C 
ATOM      2  C   UNL     1       5.159   6.291  15.679  0.00  0.00    +0.000 C 
ATOM      3  C   UNL     1       5.906   5.627  14.530  0.00  0.00    +0.000 C 
ATOM      4  C   UNL     1       6.072   4.123  14.715  0.00  0.00    +0.000 C 
ATOM      5  C   UNL     1       6.596   3.742  16.097  0.00  0.00    +0.000 C 
ATOM      6  C   UNL     1       5.803   4.398  17.252  0.00  0.00    +0.000 C 
ENDROOT
BRANCH   1   9
ATOM      7  C   UNL     1       8.102   8.356  18.077  0.00  0.00    +0.000 A 
ATOM      8  C   UNL     1       7.209   7.953  17.101  0.00  0.00    +0.000 A 
ATOM      9  N   UNL     1       6.919   6.655  17.431  0.00  0.00    +0.000 N 
ATOM     10  N   UNL     1       7.734   6.224  18.408  0.00  0.00    +0.000 NA
ATOM     11  N   UNL     1       8.440   7.261  18.835  0.00  0.00    +0.000 NA
BRANCH   7  12
ATOM     12  C   UNL     1       8.577   9.702  18.343  0.00  0.00    +0.000 C 
ATOM     13  O   UNL     1       8.263  10.674  17.664  0.00  0.00    +0.000 OA
BRANCH  12  15
ATOM     14  C   UNL     1       9.838  11.063  19.801  0.00  0.00    +0.000 C 
ATOM     15  O   UNL     1       9.369   9.761  19.453  0.00  0.00    +0.000 OA
ENDBRANCH  12  15
ENDBRANCH   7  12
ENDBRANCH   1   9
BRANCH   6  16
ATOM     16  N   UNL     1       4.446   3.750  17.294  0.00  0.00    +0.000 NA
ATOM     17  H   UNL     1       4.338   2.950  16.665  0.00  0.00    +0.000 HD
BRANCH  16  18
ATOM     18  S   UNL     1       3.736   3.356  18.784  0.00  0.00    +0.000 S 
ATOM     19  O   UNL     1       2.673   2.433  18.469  0.00  0.00    +0.000 OA
ATOM     20  O   UNL     1       4.795   3.019  19.703  0.00  0.00    +0.000 OA
BRANCH  18  21
ATOM     21  C   UNL     1       2.959   4.869  19.321  0.00  0.00    +0.000 A 
ATOM     22  C   UNL     1       2.393   4.959  20.595  0.00  0.00    +0.000 A 
ATOM     23  C   UNL     1       1.770   6.148  20.992  0.00  0.00    +0.000 A 
ATOM     24  C   UNL     1       1.698   7.246  20.124  0.00  0.00    +0.000 A 
ATOM     25  C   UNL     1       2.238   7.136  18.827  0.00  0.00    +0.000 A 
ATOM     26  C   UNL     1       2.881   5.948  18.439  0.00  0.00    +0.000 A 
ATOM     27  C   UNL     1       2.190   8.283  17.851  0.00  0.00    +0.000 C 
ATOM     28  C   UNL     1       1.180   9.364  18.227  0.00  0.00    +0.000 C 
ATOM     29  C   UNL     1       1.299   9.715  19.704  0.00  0.00    +0.000 C 
ATOM     30  C   UNL     1       0.972   8.497  20.567  0.00  0.00    +0.000 C 
ENDBRANCH  18  21
ENDBRANCH  16  18
ENDBRANCH   6  16
TORSDOF 6
ENDMDL
MODEL 4
REMARK VINA RESULT:      -8.2      3.004      8.921
REMARK  Name = 
REMARK  7 active torsions:
REMARK  status: ('A' for Active; 'I' for Inactive)
REMARK    1  A    between atoms: C_1  and  O_2
REMARK    2  A    between atoms: O_2  and  C_3
REMARK    3  A    between atoms: C_3  and  C_5
REMARK    4  A    between atoms: N_7  and  C_8
REMARK    5  A    between atoms: C_13  and  N_14
REMARK    6  A    between atoms: N_14  and  S_15
REMARK    7  A    between atoms: S_15  and  C_18
REMARK                            x       y       z     vdW  Elec       q    Type
REMARK                         _______ _______ _______ _____ _____    ______ ____
ROOT
ATOM      1  C   UNL     1       2.791   5.953  19.696  0.00  0.00    +0.000 C 
ATOM      2  C   UNL     1       2.367   4.817  20.635  0.00  0.00    +0.000 C 
ATOM      3  C   UNL     1       1.170   4.018  20.138  0.00  0.00    +0.000 C 
ATOM      4  C   UNL     1       1.322   3.550  18.694  0.00  0.00    +0.000 C 
ATOM      5  C   UNL     1       1.763   4.662  17.746  0.00  0.00    +0.000 C 
ATOM      6  C   UNL     1       3.001   5.440  18.252  0.00  0.00    +0.000 C 
ENDROOT
BRANCH   1   9
ATOM      7  C   UNL     1       1.189   8.975  20.669  0.00  0.00    +0.000 A 
ATOM      8  C   UNL     1       1.374   7.631  20.933  0.00  0.00    +0.000 A 
ATOM      9  N   UNL     1       1.951   7.143  19.790  0.00  0.00    +0.000 N 
ATOM     10  N   UNL     1       1.926   8.070  18.818  0.00  0.00    +0.000 NA
ATOM     11  N   UNL     1       1.493   9.204  19.349  0.00  0.00    +0.000 NA
BRANCH   7  12
ATOM     12  C   UNL     1       0.809  10.018  21.605  0.00  0.00    +0.000 C 
ATOM     13  O   UNL     1       0.991  11.212  21.394  0.00  0.00    +0.000 OA
BRANCH  12  15
ATOM     14  C   UNL     1      -0.933  10.260  23.179  0.00  0.00    +0.000 C 
ATOM     15  O   UNL     1       0.194   9.517  22.716  0.00  0.00    +0.000 OA
ENDBRANCH  12  15
ENDBRANCH   7  12
ENDBRANCH   1   9
BRANCH   6  16
ATOM     16  N   UNL     1       4.186   4.519  18.150  0.00  0.00    +0.000 NA
ATOM     17  H   UNL     1       4.072   3.752  17.481  0.00  0.00    +0.000 HD
BRANCH  16  18
ATOM     18  S   UNL     1       5.748   5.156  17.969  0.00  0.00    +0.000 S 
ATOM     19  O   UNL     1       5.596   6.585  18.097  0.00  0.00    +0.000 OA
ATOM     20  O   UNL     1       6.635   4.402  18.820  0.00  0.00    +0.000 OA
BRANCH  18  21
ATOM     21  C   UNL     1       6.165   4.835  16.265  0.00  0.00    +0.000 A 
ATOM     22  C   UNL     1       7.391   5.258  15.745  0.00  0.00    +0.000 A 
ATOM     23  C   UNL     1       7.692   5.015  14.401  0.00  0.00    +0.000 A 
ATOM     24  C   UNL     1       6.776   4.360  13.565  0.00  0.00    +0.000 A 
ATOM     25  C   UNL     1       5.528   3.969  14.087  0.00  0.00    +0.000 A 
ATOM     26  C   UNL     1       5.236   4.196  15.442  0.00  0.00    +0.000 A 
ATOM     27  C   UNL     1       4.503   3.261  13.236  0.00  0.00    +0.000 C 
ATOM     28  C   UNL     1       4.762   3.387  11.737  0.00  0.00    +0.000 C 
ATOM     29  C   UNL     1       6.228   3.119  11.423  0.00  0.00    +0.000 C 
ATOM     30  C   UNL     1       7.114   4.160  12.104  0.00  0.00    +0.000 C 
ENDBRANCH  18  21
ENDBRANCH  16  18
ENDBRANCH   6  16
TORSDOF 6
ENDMDL
MODEL 5
REMARK VINA RESULT:      -8.1      0.830      1.251
REMARK  Name = 
REMARK  7 active torsions:
REMARK  status: ('A' for Active; 'I' for Inactive)
REMARK    1  A    between atoms: C_1  and  O_2
REMARK    2  A    between atoms: O_2  and  C_3
REMARK    3  A    between atoms: C_3  and  C_5
REMARK    4  A    between atoms: N_7  and  C_8
REMARK    5  A    between atoms: C_13  and  N_14
REMARK    6  A    between atoms: N_14  and  S_15
REMARK    7  A    between atoms: S_15  and  C_18
REMARK                            x       y       z     vdW  Elec       q    Type
REMARK                         _______ _______ _______ _____ _____    ______ ____
ROOT
ATOM      1  C   UNL     1       6.037   5.059  17.136  0.00  0.00    +0.000 C 
ATOM      2  C   UNL     1       6.871   4.505  18.299  0.00  0.00    +0.000 C 
ATOM      3  C   UNL     1       8.181   5.245  18.526  0.00  0.00    +0.000 C 
ATOM      4  C   UNL     1       8.008   6.758  18.607  0.00  0.00    +0.000 C 
ATOM      5  C   UNL     1       7.165   7.327  17.468  0.00  0.00    +0.000 C 
ATOM      6  C   UNL     1       5.822   6.584  17.274  0.00  0.00    +0.000 C 
ENDROOT
BRANCH   1   9
ATOM      7  C   UNL     1       6.329   4.012  13.749  0.00  0.00    +0.000 A 
ATOM      8  C   UNL     1       5.939   3.674  15.032  0.00  0.00    +0.000 A 
ATOM      9  N   UNL     1       6.509   4.640  15.818  0.00  0.00    +0.000 N 
ATOM     10  N   UNL     1       7.360   5.390  15.100  0.00  0.00    +0.000 NA
ATOM     11  N   UNL     1       7.237   5.040  13.829  0.00  0.00    +0.000 NA
BRANCH   7  12
ATOM     12  C   UNL     1       5.841   3.457  12.499  0.00  0.00    +0.000 C 
ATOM     13  O   UNL     1       4.660   3.479  12.167  0.00  0.00    +0.000 OA
BRANCH  12  15
ATOM     14  C   UNL     1       6.649   1.626  11.249  0.00  0.00    +0.000 C 
ATOM     15  O   UNL     1       6.849   2.955  11.727  0.00  0.00    +0.000 OA
ENDBRANCH  12  15
ENDBRANCH   7  12
ENDBRANCH   1   9
BRANCH   6  16
ATOM     16  N   UNL     1       4.945   6.922  18.448  0.00  0.00    +0.000 NA
ATOM     17  H   UNL     1       4.868   7.924  18.645  0.00  0.00    +0.000 HD
BRANCH  16  18
ATOM     18  S   UNL     1       3.401   6.231  18.586  0.00  0.00    +0.000 S 
ATOM     19  O   UNL     1       3.086   5.732  17.270  0.00  0.00    +0.000 OA
ATOM     20  O   UNL     1       3.401   5.378  19.748  0.00  0.00    +0.000 OA
BRANCH  18  21
ATOM     21  C   UNL     1       2.318   7.618  18.881  0.00  0.00    +0.000 A 
ATOM     22  C   UNL     1       2.007   8.504  17.847  0.00  0.00    +0.000 A 
ATOM     23  C   UNL     1       1.171   9.597  18.102  0.00  0.00    +0.000 A 
ATOM     24  C   UNL     1       0.651   9.821  19.384  0.00  0.00    +0.000 A 
ATOM     25  C   UNL     1       0.999   8.945  20.431  0.00  0.00    +0.000 A 
ATOM     26  C   UNL     1       1.821   7.836  20.167  0.00  0.00    +0.000 A 
ATOM     27  C   UNL     1       0.470   9.134  21.830  0.00  0.00    +0.000 C 
ATOM     28  C   UNL     1      -0.098  10.528  22.084  0.00  0.00    +0.000 C 
ATOM     29  C   UNL     1      -1.004  10.954  20.936  0.00  0.00    +0.000 C 
ATOM     30  C   UNL     1      -0.207  11.042  19.636  0.00  0.00    +0.000 C 
ENDBRANCH  18  21
ENDBRANCH  16  18
ENDBRANCH   6  16
TORSDOF 6
ENDMDL
MODEL 6
REMARK VINA RESULT:      -8.0      2.890      4.924
REMARK  Name = 
REMARK  7 active torsions:
REMARK  status: ('A' for Active; 'I' for Inactive)
REMARK    1  A    between atoms: C_1  and  O_2
REMARK    2  A    between atoms: O_2  and  C_3
REMARK    3  A    between atoms: C_3  and  C_5
REMARK    4  A    between atoms: N_7  and  C_8
REMARK    5  A    between atoms: C_13  and  N_14
REMARK    6  A    between atoms: N_14  and  S_15
REMARK    7  A    between atoms: S_15  and  C_18
REMARK                            x       y       z     vdW  Elec       q    Type
REMARK                         _______ _______ _______ _____ _____    ______ ____
ROOT
ATOM      1  C   UNL     1       5.583   6.400  16.957  0.00  0.00    +0.000 C 
ATOM      2  C   UNL     1       5.371   6.416  15.438  0.00  0.00    +0.000 C 
ATOM      3  C   UNL     1       6.121   5.316  14.698  0.00  0.00    +0.000 C 
ATOM      4  C   UNL     1       5.899   3.932  15.300  0.00  0.00    +0.000 C 
ATOM      5  C   UNL     1       6.087   3.900  16.815  0.00  0.00    +0.000 C 
ATOM      6  C   UNL     1       5.291   5.003  17.551  0.00  0.00    +0.000 C 
ENDROOT
BRANCH   1   9
ATOM      7  C   UNL     1       8.184   8.494  18.180  0.00  0.00    +0.000 A 
ATOM      8  C   UNL     1       7.263   8.267  17.174  0.00  0.00    +0.000 A 
ATOM      9  N   UNL     1       6.856   6.975  17.382  0.00  0.00    +0.000 N 
ATOM     10  N   UNL     1       7.625   6.383  18.311  0.00  0.00    +0.000 NA
ATOM     11  N   UNL     1       8.419   7.307  18.830  0.00  0.00    +0.000 NA
BRANCH   7  12
ATOM     12  C   UNL     1       8.777   9.762  18.569  0.00  0.00    +0.000 C 
ATOM     13  O   UNL     1       9.433   9.913  19.593  0.00  0.00    +0.000 OA
BRANCH  12  15
ATOM     14  C   UNL     1       8.989  12.048  18.021  0.00  0.00    +0.000 C 
ATOM     15  O   UNL     1       8.555  10.742  17.644  0.00  0.00    +0.000 OA
ENDBRANCH  12  15
ENDBRANCH   7  12
ENDBRANCH   1   9
BRANCH   6  16
ATOM     16  N   UNL     1       3.832   4.647  17.457  0.00  0.00    +0.000 NA
ATOM     17  H   UNL     1       3.615   3.930  16.759  0.00  0.00    +0.000 HD
BRANCH  16  18
ATOM     18  S   UNL     1       2.944   4.309  18.863  0.00  0.00    +0.000 S 
ATOM     19  O   UNL     1       1.799   3.551  18.419  0.00  0.00    +0.000 OA
ATOM     20  O   UNL     1       3.860   3.801  19.853  0.00  0.00    +0.000 OA
BRANCH  18  21
ATOM     21  C   UNL     1       2.333   5.897  19.396  0.00  0.00    +0.000 A 
ATOM     22  C   UNL     1       1.779   6.051  20.669  0.00  0.00    +0.000 A 
ATOM     23  C   UNL     1       1.286   7.300  21.063  0.00  0.00    +0.000 A 
ATOM     24  C   UNL     1       1.333   8.398  20.193  0.00  0.00    +0.000 A 
ATOM     25  C   UNL     1       1.859   8.227  18.897  0.00  0.00    +0.000 A 
ATOM     26  C   UNL     1       2.372   6.977  18.512  0.00  0.00    +0.000 A 
ATOM     27  C   UNL     1       1.936   9.372  17.918  0.00  0.00    +0.000 C 
ATOM     28  C   UNL     1       1.047  10.555  18.291  0.00  0.00    +0.000 C 
ATOM     29  C   UNL     1       1.201  10.894  19.768  0.00  0.00    +0.000 C 
ATOM     30  C   UNL     1       0.744   9.720  20.632  0.00  0.00    +0.000 C 
ENDBRANCH  18  21
ENDBRANCH  16  18
ENDBRANCH   6  16
TORSDOF 6
ENDMDL
MODEL 7
REMARK VINA RESULT:      -8.0      2.885      4.719
REMARK  Name = 
REMARK  7 active torsions:
REMARK  status: ('A' for Active; 'I' for Inactive)
REMARK    1  A    between atoms: C_1  and  O_2
REMARK    2  A    between atoms: O_2  and  C_3
REMARK    3  A    between atoms: C_3  and  C_5
REMARK    4  A    between atoms: N_7  and  C_8
REMARK    5  A    between atoms: C_13  and  N_14
REMARK    6  A    between atoms: N_14  and  S_15
REMARK    7  A    between atoms: S_15  and  C_18
REMARK                            x       y       z     vdW  Elec       q    Type
REMARK                         _______ _______ _______ _____ _____    ______ ____
ROOT
ATOM      1  C   UNL     1       5.541   6.555  17.109  0.00  0.00    +0.000 C 
ATOM      2  C   UNL     1       5.283   6.521  15.597  0.00  0.00    +0.000 C 
ATOM      3  C   UNL     1       5.982   5.376  14.876  0.00  0.00    +0.000 C 
ATOM      4  C   UNL     1       5.746   4.021  15.535  0.00  0.00    +0.000 C 
ATOM      5  C   UNL     1       5.979   4.039  17.044  0.00  0.00    +0.000 C 
ATOM      6  C   UNL     1       5.234   5.187  17.763  0.00  0.00    +0.000 C 
ENDROOT
BRANCH   1   9
ATOM      7  C   UNL     1       8.220   8.589  18.262  0.00  0.00    +0.000 A 
ATOM      8  C   UNL     1       7.229   8.416  17.314  0.00  0.00    +0.000 A 
ATOM      9  N   UNL     1       6.841   7.111  17.474  0.00  0.00    +0.000 N 
ATOM     10  N   UNL     1       7.677   6.470  18.307  0.00  0.00    +0.000 NA
ATOM     11  N   UNL     1       8.505   7.367  18.822  0.00  0.00    +0.000 NA
BRANCH   7  12
ATOM     12  C   UNL     1       8.837   9.836  18.682  0.00  0.00    +0.000 C 
ATOM     13  O   UNL     1       9.347   9.997  19.785  0.00  0.00    +0.000 OA
BRANCH  12  15
ATOM     14  C   UNL     1       9.738  11.858  17.864  0.00  0.00    +0.000 C 
ATOM     15  O   UNL     1       8.820  10.779  17.695  0.00  0.00    +0.000 OA
ENDBRANCH  12  15
ENDBRANCH   7  12
ENDBRANCH   1   9
BRANCH   6  16
ATOM     16  N   UNL     1       3.765   4.866  17.725  0.00  0.00    +0.000 NA
ATOM     17  H   UNL     1       3.537   3.970  17.285  0.00  0.00    +0.000 HD
BRANCH  16  18
ATOM     18  S   UNL     1       2.821   5.026  19.126  0.00  0.00    +0.000 S 
ATOM     19  O   UNL     1       1.669   4.184  18.911  0.00  0.00    +0.000 OA
ATOM     20  O   UNL     1       3.688   4.859  20.265  0.00  0.00    +0.000 OA
BRANCH  18  21
ATOM     21  C   UNL     1       2.240   6.711  19.080  0.00  0.00    +0.000 A 
ATOM     22  C   UNL     1       2.346   7.464  17.908  0.00  0.00    +0.000 A 
ATOM     23  C   UNL     1       1.903   8.792  17.896  0.00  0.00    +0.000 A 
ATOM     24  C   UNL     1       1.362   9.379  19.048  0.00  0.00    +0.000 A 
ATOM     25  C   UNL     1       1.292   8.626  20.236  0.00  0.00    +0.000 A 
ATOM     26  C   UNL     1       1.719   7.287  20.240  0.00  0.00    +0.000 A 
ATOM     27  C   UNL     1       0.720   9.205  21.506  0.00  0.00    +0.000 C 
ATOM     28  C   UNL     1       0.628  10.728  21.495  0.00  0.00    +0.000 C 
ATOM     29  C   UNL     1       0.035  11.219  20.181  0.00  0.00    +0.000 C 
ATOM     30  C   UNL     1       0.941  10.832  19.014  0.00  0.00    +0.000 C 
ENDBRANCH  18  21
ENDBRANCH  16  18
ENDBRANCH   6  16
TORSDOF 6
ENDMDL
MODEL 8
REMARK VINA RESULT:      -7.9      2.401      3.963
REMARK  Name = 
REMARK  7 active torsions:
REMARK  status: ('A' for Active; 'I' for Inactive)
REMARK    1  A    between atoms: C_1  and  O_2
REMARK    2  A    between atoms: O_2  and  C_3
REMARK    3  A    between atoms: C_3  and  C_5
REMARK    4  A    between atoms: N_7  and  C_8
REMARK    5  A    between atoms: C_13  and  N_14
REMARK    6  A    between atoms: N_14  and  S_15
REMARK    7  A    between atoms: S_15  and  C_18
REMARK                            x       y       z     vdW  Elec       q    Type
REMARK                         _______ _______ _______ _____ _____    ______ ____
ROOT
ATOM      1  C   UNL     1       5.956   5.614  16.915  0.00  0.00    +0.000 C 
ATOM      2  C   UNL     1       6.411   4.952  18.222  0.00  0.00    +0.000 C 
ATOM      3  C   UNL     1       7.809   5.358  18.665  0.00  0.00    +0.000 C 
ATOM      4  C   UNL     1       8.019   6.868  18.677  0.00  0.00    +0.000 C 
ATOM      5  C   UNL     1       7.555   7.549  17.392  0.00  0.00    +0.000 C 
ATOM      6  C   UNL     1       6.119   7.151  16.976  0.00  0.00    +0.000 C 
ENDROOT
BRANCH   1   9
ATOM      7  C   UNL     1       6.490   4.108  13.738  0.00  0.00    +0.000 A 
ATOM      8  C   UNL     1       5.970   3.963  15.011  0.00  0.00    +0.000 A 
ATOM      9  N   UNL     1       6.519   5.002  15.715  0.00  0.00    +0.000 N 
ATOM     10  N   UNL     1       7.471   5.612  14.990  0.00  0.00    +0.000 NA
ATOM     11  N   UNL     1       7.442   5.098  13.769  0.00  0.00    +0.000 NA
BRANCH   7  12
ATOM     12  C   UNL     1       6.085   3.410  12.530  0.00  0.00    +0.000 C 
ATOM     13  O   UNL     1       6.881   2.946  11.721  0.00  0.00    +0.000 OA
BRANCH  12  15
ATOM     14  C   UNL     1       4.215   3.256  11.099  0.00  0.00    +0.000 C 
ATOM     15  O   UNL     1       4.728   3.296  12.430  0.00  0.00    +0.000 OA
ENDBRANCH  12  15
ENDBRANCH   7  12
ENDBRANCH   1   9
BRANCH   6  16
ATOM     16  N   UNL     1       5.173   7.777  17.964  0.00  0.00    +0.000 NA
ATOM     17  H   UNL     1       5.483   8.678  18.336  0.00  0.00    +0.000 HD
BRANCH  16  18
ATOM     18  S   UNL     1       3.518   7.888  17.607  0.00  0.00    +0.000 S 
ATOM     19  O   UNL     1       3.067   9.097  18.254  0.00  0.00    +0.000 OA
ATOM     20  O   UNL     1       3.356   7.673  16.191  0.00  0.00    +0.000 OA
BRANCH  18  21
ATOM     21  C   UNL     1       2.779   6.527  18.491  0.00  0.00    +0.000 A 
ATOM     22  C   UNL     1       2.337   6.695  19.806  0.00  0.00    +0.000 A 
ATOM     23  C   UNL     1       1.779   5.610  20.492  0.00  0.00    +0.000 A 
ATOM     24  C   UNL     1       1.665   4.354  19.879  0.00  0.00    +0.000 A 
ATOM     25  C   UNL     1       2.146   4.183  18.566  0.00  0.00    +0.000 A 
ATOM     26  C   UNL     1       2.688   5.279  17.874  0.00  0.00    +0.000 A 
ATOM     27  C   UNL     1       2.051   2.856  17.857  0.00  0.00    +0.000 C 
ATOM     28  C   UNL     1       1.792   1.679  18.794  0.00  0.00    +0.000 C 
ATOM     29  C   UNL     1       0.684   2.018  19.783  0.00  0.00    +0.000 C 
ATOM     30  C   UNL     1       1.104   3.191  20.667  0.00  0.00    +0.000 C 
ENDBRANCH  18  21
ENDBRANCH  16  18
ENDBRANCH   6  16
TORSDOF 6
ENDMDL
MODEL 9
REMARK VINA RESULT:      -7.9      0.794      1.643
REMARK  Name = 
REMARK  7 active torsions:
REMARK  status: ('A' for Active; 'I' for Inactive)
REMARK    1  A    between atoms: C_1  and  O_2
REMARK    2  A    between atoms: O_2  and  C_3
REMARK    3  A    between atoms: C_3  and  C_5
REMARK    4  A    between atoms: N_7  and  C_8
REMARK    5  A    between atoms: C_13  and  N_14
REMARK    6  A    between atoms: N_14  and  S_15
REMARK    7  A    between atoms: S_15  and  C_18
REMARK                            x       y       z     vdW  Elec       q    Type
REMARK                         _______ _______ _______ _____ _____    ______ ____
ROOT
ATOM      1  C   UNL     1       6.070   5.134  17.183  0.00  0.00    +0.000 C 
ATOM      2  C   UNL     1       6.912   4.646  18.368  0.00  0.00    +0.000 C 
ATOM      3  C   UNL     1       8.194   5.438  18.584  0.00  0.00    +0.000 C 
ATOM      4  C   UNL     1       7.966   6.946  18.617  0.00  0.00    +0.000 C 
ATOM      5  C   UNL     1       7.114   7.450  17.454  0.00  0.00    +0.000 C 
ATOM      6  C   UNL     1       5.800   6.655  17.273  0.00  0.00    +0.000 C 
ENDROOT
BRANCH   1   9
ATOM      7  C   UNL     1       6.428   4.034  13.820  0.00  0.00    +0.000 A 
ATOM      8  C   UNL     1       6.009   3.718  15.099  0.00  0.00    +0.000 A 
ATOM      9  N   UNL     1       6.567   4.693  15.883  0.00  0.00    +0.000 N 
ATOM     10  N   UNL     1       7.438   5.428  15.171  0.00  0.00    +0.000 NA
ATOM     11  N   UNL     1       7.340   5.059  13.903  0.00  0.00    +0.000 NA
BRANCH   7  12
ATOM     12  C   UNL     1       5.964   3.463  12.568  0.00  0.00    +0.000 C 
ATOM     13  O   UNL     1       6.705   2.907  11.764  0.00  0.00    +0.000 OA
BRANCH  12  15
ATOM     14  C   UNL     1       4.096   3.131  11.165  0.00  0.00    +0.000 C 
ATOM     15  O   UNL     1       4.612   3.579  12.417  0.00  0.00    +0.000 OA
ENDBRANCH  12  15
ENDBRANCH   7  12
ENDBRANCH   1   9
BRANCH   6  16
ATOM     16  N   UNL     1       4.901   6.997  18.429  0.00  0.00    +0.000 NA
ATOM     17  H   UNL     1       4.712   7.997  18.538  0.00  0.00    +0.000 HD
BRANCH  16  18
ATOM     18  S   UNL     1       3.448   6.152  18.659  0.00  0.00    +0.000 S 
ATOM     19  O   UNL     1       2.945   5.888  17.332  0.00  0.00    +0.000 OA
ATOM     20  O   UNL     1       3.695   5.096  19.608  0.00  0.00    +0.000 OA
BRANCH  18  21
ATOM     21  C   UNL     1       2.349   7.350  19.394  0.00  0.00    +0.000 A 
ATOM     22  C   UNL     1       1.836   7.144  20.677  0.00  0.00    +0.000 A 
ATOM     23  C   UNL     1       0.959   8.084  21.230  0.00  0.00    +0.000 A 
ATOM     24  C   UNL     1       0.581   9.225  20.509  0.00  0.00    +0.000 A 
ATOM     25  C   UNL     1       1.072   9.408  19.201  0.00  0.00    +0.000 A 
ATOM     26  C   UNL     1       1.968   8.472  18.657  0.00  0.00    +0.000 A 
ATOM     27  C   UNL     1       0.700  10.615  18.378  0.00  0.00    +0.000 C 
ATOM     28  C   UNL     1      -0.526  11.358  18.903  0.00  0.00    +0.000 C 
ATOM     29  C   UNL     1      -0.430  11.549  20.411  0.00  0.00    +0.000 C 
ATOM     30  C   UNL     1      -0.409  10.194  21.117  0.00  0.00    +0.000 C 
ENDBRANCH  18  21
ENDBRANCH  16  18
ENDBRANCH   6  16
TORSDOF 6
ENDMDL
