MODEL 1
REMARK VINA RESULT:      -8.6      0.000      0.000
REMARK  Name = 
REMARK  9 active torsions:
REMARK  status: ('A' for Active; 'I' for Inactive)
REMARK    1  A    between atoms: C_1  and  C_2
REMARK    2  A    between atoms: C_2  and  C_3
REMARK    3  A    between atoms: C_2  and  N_11
REMARK    4  A    between atoms: C_3  and  C_4
REMARK    5  A    between atoms: C_4  and  C_5
REMARK    6  A    between atoms: C_12  and  C_14
REMARK    7  A    between atoms: C_14  and  N_15
REMARK    8  A    between atoms: N_25  and  C_26
REMARK    9  A    between atoms: C_26  and  C_27
REMARK                            x       y       z     vdW  Elec       q    Type
REMARK                         _______ _______ _______ _____ _____    ______ ____
ROOT
ATOM      1  N   UNL     1       1.746   8.265  19.494  0.00  0.00    +0.000 N 
ATOM      2  N   UNL     1       1.515   7.908  20.829  0.00  0.00    +0.000 NA
ATOM      3  C   UNL     1       0.794   8.680  21.579  0.00  0.00    +0.000 A 
ATOM      4  C   UNL     1       0.183   9.855  21.038  0.00  0.00    +0.000 A 
ATOM      5  C   UNL     1      -0.638  10.828  21.636  0.00  0.00    +0.000 A 
ATOM      6  C   UNL     1      -1.028  11.090  22.961  0.00  0.00    +0.000 A 
ATOM      7  C   UNL     1      -2.078  11.974  23.192  0.00  0.00    +0.000 A 
ATOM      8  C   UNL     1      -2.733  12.578  22.123  0.00  0.00    +0.000 A 
ATOM      9  C   UNL     1      -2.275  12.427  20.803  0.00  0.00    +0.000 A 
ATOM     10  C   UNL     1      -1.180  11.576  20.583  0.00  0.00    +0.000 A 
ATOM     11  N   UNL     1      -0.415  11.290  19.452  0.00  0.00    +0.000 N 
ATOM     12  C   UNL     1       0.346  10.171  19.709  0.00  0.00    +0.000 A 
ATOM     13  C   UNL     1       1.232   9.415  18.863  0.00  0.00    +0.000 A 
ATOM     14  O   UNL     1       1.540   9.744  17.718  0.00  0.00    +0.000 OA
ENDROOT
BRANCH   1  15
ATOM     15  C   UNL     1       2.774   7.500  18.815  0.00  0.00    +0.000 C 
BRANCH  15  17
ATOM     16  N   UNL     1       2.814   5.422  20.102  0.00  0.00    +0.000 N 
ATOM     17  C   UNL     1       2.405   6.020  18.925  0.00  0.00    +0.000 C 
ATOM     18  O   UNL     1       1.770   5.442  18.047  0.00  0.00    +0.000 OA
ATOM     19  H   UNL     1       3.146   6.044  20.830  0.00  0.00    +0.000 HD
BRANCH  16  21
ATOM     20  C   UNL     1       1.169   3.594  20.736  0.00  0.00    +0.000 C 
ATOM     21  C   UNL     1       2.620   4.021  20.492  0.00  0.00    +0.000 C 
BRANCH  21  22
ATOM     22  C   UNL     1       3.261   3.074  19.458  0.00  0.00    +0.000 C 
BRANCH  22  23
ATOM     23  C   UNL     1       4.789   3.186  19.400  0.00  0.00    +0.000 C 
BRANCH  23  24
ATOM     24  C   UNL     1       5.233   4.127  18.308  0.00  0.00    +0.000 A 
ATOM     25  C   UNL     1       4.824   3.918  16.983  0.00  0.00    +0.000 A 
ATOM     26  C   UNL     1       5.255   4.770  15.970  0.00  0.00    +0.000 A 
ATOM     27  C   UNL     1       6.106   5.839  16.264  0.00  0.00    +0.000 A 
ATOM     28  C   UNL     1       6.522   6.048  17.578  0.00  0.00    +0.000 A 
ATOM     29  C   UNL     1       6.089   5.197  18.594  0.00  0.00    +0.000 A 
ENDBRANCH  23  24
ENDBRANCH  22  23
ENDBRANCH  21  22
ENDBRANCH  16  21
ENDBRANCH  15  17
ENDBRANCH   1  15
BRANCH  11  30
ATOM     30  C   UNL     1      -0.208  12.200  18.318  0.00  0.00    +0.000 C 
BRANCH  30  31
ATOM     31  C   UNL     1       0.817  13.301  18.500  0.00  0.00    +0.000 A 
ATOM     32  C   UNL     1       2.178  13.142  18.225  0.00  0.00    +0.000 A 
ATOM     33  C   UNL     1       3.065  14.215  18.389  0.00  0.00    +0.000 A 
ATOM     34  C   UNL     1       2.595  15.460  18.802  0.00  0.00    +0.000 A 
ATOM     35  C   UNL     1       1.238  15.642  19.058  0.00  0.00    +0.000 A 
ATOM     36  C   UNL     1       0.357  14.571  18.902  0.00  0.00    +0.000 A 
ENDBRANCH  30  31
ENDBRANCH  11  30
TORSDOF 8
ENDMDL
MODEL 2
REMARK VINA RESULT:      -8.6      0.364      1.195
REMARK  Name = 
REMARK  9 active torsions:
REMARK  status: ('A' for Active; 'I' for Inactive)
REMARK    1  A    between atoms: C_1  and  C_2
REMARK    2  A    between atoms: C_2  and  C_3
REMARK    3  A    between atoms: C_2  and  N_11
REMARK    4  A    between atoms: C_3  and  C_4
REMARK    5  A    between atoms: C_4  and  C_5
REMARK    6  A    between atoms: C_12  and  C_14
REMARK    7  A    between atoms: C_14  and  N_15
REMARK    8  A    between atoms: N_25  and  C_26
REMARK    9  A    between atoms: C_26  and  C_27
REMARK                            x       y       z     vdW  Elec       q    Type
REMARK                         _______ _______ _______ _____ _____    ______ ____
ROOT
ATOM      1  N   UNL     1       1.707   8.411  19.484  0.00  0.00    +0.000 N 
ATOM      2  N   UNL     1       1.528   8.069  20.831  0.00  0.00    +0.000 NA
ATOM      3  C   UNL     1       0.795   8.825  21.587  0.00  0.00    +0.000 A 
ATOM      4  C   UNL     1       0.119   9.962  21.042  0.00  0.00    +0.000 A 
ATOM      5  C   UNL     1      -0.726  10.910  21.646  0.00  0.00    +0.000 A 
ATOM      6  C   UNL     1      -1.090  11.180  22.977  0.00  0.00    +0.000 A 
ATOM      7  C   UNL     1      -2.170  12.024  23.222  0.00  0.00    +0.000 A 
ATOM      8  C   UNL     1      -2.880  12.579  22.161  0.00  0.00    +0.000 A 
ATOM      9  C   UNL     1      -2.452  12.423  20.832  0.00  0.00    +0.000 A 
ATOM     10  C   UNL     1      -1.328  11.615  20.596  0.00  0.00    +0.000 A 
ATOM     11  N   UNL     1      -0.582  11.340  19.449  0.00  0.00    +0.000 N 
ATOM     12  C   UNL     1       0.233  10.259  19.705  0.00  0.00    +0.000 A 
ATOM     13  C   UNL     1       1.127   9.526  18.848  0.00  0.00    +0.000 A 
ATOM     14  O   UNL     1       1.390   9.846  17.689  0.00  0.00    +0.000 OA
ENDROOT
BRANCH   1  15
ATOM     15  C   UNL     1       2.748   7.677  18.790  0.00  0.00    +0.000 C 
BRANCH  15  17
ATOM     16  N   UNL     1       2.799   5.586  20.055  0.00  0.00    +0.000 N 
ATOM     17  C   UNL     1       2.408   6.189  18.875  0.00  0.00    +0.000 C 
ATOM     18  O   UNL     1       1.806   5.609  17.975  0.00  0.00    +0.000 OA
ATOM     19  H   UNL     1       3.100   6.206  20.798  0.00  0.00    +0.000 HD
BRANCH  16  21
ATOM     20  C   UNL     1       1.177   3.713  20.612  0.00  0.00    +0.000 C 
ATOM     21  C   UNL     1       2.624   4.177  20.424  0.00  0.00    +0.000 C 
BRANCH  21  22
ATOM     22  C   UNL     1       3.325   3.256  19.405  0.00  0.00    +0.000 C 
BRANCH  22  23
ATOM     23  C   UNL     1       4.851   3.404  19.404  0.00  0.00    +0.000 C 
BRANCH  23  24
ATOM     24  C   UNL     1       5.347   4.006  18.113  0.00  0.00    +0.000 A 
ATOM     25  C   UNL     1       6.501   4.803  18.099  0.00  0.00    +0.000 A 
ATOM     26  C   UNL     1       6.943   5.380  16.911  0.00  0.00    +0.000 A 
ATOM     27  C   UNL     1       6.237   5.175  15.723  0.00  0.00    +0.000 A 
ATOM     28  C   UNL     1       5.086   4.390  15.731  0.00  0.00    +0.000 A 
ATOM     29  C   UNL     1       4.642   3.809  16.919  0.00  0.00    +0.000 A 
ENDBRANCH  23  24
ENDBRANCH  22  23
ENDBRANCH  21  22
ENDBRANCH  16  21
ENDBRANCH  15  17
ENDBRANCH   1  15
BRANCH  11  30
ATOM     30  C   UNL     1      -0.445  12.237  18.294  0.00  0.00    +0.000 C 
BRANCH  30  31
ATOM     31  C   UNL     1       0.418  13.468  18.479  0.00  0.00    +0.000 A 
ATOM     32  C   UNL     1      -0.083  14.710  18.877  0.00  0.00    +0.000 A 
ATOM     33  C   UNL     1       0.782  15.799  19.056  0.00  0.00    +0.000 A 
ATOM     34  C   UNL     1       2.153  15.648  18.866  0.00  0.00    +0.000 A 
ATOM     35  C   UNL     1       2.673  14.411  18.492  0.00  0.00    +0.000 A 
ATOM     36  C   UNL     1       1.810  13.329  18.306  0.00  0.00    +0.000 A 
ENDBRANCH  30  31
ENDBRANCH  11  30
TORSDOF 8
ENDMDL
MODEL 3
REMARK VINA RESULT:      -8.5      0.994      1.140
REMARK  Name = 
REMARK  9 active torsions:
REMARK  status: ('A' for Active; 'I' for Inactive)
REMARK    1  A    between atoms: C_1  and  C_2
REMARK    2  A    between atoms: C_2  and  C_3
REMARK    3  A    between atoms: C_2  and  N_11
REMARK    4  A    between atoms: C_3  and  C_4
REMARK    5  A    between atoms: C_4  and  C_5
REMARK    6  A    between atoms: C_12  and  C_14
REMARK    7  A    between atoms: C_14  and  N_15
REMARK    8  A    between atoms: N_25  and  C_26
REMARK    9  A    between atoms: C_26  and  C_27
REMARK                            x       y       z     vdW  Elec       q    Type
REMARK                         _______ _______ _______ _____ _____    ______ ____
ROOT
ATOM      1  N   UNL     1       1.928   8.182  19.017  0.00  0.00    +0.000 N 
ATOM      2  N   UNL     1       1.729   7.676  20.308  0.00  0.00    +0.000 NA
ATOM      3  C   UNL     1       1.046   8.367  21.165  0.00  0.00    +0.000 A 
ATOM      4  C   UNL     1       0.442   9.607  20.782  0.00  0.00    +0.000 A 
ATOM      5  C   UNL     1      -0.341  10.516  21.515  0.00  0.00    +0.000 A 
ATOM      6  C   UNL     1      -0.686  10.629  22.873  0.00  0.00    +0.000 A 
ATOM      7  C   UNL     1      -1.711  11.497  23.238  0.00  0.00    +0.000 A 
ATOM      8  C   UNL     1      -2.386  12.232  22.267  0.00  0.00    +0.000 A 
ATOM      9  C   UNL     1      -1.970  12.228  20.925  0.00  0.00    +0.000 A 
ATOM     10  C   UNL     1      -0.899  11.390  20.573  0.00  0.00    +0.000 A 
ATOM     11  N   UNL     1      -0.174  11.225  19.393  0.00  0.00    +0.000 N 
ATOM     12  C   UNL     1       0.573  10.072  19.495  0.00  0.00    +0.000 A 
ATOM     13  C   UNL     1       1.418   9.405  18.540  0.00  0.00    +0.000 A 
ATOM     14  O   UNL     1       1.699   9.860  17.431  0.00  0.00    +0.000 OA
ENDROOT
BRANCH   1  15
ATOM     15  C   UNL     1       2.920   7.484  18.221  0.00  0.00    +0.000 C 
BRANCH  15  17
ATOM     16  N   UNL     1       2.294   5.148  18.580  0.00  0.00    +0.000 N 
ATOM     17  C   UNL     1       3.201   6.141  18.896  0.00  0.00    +0.000 C 
ATOM     18  O   UNL     1       4.176   5.973  19.625  0.00  0.00    +0.000 OA
ATOM     19  H   UNL     1       1.658   5.348  17.816  0.00  0.00    +0.000 HD
BRANCH  16  21
ATOM     20  C   UNL     1       1.008   2.971  18.818  0.00  0.00    +0.000 C 
ATOM     21  C   UNL     1       2.291   3.767  19.075  0.00  0.00    +0.000 C 
BRANCH  21  22
ATOM     22  C   UNL     1       3.496   2.986  18.517  0.00  0.00    +0.000 C 
BRANCH  22  23
ATOM     23  C   UNL     1       3.645   3.108  16.996  0.00  0.00    +0.000 C 
BRANCH  23  24
ATOM     24  C   UNL     1       4.907   3.843  16.621  0.00  0.00    +0.000 A 
ATOM     25  C   UNL     1       5.094   4.310  15.312  0.00  0.00    +0.000 A 
ATOM     26  C   UNL     1       6.271   4.965  14.960  0.00  0.00    +0.000 A 
ATOM     27  C   UNL     1       7.280   5.159  15.907  0.00  0.00    +0.000 A 
ATOM     28  C   UNL     1       7.104   4.691  17.208  0.00  0.00    +0.000 A 
ATOM     29  C   UNL     1       5.924   4.036  17.564  0.00  0.00    +0.000 A 
ENDBRANCH  23  24
ENDBRANCH  22  23
ENDBRANCH  21  22
ENDBRANCH  16  21
ENDBRANCH  15  17
ENDBRANCH   1  15
BRANCH  11  30
ATOM     30  C   UNL     1       0.017  12.257  18.366  0.00  0.00    +0.000 C 
BRANCH  30  31
ATOM     31  C   UNL     1       1.088  13.297  18.628  0.00  0.00    +0.000 A 
ATOM     32  C   UNL     1       2.430  13.128  18.279  0.00  0.00    +0.000 A 
ATOM     33  C   UNL     1       3.362  14.146  18.526  0.00  0.00    +0.000 A 
ATOM     34  C   UNL     1       2.954  15.349  19.098  0.00  0.00    +0.000 A 
ATOM     35  C   UNL     1       1.616  15.544  19.430  0.00  0.00    +0.000 A 
ATOM     36  C   UNL     1       0.690  14.526  19.191  0.00  0.00    +0.000 A 
ENDBRANCH  30  31
ENDBRANCH  11  30
TORSDOF 8
ENDMDL
MODEL 4
REMARK VINA RESULT:      -8.4      1.047      1.604
REMARK  Name = 
REMARK  9 active torsions:
REMARK  status: ('A' for Active; 'I' for Inactive)
REMARK    1  A    between atoms: C_1  and  C_2
REMARK    2  A    between atoms: C_2  and  C_3
REMARK    3  A    between atoms: C_2  and  N_11
REMARK    4  A    between atoms: C_3  and  C_4
REMARK    5  A    between atoms: C_4  and  C_5
REMARK    6  A    between atoms: C_12  and  C_14
REMARK    7  A    between atoms: C_14  and  N_15
REMARK    8  A    between atoms: N_25  and  C_26
REMARK    9  A    between atoms: C_26  and  C_27
REMARK                            x       y       z     vdW  Elec       q    Type
REMARK                         _______ _______ _______ _____ _____    ______ ____
ROOT
ATOM      1  N   UNL     1       1.973   8.186  19.008  0.00  0.00    +0.000 N 
ATOM      2  N   UNL     1       1.751   7.663  20.288  0.00  0.00    +0.000 NA
ATOM      3  C   UNL     1       1.061   8.347  21.146  0.00  0.00    +0.000 A 
ATOM      4  C   UNL     1       0.472   9.596  20.773  0.00  0.00    +0.000 A 
ATOM      5  C   UNL     1      -0.316  10.501  21.507  0.00  0.00    +0.000 A 
ATOM      6  C   UNL     1      -0.680  10.596  22.862  0.00  0.00    +0.000 A 
ATOM      7  C   UNL     1      -1.704  11.466  23.225  0.00  0.00    +0.000 A 
ATOM      8  C   UNL     1      -2.359  12.221  22.255  0.00  0.00    +0.000 A 
ATOM      9  C   UNL     1      -1.923  12.234  20.919  0.00  0.00    +0.000 A 
ATOM     10  C   UNL     1      -0.853  11.393  20.571  0.00  0.00    +0.000 A 
ATOM     11  N   UNL     1      -0.111  11.241  19.400  0.00  0.00    +0.000 N 
ATOM     12  C   UNL     1       0.625  10.080  19.495  0.00  0.00    +0.000 A 
ATOM     13  C   UNL     1       1.479   9.421  18.542  0.00  0.00    +0.000 A 
ATOM     14  O   UNL     1       1.780   9.890  17.445  0.00  0.00    +0.000 OA
ENDROOT
BRANCH   1  15
ATOM     15  C   UNL     1       2.971   7.493  18.217  0.00  0.00    +0.000 C 
BRANCH  15  17
ATOM     16  N   UNL     1       2.327   5.155  18.520  0.00  0.00    +0.000 N 
ATOM     17  C   UNL     1       3.231   6.137  18.875  0.00  0.00    +0.000 C 
ATOM     18  O   UNL     1       4.188   5.952  19.622  0.00  0.00    +0.000 OA
ATOM     19  H   UNL     1       1.709   5.371  17.746  0.00  0.00    +0.000 HD
BRANCH  16  21
ATOM     20  C   UNL     1       1.003   2.999  18.745  0.00  0.00    +0.000 C 
ATOM     21  C   UNL     1       2.306   3.766  18.991  0.00  0.00    +0.000 C 
BRANCH  21  22
ATOM     22  C   UNL     1       3.484   2.971  18.395  0.00  0.00    +0.000 C 
BRANCH  22  23
ATOM     23  C   UNL     1       3.633   3.153  16.880  0.00  0.00    +0.000 C 
BRANCH  23  24
ATOM     24  C   UNL     1       4.934   3.831  16.531  0.00  0.00    +0.000 A 
ATOM     25  C   UNL     1       5.899   4.066  17.521  0.00  0.00    +0.000 A 
ATOM     26  C   UNL     1       7.089   4.716  17.204  0.00  0.00    +0.000 A 
ATOM     27  C   UNL     1       7.330   5.147  15.897  0.00  0.00    +0.000 A 
ATOM     28  C   UNL     1       6.372   4.923  14.910  0.00  0.00    +0.000 A 
ATOM     29  C   UNL     1       5.180   4.270  15.224  0.00  0.00    +0.000 A 
ENDBRANCH  23  24
ENDBRANCH  22  23
ENDBRANCH  21  22
ENDBRANCH  16  21
ENDBRANCH  15  17
ENDBRANCH   1  15
BRANCH  11  30
ATOM     30  C   UNL     1       0.103  12.286  18.391  0.00  0.00    +0.000 C 
BRANCH  30  31
ATOM     31  C   UNL     1       0.982  13.455  18.790  0.00  0.00    +0.000 A 
ATOM     32  C   UNL     1       0.495  14.743  19.023  0.00  0.00    +0.000 A 
ATOM     33  C   UNL     1       1.364  15.769  19.418  0.00  0.00    +0.000 A 
ATOM     34  C   UNL     1       2.719  15.510  19.608  0.00  0.00    +0.000 A 
ATOM     35  C   UNL     1       3.218  14.226  19.403  0.00  0.00    +0.000 A 
ATOM     36  C   UNL     1       2.353  13.206  19.002  0.00  0.00    +0.000 A 
ENDBRANCH  30  31
ENDBRANCH  11  30
TORSDOF 8
ENDMDL
MODEL 5
REMARK VINA RESULT:      -8.4      2.076      9.362
REMARK  Name = 
REMARK  9 active torsions:
REMARK  status: ('A' for Active; 'I' for Inactive)
REMARK    1  A    between atoms: C_1  and  C_2
REMARK    2  A    between atoms: C_2  and  C_3
REMARK    3  A    between atoms: C_2  and  N_11
REMARK    4  A    between atoms: C_3  and  C_4
REMARK    5  A    between atoms: C_4  and  C_5
REMARK    6  A    between atoms: C_12  and  C_14
REMARK    7  A    between atoms: C_14  and  N_15
REMARK    8  A    between atoms: N_25  and  C_26
REMARK    9  A    between atoms: C_26  and  C_27
REMARK                            x       y       z     vdW  Elec       q    Type
REMARK                         _______ _______ _______ _____ _____    ______ ____
ROOT
ATOM      1  N   UNL     1       1.645   8.849  19.407  0.00  0.00    +0.000 N 
ATOM      2  N   UNL     1       1.207   8.489  20.688  0.00  0.00    +0.000 NA
ATOM      3  C   UNL     1       1.339   7.262  21.085  0.00  0.00    +0.000 A 
ATOM      4  C   UNL     1       1.985   6.294  20.253  0.00  0.00    +0.000 A 
ATOM      5  C   UNL     1       2.254   4.930  20.462  0.00  0.00    +0.000 A 
ATOM      6  C   UNL     1       1.877   4.005  21.451  0.00  0.00    +0.000 A 
ATOM      7  C   UNL     1       2.539   2.782  21.518  0.00  0.00    +0.000 A 
ATOM      8  C   UNL     1       3.565   2.492  20.623  0.00  0.00    +0.000 A 
ATOM      9  C   UNL     1       3.867   3.349  19.552  0.00  0.00    +0.000 A 
ATOM     10  C   UNL     1       3.157   4.557  19.458  0.00  0.00    +0.000 A 
ATOM     11  N   UNL     1       3.119   5.561  18.491  0.00  0.00    +0.000 N 
ATOM     12  C   UNL     1       2.483   6.660  19.024  0.00  0.00    +0.000 A 
ATOM     13  C   UNL     1       2.257   7.976  18.487  0.00  0.00    +0.000 A 
ATOM     14  O   UNL     1       2.537   8.307  17.335  0.00  0.00    +0.000 OA
ENDROOT
BRANCH   1  15
ATOM     15  C   UNL     1       1.215  10.155  18.947  0.00  0.00    +0.000 C 
BRANCH  15  17
ATOM     16  N   UNL     1      -0.064  11.113  20.797  0.00  0.00    +0.000 N 
ATOM     17  C   UNL     1      -0.142  10.453  19.586  0.00  0.00    +0.000 C 
ATOM     18  O   UNL     1      -1.198  10.154  19.035  0.00  0.00    +0.000 OA
ATOM     19  H   UNL     1       0.846  11.484  21.049  0.00  0.00    +0.000 HD
BRANCH  16  21
ATOM     20  C   UNL     1      -1.200  10.922  23.060  0.00  0.00    +0.000 C 
ATOM     21  C   UNL     1      -1.184  11.522  21.651  0.00  0.00    +0.000 C 
BRANCH  21  22
ATOM     22  C   UNL     1      -1.259  13.058  21.752  0.00  0.00    +0.000 C 
BRANCH  22  23
ATOM     23  C   UNL     1      -2.207  13.688  20.725  0.00  0.00    +0.000 C 
BRANCH  23  24
ATOM     24  C   UNL     1      -3.621  13.193  20.903  0.00  0.00    +0.000 A 
ATOM     25  C   UNL     1      -4.285  12.550  19.848  0.00  0.00    +0.000 A 
ATOM     26  C   UNL     1      -5.599  12.118  20.002  0.00  0.00    +0.000 A 
ATOM     27  C   UNL     1      -6.272  12.326  21.210  0.00  0.00    +0.000 A 
ATOM     28  C   UNL     1      -5.620  12.970  22.260  0.00  0.00    +0.000 A 
ATOM     29  C   UNL     1      -4.302  13.403  22.107  0.00  0.00    +0.000 A 
ENDBRANCH  23  24
ENDBRANCH  22  23
ENDBRANCH  21  22
ENDBRANCH  16  21
ENDBRANCH  15  17
ENDBRANCH   1  15
BRANCH  11  30
ATOM     30  C   UNL     1       3.405   5.371  17.063  0.00  0.00    +0.000 C 
BRANCH  30  31
ATOM     31  C   UNL     1       4.863   5.305  16.658  0.00  0.00    +0.000 A 
ATOM     32  C   UNL     1       5.879   6.007  17.311  0.00  0.00    +0.000 A 
ATOM     33  C   UNL     1       7.212   5.874  16.899  0.00  0.00    +0.000 A 
ATOM     34  C   UNL     1       7.543   5.019  15.850  0.00  0.00    +0.000 A 
ATOM     35  C   UNL     1       6.546   4.293  15.203  0.00  0.00    +0.000 A 
ATOM     36  C   UNL     1       5.218   4.432  15.609  0.00  0.00    +0.000 A 
ENDBRANCH  30  31
ENDBRANCH  11  30
TORSDOF 8
ENDMDL
MODEL 6
REMARK VINA RESULT:      -8.4      2.633      9.418
REMARK  Name = 
REMARK  9 active torsions:
REMARK  status: ('A' for Active; 'I' for Inactive)
REMARK    1  A    between atoms: C_1  and  C_2
REMARK    2  A    between atoms: C_2  and  C_3
REMARK    3  A    between atoms: C_2  and  N_11
REMARK    4  A    between atoms: C_3  and  C_4
REMARK    5  A    between atoms: C_4  and  C_5
REMARK    6  A    between atoms: C_12  and  C_14
REMARK    7  A    between atoms: C_14  and  N_15
REMARK    8  A    between atoms: N_25  and  C_26
REMARK    9  A    between atoms: C_26  and  C_27
REMARK                            x       y       z     vdW  Elec       q    Type
REMARK                         _______ _______ _______ _____ _____    ______ ____
ROOT
ATOM      1  N   UNL     1       2.292   8.477  18.646  0.00  0.00    +0.000 N 
ATOM      2  N   UNL     1       1.776   8.391  19.945  0.00  0.00    +0.000 NA
ATOM      3  C   UNL     1       1.710   7.237  20.530  0.00  0.00    +0.000 A 
ATOM      4  C   UNL     1       2.218   6.065  19.885  0.00  0.00    +0.000 A 
ATOM      5  C   UNL     1       2.270   4.726  20.310  0.00  0.00    +0.000 A 
ATOM      6  C   UNL     1       1.734   4.034  21.411  0.00  0.00    +0.000 A 
ATOM      7  C   UNL     1       2.200   2.753  21.693  0.00  0.00    +0.000 A 
ATOM      8  C   UNL     1       3.188   2.176  20.899  0.00  0.00    +0.000 A 
ATOM      9  C   UNL     1       3.641   2.800  19.725  0.00  0.00    +0.000 A 
ATOM     10  C   UNL     1       3.126   4.070  19.417  0.00  0.00    +0.000 A 
ATOM     11  N   UNL     1       3.263   4.904  18.307  0.00  0.00    +0.000 N 
ATOM     12  C   UNL     1       2.792   6.155  18.638  0.00  0.00    +0.000 A 
ATOM     13  C   UNL     1       2.783   7.389  17.897  0.00  0.00    +0.000 A 
ATOM     14  O   UNL     1       3.134   7.490  16.722  0.00  0.00    +0.000 OA
ENDROOT
BRANCH   1  15
ATOM     15  C   UNL     1       2.077   9.743  17.973  0.00  0.00    +0.000 C 
BRANCH  15  17
ATOM     16  N   UNL     1      -0.339  10.119  18.020  0.00  0.00    +0.000 N 
ATOM     17  C   UNL     1       0.868  10.419  18.622  0.00  0.00    +0.000 C 
ATOM     18  O   UNL     1       0.980  11.133  19.615  0.00  0.00    +0.000 OA
ATOM     19  H   UNL     1      -0.327   9.364  17.343  0.00  0.00    +0.000 HD
BRANCH  16  21
ATOM     20  C   UNL     1      -1.853  12.136  18.312  0.00  0.00    +0.000 C 
ATOM     21  C   UNL     1      -1.663  10.619  18.403  0.00  0.00    +0.000 C 
BRANCH  21  22
ATOM     22  C   UNL     1      -2.767   9.919  17.588  0.00  0.00    +0.000 C 
BRANCH  22  23
ATOM     23  C   UNL     1      -3.576  10.882  16.711  0.00  0.00    +0.000 C 
BRANCH  23  24
ATOM     24  C   UNL     1      -4.904  11.220  17.343  0.00  0.00    +0.000 A 
ATOM     25  C   UNL     1      -5.596  12.378  16.960  0.00  0.00    +0.000 A 
ATOM     26  C   UNL     1      -6.809  12.705  17.562  0.00  0.00    +0.000 A 
ATOM     27  C   UNL     1      -7.344  11.884  18.558  0.00  0.00    +0.000 A 
ATOM     28  C   UNL     1      -6.657  10.736  18.949  0.00  0.00    +0.000 A 
ATOM     29  C   UNL     1      -5.443  10.406  18.345  0.00  0.00    +0.000 A 
ENDBRANCH  23  24
ENDBRANCH  22  23
ENDBRANCH  21  22
ENDBRANCH  16  21
ENDBRANCH  15  17
ENDBRANCH   1  15
BRANCH  11  30
ATOM     30  C   UNL     1       3.547   4.452  16.939  0.00  0.00    +0.000 C 
BRANCH  30  31
ATOM     31  C   UNL     1       4.982   4.561  16.464  0.00  0.00    +0.000 A 
ATOM     32  C   UNL     1       5.361   4.465  15.123  0.00  0.00    +0.000 A 
ATOM     33  C   UNL     1       6.707   4.604  14.755  0.00  0.00    +0.000 A 
ATOM     34  C   UNL     1       7.677   4.868  15.719  0.00  0.00    +0.000 A 
ATOM     35  C   UNL     1       7.314   4.990  17.057  0.00  0.00    +0.000 A 
ATOM     36  C   UNL     1       5.975   4.844  17.424  0.00  0.00    +0.000 A 
ENDBRANCH  30  31
ENDBRANCH  11  30
TORSDOF 8
ENDMDL
MODEL 7
REMARK VINA RESULT:      -8.3      2.108      9.602
REMARK  Name = 
REMARK  9 active torsions:
REMARK  status: ('A' for Active; 'I' for Inactive)
REMARK    1  A    between atoms: C_1  and  C_2
REMARK    2  A    between atoms: C_2  and  C_3
REMARK    3  A    between atoms: C_2  and  N_11
REMARK    4  A    between atoms: C_3  and  C_4
REMARK    5  A    between atoms: C_4  and  C_5
REMARK    6  A    between atoms: C_12  and  C_14
REMARK    7  A    between atoms: C_14  and  N_15
REMARK    8  A    between atoms: N_25  and  C_26
REMARK    9  A    between atoms: C_26  and  C_27
REMARK                            x       y       z     vdW  Elec       q    Type
REMARK                         _______ _______ _______ _____ _____    ______ ____
ROOT
ATOM      1  N   UNL     1       1.584   9.001  19.475  0.00  0.00    +0.000 N 
ATOM      2  N   UNL     1       1.139   8.613  20.745  0.00  0.00    +0.000 NA
ATOM      3  C   UNL     1       1.269   7.378  21.117  0.00  0.00    +0.000 A 
ATOM      4  C   UNL     1       1.920   6.428  20.266  0.00  0.00    +0.000 A 
ATOM      5  C   UNL     1       2.188   5.060  20.447  0.00  0.00    +0.000 A 
ATOM      6  C   UNL     1       1.805   4.113  21.413  0.00  0.00    +0.000 A 
ATOM      7  C   UNL     1       2.467   2.889  21.457  0.00  0.00    +0.000 A 
ATOM      8  C   UNL     1       3.498   2.618  20.561  0.00  0.00    +0.000 A 
ATOM      9  C   UNL     1       3.805   3.499  19.510  0.00  0.00    +0.000 A 
ATOM     10  C   UNL     1       3.095   4.708  19.439  0.00  0.00    +0.000 A 
ATOM     11  N   UNL     1       3.062   5.733  18.494  0.00  0.00    +0.000 N 
ATOM     12  C   UNL     1       2.423   6.821  19.049  0.00  0.00    +0.000 A 
ATOM     13  C   UNL     1       2.201   8.148  18.539  0.00  0.00    +0.000 A 
ATOM     14  O   UNL     1       2.486   8.505  17.396  0.00  0.00    +0.000 OA
ENDROOT
BRANCH   1  15
ATOM     15  C   UNL     1       1.156  10.317  19.041  0.00  0.00    +0.000 C 
BRANCH  15  17
ATOM     16  N   UNL     1      -0.306  11.314  20.728  0.00  0.00    +0.000 N 
ATOM     17  C   UNL     1      -0.257  10.550  19.578  0.00  0.00    +0.000 C 
ATOM     18  O   UNL     1      -1.250  10.116  18.999  0.00  0.00    +0.000 OA
ATOM     19  H   UNL     1       0.553  11.782  20.993  0.00  0.00    +0.000 HD
BRANCH  16  21
ATOM     20  C   UNL     1      -1.264  12.201  22.906  0.00  0.00    +0.000 C 
ATOM     21  C   UNL     1      -1.506  11.696  21.481  0.00  0.00    +0.000 C 
BRANCH  21  22
ATOM     22  C   UNL     1      -2.326  12.744  20.703  0.00  0.00    +0.000 C 
BRANCH  22  23
ATOM     23  C   UNL     1      -3.299  13.531  21.588  0.00  0.00    +0.000 C 
BRANCH  23  24
ATOM     24  C   UNL     1      -4.706  13.003  21.469  0.00  0.00    +0.000 A 
ATOM     25  C   UNL     1      -5.582  13.063  22.563  0.00  0.00    +0.000 A 
ATOM     26  C   UNL     1      -6.872  12.551  22.462  0.00  0.00    +0.000 A 
ATOM     27  C   UNL     1      -7.305  11.965  21.269  0.00  0.00    +0.000 A 
ATOM     28  C   UNL     1      -6.438  11.895  20.180  0.00  0.00    +0.000 A 
ATOM     29  C   UNL     1      -5.145  12.410  20.279  0.00  0.00    +0.000 A 
ENDBRANCH  23  24
ENDBRANCH  22  23
ENDBRANCH  21  22
ENDBRANCH  16  21
ENDBRANCH  15  17
ENDBRANCH   1  15
BRANCH  11  30
ATOM     30  C   UNL     1       3.355   5.575  17.064  0.00  0.00    +0.000 C 
BRANCH  30  31
ATOM     31  C   UNL     1       4.795   5.294  16.685  0.00  0.00    +0.000 A 
ATOM     32  C   UNL     1       5.181   4.257  15.832  0.00  0.00    +0.000 A 
ATOM     33  C   UNL     1       6.531   4.074  15.503  0.00  0.00    +0.000 A 
ATOM     34  C   UNL     1       7.501   4.940  16.002  0.00  0.00    +0.000 A 
ATOM     35  C   UNL     1       7.132   5.993  16.835  0.00  0.00    +0.000 A 
ATOM     36  C   UNL     1       5.788   6.170  17.168  0.00  0.00    +0.000 A 
ENDBRANCH  30  31
ENDBRANCH  11  30
TORSDOF 8
ENDMDL
MODEL 8
REMARK VINA RESULT:      -8.2      2.139      9.790
REMARK  Name = 
REMARK  9 active torsions:
REMARK  status: ('A' for Active; 'I' for Inactive)
REMARK    1  A    between atoms: C_1  and  C_2
REMARK    2  A    between atoms: C_2  and  C_3
REMARK    3  A    between atoms: C_2  and  N_11
REMARK    4  A    between atoms: C_3  and  C_4
REMARK    5  A    between atoms: C_4  and  C_5
REMARK    6  A    between atoms: C_12  and  C_14
REMARK    7  A    between atoms: C_14  and  N_15
REMARK    8  A    between atoms: N_25  and  C_26
REMARK    9  A    between atoms: C_26  and  C_27
REMARK                            x       y       z     vdW  Elec       q    Type
REMARK                         _______ _______ _______ _____ _____    ______ ____
ROOT
ATOM      1  N   UNL     1       1.148   9.295  19.888  0.00  0.00    +0.000 N 
ATOM      2  N   UNL     1       0.606   8.702  21.035  0.00  0.00    +0.000 NA
ATOM      3  C   UNL     1       0.820   7.444  21.263  0.00  0.00    +0.000 A 
ATOM      4  C   UNL     1       1.656   6.679  20.389  0.00  0.00    +0.000 A 
ATOM      5  C   UNL     1       2.041   5.327  20.431  0.00  0.00    +0.000 A 
ATOM      6  C   UNL     1       1.653   4.228  21.217  0.00  0.00    +0.000 A 
ATOM      7  C   UNL     1       2.428   3.072  21.190  0.00  0.00    +0.000 A 
ATOM      8  C   UNL     1       3.574   3.016  20.403  0.00  0.00    +0.000 A 
ATOM      9  C   UNL     1       3.905   4.054  19.516  0.00  0.00    +0.000 A 
ATOM     10  C   UNL     1       3.087   5.195  19.508  0.00  0.00    +0.000 A 
ATOM     11  N   UNL     1       3.055   6.332  18.701  0.00  0.00    +0.000 N 
ATOM     12  C   UNL     1       2.250   7.275  19.302  0.00  0.00    +0.000 A 
ATOM     13  C   UNL     1       1.950   8.634  18.937  0.00  0.00    +0.000 A 
ATOM     14  O   UNL     1       2.323   9.166  17.892  0.00  0.00    +0.000 OA
ENDROOT
BRANCH   1  15
ATOM     15  C   UNL     1       0.639  10.615  19.571  0.00  0.00    +0.000 C 
BRANCH  15  17
ATOM     16  N   UNL     1      -0.678  11.561  21.401  0.00  0.00    +0.000 N 
ATOM     17  C   UNL     1       0.589  11.422  20.869  0.00  0.00    +0.000 C 
ATOM     18  O   UNL     1       1.606  11.868  21.395  0.00  0.00    +0.000 OA
ATOM     19  H   UNL     1      -1.403  10.982  20.991  0.00  0.00    +0.000 HD
BRANCH  16  21
ATOM     20  C   UNL     1      -0.699  13.777  22.641  0.00  0.00    +0.000 C 
ATOM     21  C   UNL     1      -1.047  12.285  22.622  0.00  0.00    +0.000 C 
BRANCH  21  22
ATOM     22  C   UNL     1      -2.547  12.108  22.928  0.00  0.00    +0.000 C 
BRANCH  22  23
ATOM     23  C   UNL     1      -3.459  12.788  21.900  0.00  0.00    +0.000 C 
BRANCH  23  24
ATOM     24  C   UNL     1      -4.903  12.755  22.337  0.00  0.00    +0.000 A 
ATOM     25  C   UNL     1      -5.239  12.930  23.687  0.00  0.00    +0.000 A 
ATOM     26  C   UNL     1      -6.570  12.872  24.094  0.00  0.00    +0.000 A 
ATOM     27  C   UNL     1      -7.582  12.634  23.160  0.00  0.00    +0.000 A 
ATOM     28  C   UNL     1      -7.254  12.453  21.818  0.00  0.00    +0.000 A 
ATOM     29  C   UNL     1      -5.922  12.512  21.408  0.00  0.00    +0.000 A 
ENDBRANCH  23  24
ENDBRANCH  22  23
ENDBRANCH  21  22
ENDBRANCH  16  21
ENDBRANCH  15  17
ENDBRANCH   1  15
BRANCH  11  30
ATOM     30  C   UNL     1       3.521   6.396  17.309  0.00  0.00    +0.000 C 
BRANCH  30  31
ATOM     31  C   UNL     1       4.860   5.756  17.004  0.00  0.00    +0.000 A 
ATOM     32  C   UNL     1       5.015   4.656  16.157  0.00  0.00    +0.000 A 
ATOM     33  C   UNL     1       6.291   4.135  15.898  0.00  0.00    +0.000 A 
ATOM     34  C   UNL     1       7.420   4.725  16.460  0.00  0.00    +0.000 A 
ATOM     35  C   UNL     1       7.286   5.836  17.288  0.00  0.00    +0.000 A 
ATOM     36  C   UNL     1       6.015   6.350  17.552  0.00  0.00    +0.000 A 
ENDBRANCH  30  31
ENDBRANCH  11  30
TORSDOF 8
ENDMDL
MODEL 9
REMARK VINA RESULT:      -8.2      2.149      9.467
REMARK  Name = 
REMARK  9 active torsions:
REMARK  status: ('A' for Active; 'I' for Inactive)
REMARK    1  A    between atoms: C_1  and  C_2
REMARK    2  A    between atoms: C_2  and  C_3
REMARK    3  A    between atoms: C_2  and  N_11
REMARK    4  A    between atoms: C_3  and  C_4
REMARK    5  A    between atoms: C_4  and  C_5
REMARK    6  A    between atoms: C_12  and  C_14
REMARK    7  A    between atoms: C_14  and  N_15
REMARK    8  A    between atoms: N_25  and  C_26
REMARK    9  A    between atoms: C_26  and  C_27
REMARK                            x       y       z     vdW  Elec       q    Type
REMARK                         _______ _______ _______ _____ _____    ______ ____
ROOT
ATOM      1  N   UNL     1       1.661   8.819  19.438  0.00  0.00    +0.000 N 
ATOM      2  N   UNL     1       1.242   8.447  20.722  0.00  0.00    +0.000 NA
ATOM      3  C   UNL     1       1.382   7.217  21.106  0.00  0.00    +0.000 A 
ATOM      4  C   UNL     1       2.017   6.257  20.256  0.00  0.00    +0.000 A 
ATOM      5  C   UNL     1       2.291   4.892  20.448  0.00  0.00    +0.000 A 
ATOM      6  C   UNL     1       1.930   3.957  21.434  0.00  0.00    +0.000 A 
ATOM      7  C   UNL     1       2.595   2.735  21.481  0.00  0.00    +0.000 A 
ATOM      8  C   UNL     1       3.608   2.454  20.568  0.00  0.00    +0.000 A 
ATOM      9  C   UNL     1       3.893   3.321  19.500  0.00  0.00    +0.000 A 
ATOM     10  C   UNL     1       3.179   4.529  19.428  0.00  0.00    +0.000 A 
ATOM     11  N   UNL     1       3.126   5.541  18.471  0.00  0.00    +0.000 N 
ATOM     12  C   UNL     1       2.496   6.635  19.023  0.00  0.00    +0.000 A 
ATOM     13  C   UNL     1       2.261   7.955  18.501  0.00  0.00    +0.000 A 
ATOM     14  O   UNL     1       2.523   8.298  17.348  0.00  0.00    +0.000 OA
ENDROOT
BRANCH   1  15
ATOM     15  C   UNL     1       1.222  10.128  18.996  0.00  0.00    +0.000 C 
BRANCH  15  17
ATOM     16  N   UNL     1       0.138  11.099  20.960  0.00  0.00    +0.000 N 
ATOM     17  C   UNL     1      -0.065  10.469  19.748  0.00  0.00    +0.000 C 
ATOM     18  O   UNL     1      -1.174  10.226  19.278  0.00  0.00    +0.000 OA
ATOM     19  H   UNL     1       1.080  11.427  21.144  0.00  0.00    +0.000 HD
BRANCH  16  21
ATOM     20  C   UNL     1      -1.061  10.664  23.156  0.00  0.00    +0.000 C 
ATOM     21  C   UNL     1      -0.892  11.537  21.909  0.00  0.00    +0.000 C 
BRANCH  21  22
ATOM     22  C   UNL     1      -0.650  12.997  22.339  0.00  0.00    +0.000 C 
BRANCH  22  23
ATOM     23  C   UNL     1      -1.722  13.531  23.297  0.00  0.00    +0.000 C 
BRANCH  23  24
ATOM     24  C   UNL     1      -3.069  13.622  22.624  0.00  0.00    +0.000 A 
ATOM     25  C   UNL     1      -3.253  14.466  21.518  0.00  0.00    +0.000 A 
ATOM     26  C   UNL     1      -4.502  14.571  20.913  0.00  0.00    +0.000 A 
ATOM     27  C   UNL     1      -5.587  13.841  21.407  0.00  0.00    +0.000 A 
ATOM     28  C   UNL     1      -5.413  13.007  22.509  0.00  0.00    +0.000 A 
ATOM     29  C   UNL     1      -4.161  12.898  23.116  0.00  0.00    +0.000 A 
ENDBRANCH  23  24
ENDBRANCH  22  23
ENDBRANCH  21  22
ENDBRANCH  16  21
ENDBRANCH  15  17
ENDBRANCH   1  15
BRANCH  11  30
ATOM     30  C   UNL     1       3.392   5.365  17.037  0.00  0.00    +0.000 C 
BRANCH  30  31
ATOM     31  C   UNL     1       4.838   5.185  16.624  0.00  0.00    +0.000 A 
ATOM     32  C   UNL     1       5.258   4.256  15.669  0.00  0.00    +0.000 A 
ATOM     33  C   UNL     1       6.612   4.164  15.315  0.00  0.00    +0.000 A 
ATOM     34  C   UNL     1       7.550   5.018  15.892  0.00  0.00    +0.000 A 
ATOM     35  C   UNL     1       7.145   5.966  16.828  0.00  0.00    +0.000 A 
ATOM     36  C   UNL     1       5.798   6.051  17.186  0.00  0.00    +0.000 A 
ENDBRANCH  30  31
ENDBRANCH  11  30
TORSDOF 8
ENDMDL
