MODEL 1
REMARK VINA RESULT:      -6.9      0.000      0.000
REMARK  Name = 
REMARK  6 active torsions:
REMARK  status: ('A' for Active; 'I' for Inactive)
REMARK    1  A    between atoms: C_1  and  C_2
REMARK    2  A    between atoms: C_2  and  O_3
REMARK    3  A    between atoms: O_3  and  C_4
REMARK    4  A    between atoms: C_4  and  C_6
REMARK    5  A    between atoms: C_7  and  C_8
REMARK    6  A    between atoms: C_13  and  N_14
REMARK                            x       y       z     vdW  Elec       q    Type
REMARK                         _______ _______ _______ _____ _____    ______ ____
ROOT
ATOM      1  C   UNL     1       3.773   5.202  18.759  0.00  0.00    +0.000 A 
ATOM      2  C   UNL     1       3.926   6.094  17.678  0.00  0.00    +0.000 A 
ATOM      3  C   UNL     1       4.814   5.861  16.493  0.00  0.00    +0.000 C 
ATOM      4  N   UNL     1       3.259   7.312  17.698  0.00  0.00    +0.000 N 
ATOM      5  O   UNL     1       3.418   8.139  16.740  0.00  0.00    +0.000 OA
ATOM      6  C   UNL     1       2.424   7.644  18.783  0.00  0.00    +0.000 A 
ATOM      7  C   UNL     1       1.777   8.901  18.840  0.00  0.00    +0.000 A 
ATOM      8  C   UNL     1       0.977   9.306  19.920  0.00  0.00    +0.000 A 
ATOM      9  C   UNL     1       0.770   8.337  20.918  0.00  0.00    +0.000 A 
ATOM     10  F   UNL     1      -0.021   8.582  21.975  0.00  0.00    +0.000 F 
ATOM     11  C   UNL     1       1.394   7.088  20.893  0.00  0.00    +0.000 A 
ATOM     12  C   UNL     1       2.250   6.728  19.835  0.00  0.00    +0.000 A 
ATOM     13  N   UNL     1       2.943   5.498  19.832  0.00  0.00    +0.000 N 
ATOM     14  O   UNL     1       2.824   4.727  20.841  0.00  0.00    +0.000 OA
ENDROOT
BRANCH   8  15
ATOM     15  N   UNL     1       0.444  10.584  19.950  0.00  0.00    +0.000 N 
ATOM     16  C   UNL     1       0.960  11.613  20.859  0.00  0.00    +0.000 C 
ATOM     17  C   UNL     1      -0.295  12.274  21.412  0.00  0.00    +0.000 C 
ATOM     18  C   UNL     1      -1.261  12.211  20.245  0.00  0.00    +0.000 C 
ATOM     19  C   UNL     1      -0.945  10.870  19.582  0.00  0.00    +0.000 C 
ENDBRANCH   8  15
BRANCH   1  20
ATOM     20  C   UNL     1       4.582   3.982  18.838  0.00  0.00    +0.000 C 
ATOM     21  O   UNL     1       5.656   3.963  19.426  0.00  0.00    +0.000 OA
BRANCH  20  22
ATOM     22  O   UNL     1       4.060   2.970  18.108  0.00  0.00    +0.000 OA
BRANCH  22  24
ATOM     23  C   UNL     1       1.852   2.044  18.667  0.00  0.00    +0.000 C 
ATOM     24  C   UNL     1       3.359   1.966  18.858  0.00  0.00    +0.000 C 
ENDBRANCH  22  24
ENDBRANCH  20  22
ENDBRANCH   1  20
TORSDOF 4
ENDMDL
MODEL 2
REMARK VINA RESULT:      -6.7      1.771      3.310
REMARK  Name = 
REMARK  6 active torsions:
REMARK  status: ('A' for Active; 'I' for Inactive)
REMARK    1  A    between atoms: C_1  and  C_2
REMARK    2  A    between atoms: C_2  and  O_3
REMARK    3  A    between atoms: O_3  and  C_4
REMARK    4  A    between atoms: C_4  and  C_6
REMARK    5  A    between atoms: C_7  and  C_8
REMARK    6  A    between atoms: C_13  and  N_14
REMARK                            x       y       z     vdW  Elec       q    Type
REMARK                         _______ _______ _______ _____ _____    ______ ____
ROOT
ATOM      1  C   UNL     1       4.167   5.166  18.345  0.00  0.00    +0.000 A 
ATOM      2  C   UNL     1       3.429   4.826  19.497  0.00  0.00    +0.000 A 
ATOM      3  C   UNL     1       3.497   3.503  20.199  0.00  0.00    +0.000 C 
ATOM      4  N   UNL     1       2.522   5.738  20.021  0.00  0.00    +0.000 N 
ATOM      5  O   UNL     1       1.825   5.424  21.043  0.00  0.00    +0.000 OA
ATOM      6  C   UNL     1       2.356   6.998  19.416  0.00  0.00    +0.000 A 
ATOM      7  C   UNL     1       1.402   7.919  19.910  0.00  0.00    +0.000 A 
ATOM      8  C   UNL     1       1.156   9.166  19.315  0.00  0.00    +0.000 A 
ATOM      9  C   UNL     1       1.996   9.500  18.237  0.00  0.00    +0.000 A 
ATOM     10  F   UNL     1       1.900  10.688  17.620  0.00  0.00    +0.000 F 
ATOM     11  C   UNL     1       2.947   8.615  17.724  0.00  0.00    +0.000 A 
ATOM     12  C   UNL     1       3.128   7.340  18.292  0.00  0.00    +0.000 A 
ATOM     13  N   UNL     1       4.035   6.408  17.740  0.00  0.00    +0.000 N 
ATOM     14  O   UNL     1       4.659   6.721  16.673  0.00  0.00    +0.000 OA
ENDROOT
BRANCH   8  15
ATOM     15  N   UNL     1       0.147   9.981  19.800  0.00  0.00    +0.000 N 
ATOM     16  C   UNL     1      -1.051  10.277  19.008  0.00  0.00    +0.000 C 
ATOM     17  C   UNL     1      -1.264  11.771  19.211  0.00  0.00    +0.000 C 
ATOM     18  C   UNL     1      -0.794  11.996  20.636  0.00  0.00    +0.000 C 
ATOM     19  C   UNL     1       0.389  11.039  20.784  0.00  0.00    +0.000 C 
ENDBRANCH   8  15
BRANCH   1  20
ATOM     20  C   UNL     1       5.014   4.169  17.682  0.00  0.00    +0.000 C 
ATOM     21  O   UNL     1       4.600   3.503  16.742  0.00  0.00    +0.000 OA
BRANCH  20  22
ATOM     22  O   UNL     1       6.207   4.016  18.298  0.00  0.00    +0.000 OA
BRANCH  22  24
ATOM     23  C   UNL     1       7.734   5.916  18.623  0.00  0.00    +0.000 C 
ATOM     24  C   UNL     1       7.295   4.764  17.732  0.00  0.00    +0.000 C 
ENDBRANCH  22  24
ENDBRANCH  20  22
ENDBRANCH   1  20
TORSDOF 4
ENDMDL
MODEL 3
REMARK VINA RESULT:      -6.6      1.643      3.374
REMARK  Name = 
REMARK  6 active torsions:
REMARK  status: ('A' for Active; 'I' for Inactive)
REMARK    1  A    between atoms: C_1  and  C_2
REMARK    2  A    between atoms: C_2  and  O_3
REMARK    3  A    between atoms: O_3  and  C_4
REMARK    4  A    between atoms: C_4  and  C_6
REMARK    5  A    between atoms: C_7  and  C_8
REMARK    6  A    between atoms: C_13  and  N_14
REMARK                            x       y       z     vdW  Elec       q    Type
REMARK                         _______ _______ _______ _____ _____    ______ ____
ROOT
ATOM      1  C   UNL     1       4.141   5.209  18.072  0.00  0.00    +0.000 A 
ATOM      2  C   UNL     1       3.689   4.630  19.276  0.00  0.00    +0.000 A 
ATOM      3  C   UNL     1       4.023   3.243  19.737  0.00  0.00    +0.000 C 
ATOM      4  N   UNL     1       2.830   5.346  20.098  0.00  0.00    +0.000 N 
ATOM      5  O   UNL     1       2.390   4.816  21.173  0.00  0.00    +0.000 OA
ATOM      6  C   UNL     1       2.427   6.647  19.740  0.00  0.00    +0.000 A 
ATOM      7  C   UNL     1       1.515   7.370  20.544  0.00  0.00    +0.000 A 
ATOM      8  C   UNL     1       1.037   8.647  20.209  0.00  0.00    +0.000 A 
ATOM      9  C   UNL     1       1.604   9.222  19.056  0.00  0.00    +0.000 A 
ATOM     10  F   UNL     1       1.273  10.462  18.662  0.00  0.00    +0.000 F 
ATOM     11  C   UNL     1       2.505   8.537  18.241  0.00  0.00    +0.000 A 
ATOM     12  C   UNL     1       2.916   7.228  18.557  0.00  0.00    +0.000 A 
ATOM     13  N   UNL     1       3.773   6.497  17.704  0.00  0.00    +0.000 N 
ATOM     14  O   UNL     1       4.132   7.023  16.600  0.00  0.00    +0.000 OA
ENDROOT
BRANCH   8  15
ATOM     15  N   UNL     1       0.079   9.261  20.998  0.00  0.00    +0.000 N 
ATOM     16  C   UNL     1      -0.680  10.423  20.523  0.00  0.00    +0.000 C 
ATOM     17  C   UNL     1      -0.689  11.366  21.718  0.00  0.00    +0.000 C 
ATOM     18  C   UNL     1      -0.737  10.421  22.904  0.00  0.00    +0.000 C 
ATOM     19  C   UNL     1       0.127   9.239  22.461  0.00  0.00    +0.000 C 
ENDBRANCH   8  15
BRANCH   1  20
ATOM     20  C   UNL     1       4.921   4.421  17.113  0.00  0.00    +0.000 C 
ATOM     21  O   UNL     1       4.381   3.803  16.205  0.00  0.00    +0.000 OA
BRANCH  20  22
ATOM     22  O   UNL     1       6.235   4.381  17.428  0.00  0.00    +0.000 OA
BRANCH  22  24
ATOM     23  C   UNL     1       7.470   6.502  17.591  0.00  0.00    +0.000 C 
ATOM     24  C   UNL     1       7.068   5.317  16.725  0.00  0.00    +0.000 C 
ENDBRANCH  22  24
ENDBRANCH  20  22
ENDBRANCH   1  20
TORSDOF 4
ENDMDL
MODEL 4
REMARK VINA RESULT:      -6.6      2.983      7.240
REMARK  Name = 
REMARK  6 active torsions:
REMARK  status: ('A' for Active; 'I' for Inactive)
REMARK    1  A    between atoms: C_1  and  C_2
REMARK    2  A    between atoms: C_2  and  O_3
REMARK    3  A    between atoms: O_3  and  C_4
REMARK    4  A    between atoms: C_4  and  C_6
REMARK    5  A    between atoms: C_7  and  C_8
REMARK    6  A    between atoms: C_13  and  N_14
REMARK                            x       y       z     vdW  Elec       q    Type
REMARK                         _______ _______ _______ _____ _____    ______ ____
ROOT
ATOM      1  C   UNL     1       0.641  10.789  20.573  0.00  0.00    +0.000 A 
ATOM      2  C   UNL     1       1.109  11.012  19.262  0.00  0.00    +0.000 A 
ATOM      3  C   UNL     1       1.013  12.316  18.528  0.00  0.00    +0.000 C 
ATOM      4  N   UNL     1       1.661   9.959  18.545  0.00  0.00    +0.000 N 
ATOM      5  O   UNL     1       2.056  10.145  17.345  0.00  0.00    +0.000 OA
ATOM      6  C   UNL     1       1.767   8.683  19.130  0.00  0.00    +0.000 A 
ATOM      7  C   UNL     1       2.283   7.590  18.395  0.00  0.00    +0.000 A 
ATOM      8  C   UNL     1       2.363   6.285  18.909  0.00  0.00    +0.000 A 
ATOM      9  C   UNL     1       1.986   6.141  20.257  0.00  0.00    +0.000 A 
ATOM     10  F   UNL     1       2.071   4.956  20.881  0.00  0.00    +0.000 F 
ATOM     11  C   UNL     1       1.472   7.198  21.010  0.00  0.00    +0.000 A 
ATOM     12  C   UNL     1       1.334   8.483  20.452  0.00  0.00    +0.000 A 
ATOM     13  N   UNL     1       0.750   9.545  21.180  0.00  0.00    +0.000 N 
ATOM     14  O   UNL     1       0.294   9.308  22.346  0.00  0.00    +0.000 OA
ENDROOT
BRANCH   8  15
ATOM     15  N   UNL     1       2.798   5.246  18.104  0.00  0.00    +0.000 N 
ATOM     16  C   UNL     1       1.881   4.205  17.627  0.00  0.00    +0.000 C 
ATOM     17  C   UNL     1       2.664   2.913  17.817  0.00  0.00    +0.000 C 
ATOM     18  C   UNL     1       4.096   3.335  17.550  0.00  0.00    +0.000 C 
ATOM     19  C   UNL     1       4.175   4.747  18.133  0.00  0.00    +0.000 C 
ENDBRANCH   8  15
BRANCH   1  20
ATOM     20  C   UNL     1      -0.084  11.839  21.294  0.00  0.00    +0.000 C 
ATOM     21  O   UNL     1       0.503  12.667  21.979  0.00  0.00    +0.000 OA
BRANCH  20  22
ATOM     22  O   UNL     1      -1.425  11.698  21.196  0.00  0.00    +0.000 OA
BRANCH  22  24
ATOM     23  C   UNL     1      -2.735  12.044  23.248  0.00  0.00    +0.000 C 
ATOM     24  C   UNL     1      -2.202  12.639  21.954  0.00  0.00    +0.000 C 
ENDBRANCH  22  24
ENDBRANCH  20  22
ENDBRANCH   1  20
TORSDOF 4
ENDMDL
MODEL 5
REMARK VINA RESULT:      -6.5      1.045      1.918
REMARK  Name = 
REMARK  6 active torsions:
REMARK  status: ('A' for Active; 'I' for Inactive)
REMARK    1  A    between atoms: C_1  and  C_2
REMARK    2  A    between atoms: C_2  and  O_3
REMARK    3  A    between atoms: O_3  and  C_4
REMARK    4  A    between atoms: C_4  and  C_6
REMARK    5  A    between atoms: C_7  and  C_8
REMARK    6  A    between atoms: C_13  and  N_14
REMARK                            x       y       z     vdW  Elec       q    Type
REMARK                         _______ _______ _______ _____ _____    ______ ____
ROOT
ATOM      1  C   UNL     1       3.863   5.560  18.633  0.00  0.00    +0.000 A 
ATOM      2  C   UNL     1       3.921   6.513  17.596  0.00  0.00    +0.000 A 
ATOM      3  C   UNL     1       4.799   6.410  16.385  0.00  0.00    +0.000 C 
ATOM      4  N   UNL     1       3.162   7.672  17.691  0.00  0.00    +0.000 N 
ATOM      5  O   UNL     1       3.235   8.556  16.773  0.00  0.00    +0.000 OA
ATOM      6  C   UNL     1       2.328   7.884  18.805  0.00  0.00    +0.000 A 
ATOM      7  C   UNL     1       1.586   9.081  18.938  0.00  0.00    +0.000 A 
ATOM      8  C   UNL     1       0.781   9.368  20.052  0.00  0.00    +0.000 A 
ATOM      9  C   UNL     1       0.673   8.337  21.003  0.00  0.00    +0.000 A 
ATOM     10  F   UNL     1      -0.112   8.467  22.085  0.00  0.00    +0.000 F 
ATOM     11  C   UNL     1       1.391   7.145  20.903  0.00  0.00    +0.000 A 
ATOM     12  C   UNL     1       2.249   6.906  19.813  0.00  0.00    +0.000 A 
ATOM     13  N   UNL     1       3.035   5.736  19.734  0.00  0.00    +0.000 N 
ATOM     14  O   UNL     1       3.000   4.909  20.704  0.00  0.00    +0.000 OA
ENDROOT
BRANCH   8  15
ATOM     15  N   UNL     1       0.150  10.597  20.156  0.00  0.00    +0.000 N 
ATOM     16  C   UNL     1       0.365  11.477  21.309  0.00  0.00    +0.000 C 
ATOM     17  C   UNL     1      -1.031  11.977  21.653  0.00  0.00    +0.000 C 
ATOM     18  C   UNL     1      -1.707  12.071  20.298  0.00  0.00    +0.000 C 
ATOM     19  C   UNL     1      -1.142  10.878  19.526  0.00  0.00    +0.000 C 
ENDBRANCH   8  15
BRANCH   1  20
ATOM     20  C   UNL     1       4.766   4.406  18.635  0.00  0.00    +0.000 C 
ATOM     21  O   UNL     1       4.434   3.333  18.147  0.00  0.00    +0.000 OA
BRANCH  20  22
ATOM     22  O   UNL     1       5.907   4.647  19.319  0.00  0.00    +0.000 OA
BRANCH  22  24
ATOM     23  C   UNL     1       7.724   6.184  18.698  0.00  0.00    +0.000 C 
ATOM     24  C   UNL     1       7.086   4.816  18.514  0.00  0.00    +0.000 C 
ENDBRANCH  22  24
ENDBRANCH  20  22
ENDBRANCH   1  20
TORSDOF 4
ENDMDL
MODEL 6
REMARK VINA RESULT:      -6.4      1.281      2.192
REMARK  Name = 
REMARK  6 active torsions:
REMARK  status: ('A' for Active; 'I' for Inactive)
REMARK    1  A    between atoms: C_1  and  C_2
REMARK    2  A    between atoms: C_2  and  O_3
REMARK    3  A    between atoms: O_3  and  C_4
REMARK    4  A    between atoms: C_4  and  C_6
REMARK    5  A    between atoms: C_7  and  C_8
REMARK    6  A    between atoms: C_13  and  N_14
REMARK                            x       y       z     vdW  Elec       q    Type
REMARK                         _______ _______ _______ _____ _____    ______ ____
ROOT
ATOM      1  C   UNL     1       3.493   5.957  18.871  0.00  0.00    +0.000 A 
ATOM      2  C   UNL     1       3.521   6.932  17.854  0.00  0.00    +0.000 A 
ATOM      3  C   UNL     1       4.394   6.876  16.636  0.00  0.00    +0.000 C 
ATOM      4  N   UNL     1       2.734   8.070  17.975  0.00  0.00    +0.000 N 
ATOM      5  O   UNL     1       2.780   8.973  17.075  0.00  0.00    +0.000 OA
ATOM      6  C   UNL     1       1.901   8.238  19.098  0.00  0.00    +0.000 A 
ATOM      7  C   UNL     1       1.130   9.413  19.259  0.00  0.00    +0.000 A 
ATOM      8  C   UNL     1       0.325   9.658  20.382  0.00  0.00    +0.000 A 
ATOM      9  C   UNL     1       0.248   8.606  21.313  0.00  0.00    +0.000 A 
ATOM     10  F   UNL     1      -0.534   8.694  22.401  0.00  0.00    +0.000 F 
ATOM     11  C   UNL     1       0.995   7.434  21.185  0.00  0.00    +0.000 A 
ATOM     12  C   UNL     1       1.852   7.239  20.086  0.00  0.00    +0.000 A 
ATOM     13  N   UNL     1       2.667   6.090  19.980  0.00  0.00    +0.000 N 
ATOM     14  O   UNL     1       2.658   5.244  20.933  0.00  0.00    +0.000 OA
ENDROOT
BRANCH   8  15
ATOM     15  N   UNL     1      -0.336  10.868  20.514  0.00  0.00    +0.000 N 
ATOM     16  C   UNL     1      -1.321  11.319  19.527  0.00  0.00    +0.000 C 
ATOM     17  C   UNL     1      -0.986  12.790  19.321  0.00  0.00    +0.000 C 
ATOM     18  C   UNL     1      -0.511  13.230  20.692  0.00  0.00    +0.000 C 
ATOM     19  C   UNL     1       0.242  12.011  21.226  0.00  0.00    +0.000 C 
ENDBRANCH   8  15
BRANCH   1  20
ATOM     20  C   UNL     1       4.425   4.826  18.845  0.00  0.00    +0.000 C 
ATOM     21  O   UNL     1       4.083   3.725  18.434  0.00  0.00    +0.000 OA
BRANCH  20  22
ATOM     22  O   UNL     1       5.612   5.125  19.418  0.00  0.00    +0.000 OA
BRANCH  22  24
ATOM     23  C   UNL     1       7.656   6.225  18.607  0.00  0.00    +0.000 C 
ATOM     24  C   UNL     1       6.760   4.997  18.564  0.00  0.00    +0.000 C 
ENDBRANCH  22  24
ENDBRANCH  20  22
ENDBRANCH   1  20
TORSDOF 4
ENDMDL
MODEL 7
REMARK VINA RESULT:      -6.4      2.951      7.409
REMARK  Name = 
REMARK  6 active torsions:
REMARK  status: ('A' for Active; 'I' for Inactive)
REMARK    1  A    between atoms: C_1  and  C_2
REMARK    2  A    between atoms: C_2  and  O_3
REMARK    3  A    between atoms: O_3  and  C_4
REMARK    4  A    between atoms: C_4  and  C_6
REMARK    5  A    between atoms: C_7  and  C_8
REMARK    6  A    between atoms: C_13  and  N_14
REMARK                            x       y       z     vdW  Elec       q    Type
REMARK                         _______ _______ _______ _____ _____    ______ ____
ROOT
ATOM      1  C   UNL     1       0.447  10.627  20.550  0.00  0.00    +0.000 A 
ATOM      2  C   UNL     1       0.969  10.885  19.267  0.00  0.00    +0.000 A 
ATOM      3  C   UNL     1       0.844  12.188  18.537  0.00  0.00    +0.000 C 
ATOM      4  N   UNL     1       1.611   9.867  18.573  0.00  0.00    +0.000 N 
ATOM      5  O   UNL     1       2.057  10.084  17.396  0.00  0.00    +0.000 OA
ATOM      6  C   UNL     1       1.753   8.593  19.155  0.00  0.00    +0.000 A 
ATOM      7  C   UNL     1       2.362   7.534  18.441  0.00  0.00    +0.000 A 
ATOM      8  C   UNL     1       2.482   6.231  18.950  0.00  0.00    +0.000 A 
ATOM      9  C   UNL     1       2.044   6.057  20.276  0.00  0.00    +0.000 A 
ATOM     10  F   UNL     1       2.158   4.872  20.897  0.00  0.00    +0.000 F 
ATOM     11  C   UNL     1       1.439   7.079  21.008  0.00  0.00    +0.000 A 
ATOM     12  C   UNL     1       1.263   8.360  20.452  0.00  0.00    +0.000 A 
ATOM     13  N   UNL     1       0.589   9.384  21.154  0.00  0.00    +0.000 N 
ATOM     14  O   UNL     1       0.086   9.114  22.294  0.00  0.00    +0.000 OA
ENDROOT
BRANCH   8  15
ATOM     15  N   UNL     1       3.011   5.223  18.163  0.00  0.00    +0.000 N 
ATOM     16  C   UNL     1       2.162   4.186  17.567  0.00  0.00    +0.000 C 
ATOM     17  C   UNL     1       2.942   2.899  17.796  0.00  0.00    +0.000 C 
ATOM     18  C   UNL     1       4.387   3.346  17.685  0.00  0.00    +0.000 C 
ATOM     19  C   UNL     1       4.386   4.740  18.314  0.00  0.00    +0.000 C 
ENDBRANCH   8  15
BRANCH   1  20
ATOM     20  C   UNL     1      -0.367  11.632  21.239  0.00  0.00    +0.000 C 
ATOM     21  O   UNL     1      -1.574  11.716  21.051  0.00  0.00    +0.000 OA
BRANCH  20  22
ATOM     22  O   UNL     1       0.381  12.481  21.979  0.00  0.00    +0.000 OA
BRANCH  22  24
ATOM     23  C   UNL     1      -0.742  14.363  23.095  0.00  0.00    +0.000 C 
ATOM     24  C   UNL     1       0.023  13.869  21.877  0.00  0.00    +0.000 C 
ENDBRANCH  22  24
ENDBRANCH  20  22
ENDBRANCH   1  20
TORSDOF 4
ENDMDL
MODEL 8
REMARK VINA RESULT:      -6.3      3.185      7.528
REMARK  Name = 
REMARK  6 active torsions:
REMARK  status: ('A' for Active; 'I' for Inactive)
REMARK    1  A    between atoms: C_1  and  C_2
REMARK    2  A    between atoms: C_2  and  O_3
REMARK    3  A    between atoms: O_3  and  C_4
REMARK    4  A    between atoms: C_4  and  C_6
REMARK    5  A    between atoms: C_7  and  C_8
REMARK    6  A    between atoms: C_13  and  N_14
REMARK                            x       y       z     vdW  Elec       q    Type
REMARK                         _______ _______ _______ _____ _____    ______ ____
ROOT
ATOM      1  C   UNL     1       1.111  10.927  19.431  0.00  0.00    +0.000 A 
ATOM      2  C   UNL     1       0.583  10.461  20.652  0.00  0.00    +0.000 A 
ATOM      3  C   UNL     1      -0.093  11.321  21.677  0.00  0.00    +0.000 C 
ATOM      4  N   UNL     1       0.723   9.121  20.990  0.00  0.00    +0.000 N 
ATOM      5  O   UNL     1       0.278   8.699  22.109  0.00  0.00    +0.000 OA
ATOM      6  C   UNL     1       1.373   8.234  20.111  0.00  0.00    +0.000 A 
ATOM      7  C   UNL     1       1.566   6.877  20.464  0.00  0.00    +0.000 A 
ATOM      8  C   UNL     1       2.253   5.961  19.652  0.00  0.00    +0.000 A 
ATOM      9  C   UNL     1       2.662   6.450  18.398  0.00  0.00    +0.000 A 
ATOM     10  F   UNL     1       3.278   5.657  17.507  0.00  0.00    +0.000 F 
ATOM     11  C   UNL     1       2.488   7.782  18.019  0.00  0.00    +0.000 A 
ATOM     12  C   UNL     1       1.860   8.703  18.879  0.00  0.00    +0.000 A 
ATOM     13  N   UNL     1       1.741  10.069  18.538  0.00  0.00    +0.000 N 
ATOM     14  O   UNL     1       2.265  10.475  17.449  0.00  0.00    +0.000 OA
ENDROOT
BRANCH   8  15
ATOM     15  N   UNL     1       2.480   4.669  20.098  0.00  0.00    +0.000 N 
ATOM     16  C   UNL     1       2.245   3.505  19.238  0.00  0.00    +0.000 C 
ATOM     17  C   UNL     1       1.541   2.512  20.152  0.00  0.00    +0.000 C 
ATOM     18  C   UNL     1       2.172   2.780  21.505  0.00  0.00    +0.000 C 
ATOM     19  C   UNL     1       2.389   4.294  21.511  0.00  0.00    +0.000 C 
ENDBRANCH   8  15
BRANCH   1  20
ATOM     20  C   UNL     1       1.115  12.359  19.118  0.00  0.00    +0.000 C 
ATOM     21  O   UNL     1       0.223  12.871  18.454  0.00  0.00    +0.000 OA
BRANCH  20  22
ATOM     22  O   UNL     1       2.241  12.975  19.544  0.00  0.00    +0.000 OA
BRANCH  22  24
ATOM     23  C   UNL     1       3.554  14.541  18.175  0.00  0.00    +0.000 C 
ATOM     24  C   UNL     1       2.389  14.344  19.133  0.00  0.00    +0.000 C 
ENDBRANCH  22  24
ENDBRANCH  20  22
ENDBRANCH   1  20
TORSDOF 4
ENDMDL
MODEL 9
REMARK VINA RESULT:      -6.3      2.038      3.473
REMARK  Name = 
REMARK  6 active torsions:
REMARK  status: ('A' for Active; 'I' for Inactive)
REMARK    1  A    between atoms: C_1  and  C_2
REMARK    2  A    between atoms: C_2  and  O_3
REMARK    3  A    between atoms: O_3  and  C_4
REMARK    4  A    between atoms: C_4  and  C_6
REMARK    5  A    between atoms: C_7  and  C_8
REMARK    6  A    between atoms: C_13  and  N_14
REMARK                            x       y       z     vdW  Elec       q    Type
REMARK                         _______ _______ _______ _____ _____    ______ ____
ROOT
ATOM      1  C   UNL     1       5.013   5.207  17.532  0.00  0.00    +0.000 A 
ATOM      2  C   UNL     1       4.448   4.647  18.696  0.00  0.00    +0.000 A 
ATOM      3  C   UNL     1       4.760   3.281  19.228  0.00  0.00    +0.000 C 
ATOM      4  N   UNL     1       3.490   5.362  19.402  0.00  0.00    +0.000 N 
ATOM      5  O   UNL     1       2.949   4.848  20.438  0.00  0.00    +0.000 OA
ATOM      6  C   UNL     1       3.100   6.644  18.968  0.00  0.00    +0.000 A 
ATOM      7  C   UNL     1       2.091   7.364  19.650  0.00  0.00    +0.000 A 
ATOM      8  C   UNL     1       1.624   8.620  19.231  0.00  0.00    +0.000 A 
ATOM      9  C   UNL     1       2.298   9.179  18.130  0.00  0.00    +0.000 A 
ATOM     10  F   UNL     1       1.984  10.401  17.669  0.00  0.00    +0.000 F 
ATOM     11  C   UNL     1       3.296   8.497  17.434  0.00  0.00    +0.000 A 
ATOM     12  C   UNL     1       3.700   7.207  17.828  0.00  0.00    +0.000 A 
ATOM     13  N   UNL     1       4.658   6.476  17.092  0.00  0.00    +0.000 N 
ATOM     14  O   UNL     1       5.122   6.984  16.018  0.00  0.00    +0.000 OA
ENDROOT
BRANCH   8  15
ATOM     15  N   UNL     1       0.574   9.229  19.897  0.00  0.00    +0.000 N 
ATOM     16  C   UNL     1      -0.506   9.908  19.172  0.00  0.00    +0.000 C 
ATOM     17  C   UNL     1      -0.719  11.195  19.957  0.00  0.00    +0.000 C 
ATOM     18  C   UNL     1      -0.436  10.778  21.388  0.00  0.00    +0.000 C 
ATOM     19  C   UNL     1       0.702   9.766  21.253  0.00  0.00    +0.000 C 
ENDBRANCH   8  15
BRANCH   1  20
ATOM     20  C   UNL     1       5.908   4.415  16.683  0.00  0.00    +0.000 C 
ATOM     21  O   UNL     1       7.086   4.254  16.971  0.00  0.00    +0.000 OA
BRANCH  20  22
ATOM     22  O   UNL     1       5.308   4.011  15.540  0.00  0.00    +0.000 OA
BRANCH  22  24
ATOM     23  C   UNL     1       5.386   3.675  13.105  0.00  0.00    +0.000 C 
ATOM     24  C   UNL     1       6.161   3.946  14.386  0.00  0.00    +0.000 C 
ENDBRANCH  22  24
ENDBRANCH  20  22
ENDBRANCH   1  20
TORSDOF 4
ENDMDL
