MODEL 1
REMARK VINA RESULT:      -6.8      0.000      0.000
REMARK  Name = 
REMARK  4 active torsions:
REMARK  status: ('A' for Active; 'I' for Inactive)
REMARK    1  A    between atoms: C_1  and  O_2
REMARK    2  A    between atoms: O_2  and  C_3
REMARK    3  A    between atoms: C_7  and  C_8
REMARK    4  A    between atoms: C_11  and  O_12
REMARK                            x       y       z     vdW  Elec       q    Type
REMARK                         _______ _______ _______ _____ _____    ______ ____
ROOT
ATOM      1  C   UNL     1       7.202   5.069  14.978  0.00  0.00    +0.000 A 
ATOM      2  N   UNL     1       7.338   5.264  16.258  0.00  0.00    +0.000 NA
ATOM      3  N   UNL     1       6.241   4.717  16.815  0.00  0.00    +0.000 N 
ATOM      4  C   UNL     1       5.845   4.627  18.108  0.00  0.00    +0.000 A 
ATOM      5  C   UNL     1       4.626   3.965  18.047  0.00  0.00    +0.000 A 
ATOM      6  N   UNL     1       4.276   3.669  16.734  0.00  0.00    +0.000 NA
ATOM      7  C   UNL     1       5.289   4.132  16.052  0.00  0.00    +0.000 A 
ATOM      8  S   UNL     1       5.743   4.220  14.404  0.00  0.00    +0.000 S 
ENDROOT
BRANCH   5   9
ATOM      9  C   UNL     1       3.798   3.658  19.201  0.00  0.00    +0.000 A 
ATOM     10  C   UNL     1       4.128   2.583  20.037  0.00  0.00    +0.000 A 
ATOM     11  C   UNL     1       3.308   2.246  21.118  0.00  0.00    +0.000 A 
ATOM     12  C   UNL     1       2.163   2.997  21.369  0.00  0.00    +0.000 A 
ATOM     13  C   UNL     1       1.830   4.079  20.566  0.00  0.00    +0.000 A 
ATOM     14  C   UNL     1       2.648   4.410  19.484  0.00  0.00    +0.000 A 
BRANCH  12  15
ATOM     15  O   UNL     1       1.327   2.700  22.403  0.00  0.00    +0.000 OA
ATOM     16  H   UNL     1       1.622   3.188  23.189  0.00  0.00    +0.000 HD
ENDBRANCH  12  15
ENDBRANCH   5   9
BRANCH   1  18
ATOM     17  C   UNL     1       7.791   5.176  12.703  0.00  0.00    +0.000 C 
ATOM     18  O   UNL     1       8.112   5.486  14.063  0.00  0.00    +0.000 OA
ENDBRANCH   1  18
TORSDOF 3
ENDMDL
MODEL 2
REMARK VINA RESULT:      -6.7      0.088      1.176
REMARK  Name = 
REMARK  4 active torsions:
REMARK  status: ('A' for Active; 'I' for Inactive)
REMARK    1  A    between atoms: C_1  and  O_2
REMARK    2  A    between atoms: O_2  and  C_3
REMARK    3  A    between atoms: C_7  and  C_8
REMARK    4  A    between atoms: C_11  and  O_12
REMARK                            x       y       z     vdW  Elec       q    Type
REMARK                         _______ _______ _______ _____ _____    ______ ____
ROOT
ATOM      1  C   UNL     1       7.255   5.132  15.006  0.00  0.00    +0.000 A 
ATOM      2  N   UNL     1       7.353   5.315  16.291  0.00  0.00    +0.000 NA
ATOM      3  N   UNL     1       6.251   4.742  16.812  0.00  0.00    +0.000 N 
ATOM      4  C   UNL     1       5.821   4.630  18.092  0.00  0.00    +0.000 A 
ATOM      5  C   UNL     1       4.616   3.948  17.990  0.00  0.00    +0.000 A 
ATOM      6  N   UNL     1       4.308   3.661  16.664  0.00  0.00    +0.000 NA
ATOM      7  C   UNL     1       5.331   4.149  16.016  0.00  0.00    +0.000 A 
ATOM      8  S   UNL     1       5.828   4.264  14.382  0.00  0.00    +0.000 S 
ENDROOT
BRANCH   5   9
ATOM      9  C   UNL     1       3.763   3.614  19.116  0.00  0.00    +0.000 A 
ATOM     10  C   UNL     1       2.627   4.388  19.393  0.00  0.00    +0.000 A 
ATOM     11  C   UNL     1       1.830   4.106  20.507  0.00  0.00    +0.000 A 
ATOM     12  C   UNL     1       2.164   3.039  21.337  0.00  0.00    +0.000 A 
ATOM     13  C   UNL     1       3.272   2.247  21.067  0.00  0.00    +0.000 A 
ATOM     14  C   UNL     1       4.069   2.533  19.958  0.00  0.00    +0.000 A 
BRANCH  12  15
ATOM     15  O   UNL     1       1.424   2.734  22.439  0.00  0.00    +0.000 OA
ATOM     16  H   UNL     1       0.689   3.365  22.502  0.00  0.00    +0.000 HD
ENDBRANCH  12  15
ENDBRANCH   5   9
BRANCH   1  18
ATOM     17  C   UNL     1       7.918   5.254  12.752  0.00  0.00    +0.000 C 
ATOM     18  O   UNL     1       8.183   5.576  14.121  0.00  0.00    +0.000 OA
ENDBRANCH   1  18
TORSDOF 3
ENDMDL
MODEL 3
REMARK VINA RESULT:      -6.6      1.236      1.861
REMARK  Name = 
REMARK  4 active torsions:
REMARK  status: ('A' for Active; 'I' for Inactive)
REMARK    1  A    between atoms: C_1  and  O_2
REMARK    2  A    between atoms: O_2  and  C_3
REMARK    3  A    between atoms: C_7  and  C_8
REMARK    4  A    between atoms: C_11  and  O_12
REMARK                            x       y       z     vdW  Elec       q    Type
REMARK                         _______ _______ _______ _____ _____    ______ ____
ROOT
ATOM      1  C   UNL     1       6.909   5.162  15.504  0.00  0.00    +0.000 A 
ATOM      2  N   UNL     1       6.017   4.213  15.522  0.00  0.00    +0.000 NA
ATOM      3  N   UNL     1       5.435   4.302  16.732  0.00  0.00    +0.000 N 
ATOM      4  C   UNL     1       4.448   3.572  17.305  0.00  0.00    +0.000 A 
ATOM      5  C   UNL     1       4.293   4.134  18.565  0.00  0.00    +0.000 A 
ATOM      6  N   UNL     1       5.184   5.183  18.763  0.00  0.00    +0.000 NA
ATOM      7  C   UNL     1       5.825   5.239  17.627  0.00  0.00    +0.000 A 
ATOM      8  S   UNL     1       7.076   6.191  16.950  0.00  0.00    +0.000 S 
ENDROOT
BRANCH   5   9
ATOM      9  C   UNL     1       3.353   3.663  19.567  0.00  0.00    +0.000 A 
ATOM     10  C   UNL     1       2.072   4.228  19.650  0.00  0.00    +0.000 A 
ATOM     11  C   UNL     1       1.179   3.818  20.645  0.00  0.00    +0.000 A 
ATOM     12  C   UNL     1       1.565   2.833  21.549  0.00  0.00    +0.000 A 
ATOM     13  C   UNL     1       2.821   2.245  21.470  0.00  0.00    +0.000 A 
ATOM     14  C   UNL     1       3.712   2.659  20.479  0.00  0.00    +0.000 A 
BRANCH  12  15
ATOM     15  O   UNL     1       0.734   2.410  22.542  0.00  0.00    +0.000 OA
ATOM     16  H   UNL     1       0.754   3.063  23.260  0.00  0.00    +0.000 HD
ENDBRANCH  12  15
ENDBRANCH   5   9
BRANCH   1  18
ATOM     17  C   UNL     1       7.274   4.838  13.202  0.00  0.00    +0.000 C 
ATOM     18  O   UNL     1       7.719   5.399  14.441  0.00  0.00    +0.000 OA
ENDBRANCH   1  18
TORSDOF 3
ENDMDL
MODEL 4
REMARK VINA RESULT:      -6.3      1.281      1.480
REMARK  Name = 
REMARK  4 active torsions:
REMARK  status: ('A' for Active; 'I' for Inactive)
REMARK    1  A    between atoms: C_1  and  O_2
REMARK    2  A    between atoms: O_2  and  C_3
REMARK    3  A    between atoms: C_7  and  C_8
REMARK    4  A    between atoms: C_11  and  O_12
REMARK                            x       y       z     vdW  Elec       q    Type
REMARK                         _______ _______ _______ _____ _____    ______ ____
ROOT
ATOM      1  C   UNL     1       6.415   4.791  14.932  0.00  0.00    +0.000 A 
ATOM      2  N   UNL     1       5.171   4.412  15.000  0.00  0.00    +0.000 NA
ATOM      3  N   UNL     1       4.921   4.262  16.314  0.00  0.00    +0.000 N 
ATOM      4  C   UNL     1       3.800   3.882  16.974  0.00  0.00    +0.000 A 
ATOM      5  C   UNL     1       4.166   3.906  18.313  0.00  0.00    +0.000 A 
ATOM      6  N   UNL     1       5.496   4.280  18.467  0.00  0.00    +0.000 NA
ATOM      7  C   UNL     1       5.883   4.492  17.238  0.00  0.00    +0.000 A 
ATOM      8  S   UNL     1       7.325   4.975  16.454  0.00  0.00    +0.000 S 
ENDROOT
BRANCH   5   9
ATOM      9  C   UNL     1       3.287   3.545  19.412  0.00  0.00    +0.000 A 
ATOM     10  C   UNL     1       3.771   2.766  20.472  0.00  0.00    +0.000 A 
ATOM     11  C   UNL     1       2.919   2.368  21.508  0.00  0.00    +0.000 A 
ATOM     12  C   UNL     1       1.584   2.762  21.486  0.00  0.00    +0.000 A 
ATOM     13  C   UNL     1       1.091   3.551  20.455  0.00  0.00    +0.000 A 
ATOM     14  C   UNL     1       1.942   3.943  19.421  0.00  0.00    +0.000 A 
BRANCH  12  15
ATOM     15  O   UNL     1       0.714   2.389  22.465  0.00  0.00    +0.000 OA
ATOM     16  H   UNL     1       1.164   1.764  23.057  0.00  0.00    +0.000 HD
ENDBRANCH  12  15
ENDBRANCH   5   9
BRANCH   1  18
ATOM     17  C   UNL     1       6.810   4.091  12.721  0.00  0.00    +0.000 C 
ATOM     18  O   UNL     1       7.051   5.044  13.761  0.00  0.00    +0.000 OA
ENDBRANCH   1  18
TORSDOF 3
ENDMDL
MODEL 5
REMARK VINA RESULT:      -6.3      4.613      7.297
REMARK  Name = 
REMARK  4 active torsions:
REMARK  status: ('A' for Active; 'I' for Inactive)
REMARK    1  A    between atoms: C_1  and  O_2
REMARK    2  A    between atoms: O_2  and  C_3
REMARK    3  A    between atoms: C_7  and  C_8
REMARK    4  A    between atoms: C_11  and  O_12
REMARK                            x       y       z     vdW  Elec       q    Type
REMARK                         _______ _______ _______ _____ _____    ______ ____
ROOT
ATOM      1  C   UNL     1       0.623   9.235  20.816  0.00  0.00    +0.000 A 
ATOM      2  N   UNL     1       1.134   8.066  21.077  0.00  0.00    +0.000 NA
ATOM      3  N   UNL     1       1.810   7.722  19.965  0.00  0.00    +0.000 N 
ATOM      4  C   UNL     1       2.531   6.616  19.662  0.00  0.00    +0.000 A 
ATOM      5  C   UNL     1       2.973   6.838  18.365  0.00  0.00    +0.000 A 
ATOM      6  N   UNL     1       2.515   8.058  17.877  0.00  0.00    +0.000 NA
ATOM      7  C   UNL     1       1.841   8.539  18.886  0.00  0.00    +0.000 A 
ATOM      8  S   UNL     1       0.940   9.957  19.217  0.00  0.00    +0.000 S 
ENDROOT
BRANCH   5   9
ATOM      9  C   UNL     1       3.775   5.902  17.597  0.00  0.00    +0.000 A 
ATOM     10  C   UNL     1       3.599   4.522  17.767  0.00  0.00    +0.000 A 
ATOM     11  C   UNL     1       4.404   3.612  17.072  0.00  0.00    +0.000 A 
ATOM     12  C   UNL     1       5.376   4.088  16.197  0.00  0.00    +0.000 A 
ATOM     13  C   UNL     1       5.551   5.451  15.998  0.00  0.00    +0.000 A 
ATOM     14  C   UNL     1       4.750   6.356  16.696  0.00  0.00    +0.000 A 
BRANCH  12  15
ATOM     15  O   UNL     1       6.191   3.241  15.507  0.00  0.00    +0.000 OA
ATOM     16  H   UNL     1       5.667   2.802  14.818  0.00  0.00    +0.000 HD
ENDBRANCH  12  15
ENDBRANCH   5   9
BRANCH   1  18
ATOM     17  C   UNL     1       0.006   9.530  23.067  0.00  0.00    +0.000 C 
ATOM     18  O   UNL     1      -0.142   9.924  21.699  0.00  0.00    +0.000 OA
ENDBRANCH   1  18
TORSDOF 3
ENDMDL
MODEL 6
REMARK VINA RESULT:      -6.1      4.573      7.336
REMARK  Name = 
REMARK  4 active torsions:
REMARK  status: ('A' for Active; 'I' for Inactive)
REMARK    1  A    between atoms: C_1  and  O_2
REMARK    2  A    between atoms: O_2  and  C_3
REMARK    3  A    between atoms: C_7  and  C_8
REMARK    4  A    between atoms: C_11  and  O_12
REMARK                            x       y       z     vdW  Elec       q    Type
REMARK                         _______ _______ _______ _____ _____    ______ ____
ROOT
ATOM      1  C   UNL     1       0.735   8.964  20.837  0.00  0.00    +0.000 A 
ATOM      2  N   UNL     1       1.289   7.799  21.019  0.00  0.00    +0.000 NA
ATOM      3  N   UNL     1       1.967   7.551  19.884  0.00  0.00    +0.000 N 
ATOM      4  C   UNL     1       2.724   6.492  19.507  0.00  0.00    +0.000 A 
ATOM      5  C   UNL     1       3.148   6.813  18.224  0.00  0.00    +0.000 A 
ATOM      6  N   UNL     1       2.644   8.045  17.818  0.00  0.00    +0.000 NA
ATOM      7  C   UNL     1       1.961   8.436  18.860  0.00  0.00    +0.000 A 
ATOM      8  S   UNL     1       1.015   9.798  19.286  0.00  0.00    +0.000 S 
ENDROOT
BRANCH   5   9
ATOM      9  C   UNL     1       3.976   5.957  17.393  0.00  0.00    +0.000 A 
ATOM     10  C   UNL     1       4.825   6.519  16.430  0.00  0.00    +0.000 A 
ATOM     11  C   UNL     1       5.585   5.700  15.589  0.00  0.00    +0.000 A 
ATOM     12  C   UNL     1       5.504   4.317  15.722  0.00  0.00    +0.000 A 
ATOM     13  C   UNL     1       4.685   3.741  16.685  0.00  0.00    +0.000 A 
ATOM     14  C   UNL     1       3.924   4.560  17.520  0.00  0.00    +0.000 A 
BRANCH  12  15
ATOM     15  O   UNL     1       6.216   3.479  14.918  0.00  0.00    +0.000 OA
ATOM     16  H   UNL     1       5.755   3.403  14.067  0.00  0.00    +0.000 HD
ENDBRANCH  12  15
ENDBRANCH   5   9
BRANCH   1  18
ATOM     17  C   UNL     1      -0.296  10.959  21.539  0.00  0.00    +0.000 C 
ATOM     18  O   UNL     1      -0.046   9.568  21.767  0.00  0.00    +0.000 OA
ENDBRANCH   1  18
TORSDOF 3
ENDMDL
MODEL 7
REMARK VINA RESULT:      -6.1      5.228      7.469
REMARK  Name = 
REMARK  4 active torsions:
REMARK  status: ('A' for Active; 'I' for Inactive)
REMARK    1  A    between atoms: C_1  and  O_2
REMARK    2  A    between atoms: O_2  and  C_3
REMARK    3  A    between atoms: C_7  and  C_8
REMARK    4  A    between atoms: C_11  and  O_12
REMARK                            x       y       z     vdW  Elec       q    Type
REMARK                         _______ _______ _______ _____ _____    ______ ____
ROOT
ATOM      1  C   UNL     1       0.498  10.157  20.379  0.00  0.00    +0.000 A 
ATOM      2  N   UNL     1       0.934  10.097  19.153  0.00  0.00    +0.000 NA
ATOM      3  N   UNL     1       1.576   8.917  19.067  0.00  0.00    +0.000 N 
ATOM      4  C   UNL     1       2.228   8.327  18.036  0.00  0.00    +0.000 A 
ATOM      5  C   UNL     1       2.689   7.128  18.563  0.00  0.00    +0.000 A 
ATOM      6  N   UNL     1       2.336   6.995  19.901  0.00  0.00    +0.000 NA
ATOM      7  C   UNL     1       1.662   8.089  20.134  0.00  0.00    +0.000 A 
ATOM      8  S   UNL     1       0.852   8.791  21.469  0.00  0.00    +0.000 S 
ENDROOT
BRANCH   5   9
ATOM      9  C   UNL     1       3.476   6.155  17.826  0.00  0.00    +0.000 A 
ATOM     10  C   UNL     1       3.128   4.797  17.862  0.00  0.00    +0.000 A 
ATOM     11  C   UNL     1       3.912   3.846  17.200  0.00  0.00    +0.000 A 
ATOM     12  C   UNL     1       5.037   4.258  16.492  0.00  0.00    +0.000 A 
ATOM     13  C   UNL     1       5.386   5.600  16.427  0.00  0.00    +0.000 A 
ATOM     14  C   UNL     1       4.606   6.547  17.092  0.00  0.00    +0.000 A 
BRANCH  12  15
ATOM     15  O   UNL     1       5.837   3.367  15.842  0.00  0.00    +0.000 OA
ATOM     16  H   UNL     1       6.641   3.828  15.552  0.00  0.00    +0.000 HD
ENDBRANCH  12  15
ENDBRANCH   5   9
BRANCH   1  18
ATOM     17  C   UNL     1      -0.577  11.107  22.244  0.00  0.00    +0.000 C 
ATOM     18  O   UNL     1      -0.205  11.210  20.866  0.00  0.00    +0.000 OA
ENDBRANCH   1  18
TORSDOF 3
ENDMDL
MODEL 8
REMARK VINA RESULT:      -6.1      4.876      7.396
REMARK  Name = 
REMARK  4 active torsions:
REMARK  status: ('A' for Active; 'I' for Inactive)
REMARK    1  A    between atoms: C_1  and  O_2
REMARK    2  A    between atoms: O_2  and  C_3
REMARK    3  A    between atoms: C_7  and  C_8
REMARK    4  A    between atoms: C_11  and  O_12
REMARK                            x       y       z     vdW  Elec       q    Type
REMARK                         _______ _______ _______ _____ _____    ______ ____
ROOT
ATOM      1  C   UNL     1       0.676   9.703  20.254  0.00  0.00    +0.000 A 
ATOM      2  N   UNL     1       1.118   9.744  19.029  0.00  0.00    +0.000 NA
ATOM      3  N   UNL     1       1.823   8.609  18.872  0.00  0.00    +0.000 N 
ATOM      4  C   UNL     1       2.509   8.121  17.811  0.00  0.00    +0.000 A 
ATOM      5  C   UNL     1       3.032   6.917  18.264  0.00  0.00    +0.000 A 
ATOM      6  N   UNL     1       2.683   6.681  19.589  0.00  0.00    +0.000 NA
ATOM      7  C   UNL     1       1.950   7.721  19.886  0.00  0.00    +0.000 A 
ATOM      8  S   UNL     1       1.099   8.292  21.257  0.00  0.00    +0.000 S 
ENDROOT
BRANCH   5   9
ATOM      9  C   UNL     1       3.873   6.036  17.472  0.00  0.00    +0.000 A 
ATOM     10  C   UNL     1       4.804   6.574  16.573  0.00  0.00    +0.000 A 
ATOM     11  C   UNL     1       5.580   5.733  15.768  0.00  0.00    +0.000 A 
ATOM     12  C   UNL     1       5.431   4.353  15.874  0.00  0.00    +0.000 A 
ATOM     13  C   UNL     1       4.530   3.801  16.774  0.00  0.00    +0.000 A 
ATOM     14  C   UNL     1       3.753   4.642  17.573  0.00  0.00    +0.000 A 
BRANCH  12  15
ATOM     15  O   UNL     1       6.156   3.496  15.102  0.00  0.00    +0.000 OA
ATOM     16  H   UNL     1       5.572   2.777  14.808  0.00  0.00    +0.000 HD
ENDBRANCH  12  15
ENDBRANCH   5   9
BRANCH   1  18
ATOM     17  C   UNL     1      -0.319  10.556  22.207  0.00  0.00    +0.000 C 
ATOM     18  O   UNL     1      -0.085  10.684  20.801  0.00  0.00    +0.000 OA
ENDBRANCH   1  18
TORSDOF 3
ENDMDL
MODEL 9
REMARK VINA RESULT:      -6.0      3.840      4.388
REMARK  Name = 
REMARK  4 active torsions:
REMARK  status: ('A' for Active; 'I' for Inactive)
REMARK    1  A    between atoms: C_1  and  O_2
REMARK    2  A    between atoms: O_2  and  C_3
REMARK    3  A    between atoms: C_7  and  C_8
REMARK    4  A    between atoms: C_11  and  O_12
REMARK                            x       y       z     vdW  Elec       q    Type
REMARK                         _______ _______ _______ _____ _____    ______ ____
ROOT
ATOM      1  C   UNL     1       5.800   4.798  15.718  0.00  0.00    +0.000 A 
ATOM      2  N   UNL     1       5.690   6.092  15.808  0.00  0.00    +0.000 NA
ATOM      3  N   UNL     1       4.692   6.300  16.687  0.00  0.00    +0.000 N 
ATOM      4  C   UNL     1       4.140   7.443  17.160  0.00  0.00    +0.000 A 
ATOM      5  C   UNL     1       3.146   7.011  18.027  0.00  0.00    +0.000 A 
ATOM      6  N   UNL     1       3.082   5.622  18.071  0.00  0.00    +0.000 NA
ATOM      7  C   UNL     1       4.039   5.262  17.260  0.00  0.00    +0.000 A 
ATOM      8  S   UNL     1       4.700   3.788  16.692  0.00  0.00    +0.000 S 
ENDROOT
BRANCH   5   9
ATOM      9  C   UNL     1       2.256   7.892  18.764  0.00  0.00    +0.000 A 
ATOM     10  C   UNL     1       1.987   7.648  20.117  0.00  0.00    +0.000 A 
ATOM     11  C   UNL     1       1.089   8.459  20.820  0.00  0.00    +0.000 A 
ATOM     12  C   UNL     1       0.472   9.522  20.169  0.00  0.00    +0.000 A 
ATOM     13  C   UNL     1       0.743   9.794  18.834  0.00  0.00    +0.000 A 
ATOM     14  C   UNL     1       1.635   8.981  18.134  0.00  0.00    +0.000 A 
BRANCH  12  15
ATOM     15  O   UNL     1      -0.417  10.332  20.808  0.00  0.00    +0.000 OA
ATOM     16  H   UNL     1      -0.543  11.134  20.276  0.00  0.00    +0.000 HD
ENDBRANCH  12  15
ENDBRANCH   5   9
BRANCH   1  18
ATOM     17  C   UNL     1       6.224   3.827  13.618  0.00  0.00    +0.000 C 
ATOM     18  O   UNL     1       6.706   4.184  14.917  0.00  0.00    +0.000 OA
ENDBRANCH   1  18
TORSDOF 3
ENDMDL
