MODEL 1
REMARK VINA RESULT:      -7.2      0.000      0.000
REMARK  Name = 
REMARK  7 active torsions:
REMARK  status: ('A' for Active; 'I' for Inactive)
REMARK    1  A    between atoms: C_1  and  C_2
REMARK    2  A    between atoms: C_5  and  C_6
REMARK    3  A    between atoms: N_7  and  O_8
REMARK    4  A    between atoms: N_9  and  C_10
REMARK    5  A    between atoms: C_15  and  O_16
REMARK    6  A    between atoms: O_16  and  C_17
REMARK    7  A    between atoms: C_17  and  C_18
REMARK                            x       y       z     vdW  Elec       q    Type
REMARK                         _______ _______ _______ _____ _____    ______ ____
ROOT
ATOM      1  C   UNL     1       8.086   8.736  17.441  0.00  0.00    +0.000 C 
ATOM      2  C   UNL     1       7.340   7.509  17.860  0.00  0.00    +0.000 A 
ATOM      3  C   UNL     1       7.926   6.543  18.652  0.00  0.00    +0.000 A 
ATOM      4  C   UNL     1       7.153   5.456  19.048  0.00  0.00    +0.000 A 
ATOM      5  C   UNL     1       5.807   5.342  18.658  0.00  0.00    +0.000 A 
ATOM      6  C   UNL     1       5.309   6.358  17.843  0.00  0.00    +0.000 A 
ATOM      7  N   UNL     1       6.062   7.412  17.429  0.00  0.00    +0.000 NA
ENDROOT
BRANCH   5   8
ATOM      8  C   UNL     1       5.013   4.176  19.233  0.00  0.00    +0.000 C 
ATOM      9  N   UNL     1       5.691   3.061  19.265  0.00  0.00    +0.000 NA
ATOM     10  N   UNL     1       3.741   4.427  19.717  0.00  0.00    +0.000 N 
ATOM     11  H   UNL     1       3.390   5.354  19.496  0.00  0.00    +0.000 HD
BRANCH  10  12
ATOM     12  C   UNL     1       2.670   3.446  19.818  0.00  0.00    +0.000 C 
ATOM     13  C   UNL     1       1.467   4.013  20.579  0.00  0.00    +0.000 C 
ATOM     14  C   UNL     1       0.330   3.086  20.168  0.00  0.00    +0.000 C 
ATOM     15  C   UNL     1       0.647   2.654  18.739  0.00  0.00    +0.000 C 
ATOM     16  C   UNL     1       2.074   3.122  18.454  0.00  0.00    +0.000 C 
ENDBRANCH  10  12
BRANCH   9  17
ATOM     17  O   UNL     1       5.047   2.013  19.924  0.00  0.00    +0.000 OA
ATOM     18  H   UNL     1       4.109   2.219  19.770  0.00  0.00    +0.000 HD
ENDBRANCH   9  17
ENDBRANCH   5   8
BRANCH   6  19
ATOM     19  O   UNL     1       4.012   6.315  17.369  0.00  0.00    +0.000 OA
BRANCH  19  20
ATOM     20  C   UNL     1       3.467   7.610  17.054  0.00  0.00    +0.000 C 
BRANCH  20  21
ATOM     21  C   UNL     1       2.772   8.284  18.250  0.00  0.00    +0.000 C 
ATOM     22  C   UNL     1       2.158   7.333  19.291  0.00  0.00    +0.000 C 
ATOM     23  C   UNL     1       1.624   8.133  20.489  0.00  0.00    +0.000 C 
ATOM     24  C   UNL     1       0.663   9.256  20.092  0.00  0.00    +0.000 C 
ATOM     25  C   UNL     1       1.159  10.091  18.914  0.00  0.00    +0.000 C 
ATOM     26  C   UNL     1       1.655   9.222  17.763  0.00  0.00    +0.000 C 
ENDBRANCH  20  21
ENDBRANCH  19  20
ENDBRANCH   6  19
TORSDOF 6
ENDMDL
MODEL 2
REMARK VINA RESULT:      -7.2      0.989      1.065
REMARK  Name = 
REMARK  7 active torsions:
REMARK  status: ('A' for Active; 'I' for Inactive)
REMARK    1  A    between atoms: C_1  and  C_2
REMARK    2  A    between atoms: C_5  and  C_6
REMARK    3  A    between atoms: N_7  and  O_8
REMARK    4  A    between atoms: N_9  and  C_10
REMARK    5  A    between atoms: C_15  and  O_16
REMARK    6  A    between atoms: O_16  and  C_17
REMARK    7  A    between atoms: C_17  and  C_18
REMARK                            x       y       z     vdW  Elec       q    Type
REMARK                         _______ _______ _______ _____ _____    ______ ____
ROOT
ATOM      1  C   UNL     1       7.972   8.540  17.603  0.00  0.00    +0.000 C 
ATOM      2  C   UNL     1       7.161   7.291  17.745  0.00  0.00    +0.000 A 
ATOM      3  C   UNL     1       7.720   6.116  18.206  0.00  0.00    +0.000 A 
ATOM      4  C   UNL     1       6.892   5.009  18.365  0.00  0.00    +0.000 A 
ATOM      5  C   UNL     1       5.519   5.081  18.071  0.00  0.00    +0.000 A 
ATOM      6  C   UNL     1       5.050   6.305  17.594  0.00  0.00    +0.000 A 
ATOM      7  N   UNL     1       5.854   7.386  17.411  0.00  0.00    +0.000 NA
ENDROOT
BRANCH   5   8
ATOM      8  C   UNL     1       4.676   3.852  18.383  0.00  0.00    +0.000 C 
ATOM      9  N   UNL     1       4.619   3.004  17.392  0.00  0.00    +0.000 NA
ATOM     10  N   UNL     1       4.150   3.727  19.657  0.00  0.00    +0.000 N 
ATOM     11  H   UNL     1       4.248   4.560  20.229  0.00  0.00    +0.000 HD
BRANCH  10  12
ATOM     12  C   UNL     1       2.962   2.961  20.006  0.00  0.00    +0.000 C 
ATOM     13  C   UNL     1       2.728   2.958  21.520  0.00  0.00    +0.000 C 
ATOM     14  C   UNL     1       1.260   2.566  21.642  0.00  0.00    +0.000 C 
ATOM     15  C   UNL     1       0.576   3.143  20.405  0.00  0.00    +0.000 C 
ATOM     16  C   UNL     1       1.694   3.619  19.477  0.00  0.00    +0.000 C 
ENDBRANCH  10  12
BRANCH   9  17
ATOM     17  O   UNL     1       3.983   1.800  17.699  0.00  0.00    +0.000 OA
ATOM     18  H   UNL     1       3.212   2.099  18.211  0.00  0.00    +0.000 HD
ENDBRANCH   9  17
ENDBRANCH   5   8
BRANCH   6  19
ATOM     19  O   UNL     1       3.727   6.465  17.234  0.00  0.00    +0.000 OA
BRANCH  19  20
ATOM     20  C   UNL     1       3.308   7.841  17.158  0.00  0.00    +0.000 C 
BRANCH  20  21
ATOM     21  C   UNL     1       2.622   8.338  18.443  0.00  0.00    +0.000 C 
ATOM     22  C   UNL     1       2.153   7.246  19.418  0.00  0.00    +0.000 C 
ATOM     23  C   UNL     1       1.616   7.883  20.709  0.00  0.00    +0.000 C 
ATOM     24  C   UNL     1       0.537   8.941  20.462  0.00  0.00    +0.000 C 
ATOM     25  C   UNL     1       0.892   9.919  19.344  0.00  0.00    +0.000 C 
ATOM     26  C   UNL     1       1.400   9.205  18.096  0.00  0.00    +0.000 C 
ENDBRANCH  20  21
ENDBRANCH  19  20
ENDBRANCH   6  19
TORSDOF 6
ENDMDL
MODEL 3
REMARK VINA RESULT:      -7.0      1.132      1.621
REMARK  Name = 
REMARK  7 active torsions:
REMARK  status: ('A' for Active; 'I' for Inactive)
REMARK    1  A    between atoms: C_1  and  C_2
REMARK    2  A    between atoms: C_5  and  C_6
REMARK    3  A    between atoms: N_7  and  O_8
REMARK    4  A    between atoms: N_9  and  C_10
REMARK    5  A    between atoms: C_15  and  O_16
REMARK    6  A    between atoms: O_16  and  C_17
REMARK    7  A    between atoms: C_17  and  C_18
REMARK                            x       y       z     vdW  Elec       q    Type
REMARK                         _______ _______ _______ _____ _____    ______ ____
ROOT
ATOM      1  C   UNL     1       7.977   8.317  17.493  0.00  0.00    +0.000 C 
ATOM      2  C   UNL     1       7.127   7.095  17.644  0.00  0.00    +0.000 A 
ATOM      3  C   UNL     1       7.684   5.852  17.868  0.00  0.00    +0.000 A 
ATOM      4  C   UNL     1       6.829   4.770  18.055  0.00  0.00    +0.000 A 
ATOM      5  C   UNL     1       5.433   4.934  18.022  0.00  0.00    +0.000 A 
ATOM      6  C   UNL     1       4.966   6.224  17.772  0.00  0.00    +0.000 A 
ATOM      7  N   UNL     1       5.791   7.283  17.563  0.00  0.00    +0.000 NA
ENDROOT
BRANCH   5   8
ATOM      8  C   UNL     1       4.583   3.713  18.348  0.00  0.00    +0.000 C 
ATOM      9  N   UNL     1       4.445   2.900  17.336  0.00  0.00    +0.000 NA
ATOM     10  N   UNL     1       4.134   3.558  19.648  0.00  0.00    +0.000 N 
ATOM     11  H   UNL     1       4.286   4.370  20.238  0.00  0.00    +0.000 HD
BRANCH  10  12
ATOM     12  C   UNL     1       2.951   2.807  20.046  0.00  0.00    +0.000 C 
ATOM     13  C   UNL     1       2.679   2.953  21.546  0.00  0.00    +0.000 C 
ATOM     14  C   UNL     1       1.217   2.545  21.674  0.00  0.00    +0.000 C 
ATOM     15  C   UNL     1       0.553   2.977  20.369  0.00  0.00    +0.000 C 
ATOM     16  C   UNL     1       1.685   3.380  19.423  0.00  0.00    +0.000 C 
ENDBRANCH  10  12
BRANCH   9  17
ATOM     17  O   UNL     1       3.801   1.700  17.644  0.00  0.00    +0.000 OA
ATOM     18  H   UNL     1       4.069   1.554  18.567  0.00  0.00    +0.000 HD
ENDBRANCH   9  17
ENDBRANCH   5   8
BRANCH   6  19
ATOM     19  O   UNL     1       3.612   6.480  17.675  0.00  0.00    +0.000 OA
BRANCH  19  20
ATOM     20  C   UNL     1       2.963   6.658  18.949  0.00  0.00    +0.000 C 
BRANCH  20  21
ATOM     21  C   UNL     1       1.925   7.795  18.947  0.00  0.00    +0.000 C 
ATOM     22  C   UNL     1       2.239   8.987  18.029  0.00  0.00    +0.000 C 
ATOM     23  C   UNL     1       1.062   9.974  18.022  0.00  0.00    +0.000 C 
ATOM     24  C   UNL     1       0.632  10.419  19.423  0.00  0.00    +0.000 C 
ATOM     25  C   UNL     1       0.516   9.265  20.416  0.00  0.00    +0.000 C 
ATOM     26  C   UNL     1       1.730   8.344  20.371  0.00  0.00    +0.000 C 
ENDBRANCH  20  21
ENDBRANCH  19  20
ENDBRANCH   6  19
TORSDOF 6
ENDMDL
MODEL 4
REMARK VINA RESULT:      -6.9      2.718      4.590
REMARK  Name = 
REMARK  7 active torsions:
REMARK  status: ('A' for Active; 'I' for Inactive)
REMARK    1  A    between atoms: C_1  and  C_2
REMARK    2  A    between atoms: C_5  and  C_6
REMARK    3  A    between atoms: N_7  and  O_8
REMARK    4  A    between atoms: N_9  and  C_10
REMARK    5  A    between atoms: C_15  and  O_16
REMARK    6  A    between atoms: O_16  and  C_17
REMARK    7  A    between atoms: C_17  and  C_18
REMARK                            x       y       z     vdW  Elec       q    Type
REMARK                         _______ _______ _______ _____ _____    ______ ____
ROOT
ATOM      1  C   UNL     1       8.315   8.647  17.329  0.00  0.00    +0.000 C 
ATOM      2  C   UNL     1       7.558   7.443  17.794  0.00  0.00    +0.000 A 
ATOM      3  C   UNL     1       7.900   6.779  18.954  0.00  0.00    +0.000 A 
ATOM      4  C   UNL     1       7.117   5.701  19.354  0.00  0.00    +0.000 A 
ATOM      5  C   UNL     1       6.001   5.296  18.600  0.00  0.00    +0.000 A 
ATOM      6  C   UNL     1       5.746   6.017  17.433  0.00  0.00    +0.000 A 
ATOM      7  N   UNL     1       6.519   7.056  17.020  0.00  0.00    +0.000 NA
ENDROOT
BRANCH   5   8
ATOM      8  C   UNL     1       5.142   4.178  19.176  0.00  0.00    +0.000 C 
ATOM      9  N   UNL     1       5.770   3.037  19.253  0.00  0.00    +0.000 NA
ATOM     10  N   UNL     1       3.868   4.494  19.615  0.00  0.00    +0.000 N 
ATOM     11  H   UNL     1       3.562   5.429  19.363  0.00  0.00    +0.000 HD
BRANCH  10  12
ATOM     12  C   UNL     1       2.753   3.561  19.705  0.00  0.00    +0.000 C 
ATOM     13  C   UNL     1       1.571   4.179  20.457  0.00  0.00    +0.000 C 
ATOM     14  C   UNL     1       0.397   3.304  20.035  0.00  0.00    +0.000 C 
ATOM     15  C   UNL     1       0.706   2.861  18.607  0.00  0.00    +0.000 C 
ATOM     16  C   UNL     1       2.155   3.266  18.335  0.00  0.00    +0.000 C 
ENDBRANCH  10  12
BRANCH   9  17
ATOM     17  O   UNL     1       5.063   2.033  19.916  0.00  0.00    +0.000 OA
ATOM     18  H   UNL     1       5.198   1.266  19.333  0.00  0.00    +0.000 HD
ENDBRANCH   9  17
ENDBRANCH   5   8
BRANCH   6  19
ATOM     19  O   UNL     1       4.700   5.670  16.601  0.00  0.00    +0.000 OA
BRANCH  19  20
ATOM     20  C   UNL     1       4.883   4.405  15.936  0.00  0.00    +0.000 C 
BRANCH  20  21
ATOM     21  C   UNL     1       5.477   4.544  14.522  0.00  0.00    +0.000 C 
ATOM     22  C   UNL     1       5.109   3.430  13.529  0.00  0.00    +0.000 C 
ATOM     23  C   UNL     1       5.651   3.766  12.132  0.00  0.00    +0.000 C 
ATOM     24  C   UNL     1       7.149   4.082  12.119  0.00  0.00    +0.000 C 
ATOM     25  C   UNL     1       7.577   5.031  13.236  0.00  0.00    +0.000 C 
ATOM     26  C   UNL     1       7.011   4.617  14.590  0.00  0.00    +0.000 C 
ENDBRANCH  20  21
ENDBRANCH  19  20
ENDBRANCH   6  19
TORSDOF 6
ENDMDL
MODEL 5
REMARK VINA RESULT:      -6.9      0.578      1.212
REMARK  Name = 
REMARK  7 active torsions:
REMARK  status: ('A' for Active; 'I' for Inactive)
REMARK    1  A    between atoms: C_1  and  C_2
REMARK    2  A    between atoms: C_5  and  C_6
REMARK    3  A    between atoms: N_7  and  O_8
REMARK    4  A    between atoms: N_9  and  C_10
REMARK    5  A    between atoms: C_15  and  O_16
REMARK    6  A    between atoms: O_16  and  C_17
REMARK    7  A    between atoms: C_17  and  C_18
REMARK                            x       y       z     vdW  Elec       q    Type
REMARK                         _______ _______ _______ _____ _____    ______ ____
ROOT
ATOM      1  C   UNL     1       8.089   8.870  17.407  0.00  0.00    +0.000 C 
ATOM      2  C   UNL     1       7.365   7.625  17.815  0.00  0.00    +0.000 A 
ATOM      3  C   UNL     1       7.982   6.644  18.565  0.00  0.00    +0.000 A 
ATOM      4  C   UNL     1       7.231   5.540  18.955  0.00  0.00    +0.000 A 
ATOM      5  C   UNL     1       5.875   5.423  18.600  0.00  0.00    +0.000 A 
ATOM      6  C   UNL     1       5.345   6.456  17.826  0.00  0.00    +0.000 A 
ATOM      7  N   UNL     1       6.076   7.527  17.419  0.00  0.00    +0.000 NA
ENDROOT
BRANCH   5   8
ATOM      8  C   UNL     1       5.109   4.236  19.166  0.00  0.00    +0.000 C 
ATOM      9  N   UNL     1       5.722   3.097  18.987  0.00  0.00    +0.000 NA
ATOM     10  N   UNL     1       3.934   4.484  19.855  0.00  0.00    +0.000 N 
ATOM     11  H   UNL     1       3.606   5.443  19.781  0.00  0.00    +0.000 HD
BRANCH  10  12
ATOM     12  C   UNL     1       2.836   3.541  20.014  0.00  0.00    +0.000 C 
ATOM     13  C   UNL     1       2.376   3.465  21.473  0.00  0.00    +0.000 C 
ATOM     14  C   UNL     1       0.984   2.856  21.366  0.00  0.00    +0.000 C 
ATOM     15  C   UNL     1       0.417   3.355  20.039  0.00  0.00    +0.000 C 
ATOM     16  C   UNL     1       1.579   4.016  19.297  0.00  0.00    +0.000 C 
ENDBRANCH  10  12
BRANCH   9  17
ATOM     17  O   UNL     1       5.122   2.012  19.627  0.00  0.00    +0.000 OA
ATOM     18  H   UNL     1       5.287   2.208  20.565  0.00  0.00    +0.000 HD
ENDBRANCH   9  17
ENDBRANCH   5   8
BRANCH   6  19
ATOM     19  O   UNL     1       4.036   6.412  17.388  0.00  0.00    +0.000 OA
BRANCH  19  20
ATOM     20  C   UNL     1       3.464   7.711  17.139  0.00  0.00    +0.000 C 
BRANCH  20  21
ATOM     21  C   UNL     1       2.303   8.055  18.090  0.00  0.00    +0.000 C 
ATOM     22  C   UNL     1       1.912   9.540  18.159  0.00  0.00    +0.000 C 
ATOM     23  C   UNL     1       0.661   9.717  19.032  0.00  0.00    +0.000 C 
ATOM     24  C   UNL     1       0.793   9.087  20.421  0.00  0.00    +0.000 C 
ATOM     25  C   UNL     1       1.380   7.678  20.394  0.00  0.00    +0.000 C 
ATOM     26  C   UNL     1       2.627   7.593  19.520  0.00  0.00    +0.000 C 
ENDBRANCH  20  21
ENDBRANCH  19  20
ENDBRANCH   6  19
TORSDOF 6
ENDMDL
MODEL 6
REMARK VINA RESULT:      -6.9      1.857      5.268
REMARK  Name = 
REMARK  7 active torsions:
REMARK  status: ('A' for Active; 'I' for Inactive)
REMARK    1  A    between atoms: C_1  and  C_2
REMARK    2  A    between atoms: C_5  and  C_6
REMARK    3  A    between atoms: N_7  and  O_8
REMARK    4  A    between atoms: N_9  and  C_10
REMARK    5  A    between atoms: C_15  and  O_16
REMARK    6  A    between atoms: O_16  and  C_17
REMARK    7  A    between atoms: C_17  and  C_18
REMARK                            x       y       z     vdW  Elec       q    Type
REMARK                         _______ _______ _______ _____ _____    ______ ____
ROOT
ATOM      1  C   UNL     1       0.395   1.969  18.818  0.00  0.00    +0.000 C 
ATOM      2  C   UNL     1       1.661   2.645  18.395  0.00  0.00    +0.000 A 
ATOM      3  C   UNL     1       2.771   1.922  18.009  0.00  0.00    +0.000 A 
ATOM      4  C   UNL     1       3.895   2.619  17.574  0.00  0.00    +0.000 A 
ATOM      5  C   UNL     1       3.902   4.024  17.522  0.00  0.00    +0.000 A 
ATOM      6  C   UNL     1       2.740   4.667  17.950  0.00  0.00    +0.000 A 
ATOM      7  N   UNL     1       1.646   3.998  18.400  0.00  0.00    +0.000 NA
ENDROOT
BRANCH   5   8
ATOM      8  C   UNL     1       5.135   4.691  16.928  0.00  0.00    +0.000 C 
ATOM      9  N   UNL     1       5.793   3.916  16.109  0.00  0.00    +0.000 NA
ATOM     10  N   UNL     1       5.375   6.018  17.240  0.00  0.00    +0.000 N 
ATOM     11  H   UNL     1       4.778   6.385  17.975  0.00  0.00    +0.000 HD
BRANCH  10  12
ATOM     12  C   UNL     1       6.679   6.666  17.220  0.00  0.00    +0.000 C 
ATOM     13  C   UNL     1       6.546   8.186  17.350  0.00  0.00    +0.000 C 
ATOM     14  C   UNL     1       7.939   8.618  17.794  0.00  0.00    +0.000 C 
ATOM     15  C   UNL     1       8.477   7.466  18.639  0.00  0.00    +0.000 C 
ATOM     16  C   UNL     1       7.506   6.301  18.447  0.00  0.00    +0.000 C 
ENDBRANCH  10  12
BRANCH   9  17
ATOM     17  O   UNL     1       6.838   4.546  15.432  0.00  0.00    +0.000 OA
ATOM     18  H   UNL     1       6.363   5.162  14.848  0.00  0.00    +0.000 HD
ENDBRANCH   9  17
ENDBRANCH   5   8
BRANCH   6  19
ATOM     19  O   UNL     1       2.664   6.045  17.980  0.00  0.00    +0.000 OA
BRANCH  19  20
ATOM     20  C   UNL     1       2.634   6.596  19.311  0.00  0.00    +0.000 C 
BRANCH  20  21
ATOM     21  C   UNL     1       2.235   8.082  19.344  0.00  0.00    +0.000 C 
ATOM     22  C   UNL     1       1.031   8.433  20.233  0.00  0.00    +0.000 C 
ATOM     23  C   UNL     1       0.834   9.955  20.279  0.00  0.00    +0.000 C 
ATOM     24  C   UNL     1       0.738  10.600  18.894  0.00  0.00    +0.000 C 
ATOM     25  C   UNL     1       1.806  10.106  17.921  0.00  0.00    +0.000 C 
ATOM     26  C   UNL     1       1.926   8.585  17.924  0.00  0.00    +0.000 C 
ENDBRANCH  20  21
ENDBRANCH  19  20
ENDBRANCH   6  19
TORSDOF 6
ENDMDL
MODEL 7
REMARK VINA RESULT:      -6.8      1.774      5.325
REMARK  Name = 
REMARK  7 active torsions:
REMARK  status: ('A' for Active; 'I' for Inactive)
REMARK    1  A    between atoms: C_1  and  C_2
REMARK    2  A    between atoms: C_5  and  C_6
REMARK    3  A    between atoms: N_7  and  O_8
REMARK    4  A    between atoms: N_9  and  C_10
REMARK    5  A    between atoms: C_15  and  O_16
REMARK    6  A    between atoms: O_16  and  C_17
REMARK    7  A    between atoms: C_17  and  C_18
REMARK                            x       y       z     vdW  Elec       q    Type
REMARK                         _______ _______ _______ _____ _____    ______ ____
ROOT
ATOM      1  C   UNL     1       0.554   2.396  18.711  0.00  0.00    +0.000 C 
ATOM      2  C   UNL     1       1.873   3.003  18.347  0.00  0.00    +0.000 A 
ATOM      3  C   UNL     1       2.900   2.240  17.831  0.00  0.00    +0.000 A 
ATOM      4  C   UNL     1       4.079   2.881  17.463  0.00  0.00    +0.000 A 
ATOM      5  C   UNL     1       4.223   4.273  17.607  0.00  0.00    +0.000 A 
ATOM      6  C   UNL     1       3.137   4.955  18.154  0.00  0.00    +0.000 A 
ATOM      7  N   UNL     1       1.990   4.336  18.540  0.00  0.00    +0.000 NA
ENDROOT
BRANCH   5   8
ATOM      8  C   UNL     1       5.505   4.897  17.074  0.00  0.00    +0.000 C 
ATOM      9  N   UNL     1       6.276   4.040  16.460  0.00  0.00    +0.000 NA
ATOM     10  N   UNL     1       5.675   6.263  17.216  0.00  0.00    +0.000 N 
ATOM     11  H   UNL     1       4.984   6.706  17.815  0.00  0.00    +0.000 HD
BRANCH  10  12
ATOM     12  C   UNL     1       6.957   6.952  17.259  0.00  0.00    +0.000 C 
ATOM     13  C   UNL     1       6.770   8.469  17.360  0.00  0.00    +0.000 C 
ATOM     14  C   UNL     1       8.121   8.952  17.873  0.00  0.00    +0.000 C 
ATOM     15  C   UNL     1       8.648   7.828  18.762  0.00  0.00    +0.000 C 
ATOM     16  C   UNL     1       7.727   6.630  18.534  0.00  0.00    +0.000 C 
ENDBRANCH  10  12
BRANCH   9  17
ATOM     17  O   UNL     1       7.383   4.610  15.829  0.00  0.00    +0.000 OA
ATOM     18  H   UNL     1       7.354   5.528  16.150  0.00  0.00    +0.000 HD
ENDBRANCH   9  17
ENDBRANCH   5   8
BRANCH   6  19
ATOM     19  O   UNL     1       3.196   6.317  18.377  0.00  0.00    +0.000 OA
BRANCH  19  20
ATOM     20  C   UNL     1       2.608   6.726  19.627  0.00  0.00    +0.000 C 
BRANCH  20  21
ATOM     21  C   UNL     1       1.545   7.827  19.466  0.00  0.00    +0.000 C 
ATOM     22  C   UNL     1       1.847   8.901  18.408  0.00  0.00    +0.000 C 
ATOM     23  C   UNL     1       0.648   9.849  18.259  0.00  0.00    +0.000 C 
ATOM     24  C   UNL     1       0.184  10.458  19.585  0.00  0.00    +0.000 C 
ATOM     25  C   UNL     1       0.077   9.437  20.715  0.00  0.00    +0.000 C 
ATOM     26  C   UNL     1       1.313   8.548  20.805  0.00  0.00    +0.000 C 
ENDBRANCH  20  21
ENDBRANCH  19  20
ENDBRANCH   6  19
TORSDOF 6
ENDMDL
MODEL 8
REMARK VINA RESULT:      -6.7      2.312      5.674
REMARK  Name = 
REMARK  7 active torsions:
REMARK  status: ('A' for Active; 'I' for Inactive)
REMARK    1  A    between atoms: C_1  and  C_2
REMARK    2  A    between atoms: C_5  and  C_6
REMARK    3  A    between atoms: N_7  and  O_8
REMARK    4  A    between atoms: N_9  and  C_10
REMARK    5  A    between atoms: C_15  and  O_16
REMARK    6  A    between atoms: O_16  and  C_17
REMARK    7  A    between atoms: C_17  and  C_18
REMARK                            x       y       z     vdW  Elec       q    Type
REMARK                         _______ _______ _______ _____ _____    ______ ____
ROOT
ATOM      1  C   UNL     1       0.272   9.979  19.583  0.00  0.00    +0.000 C 
ATOM      2  C   UNL     1       1.276   8.939  19.194  0.00  0.00    +0.000 A 
ATOM      3  C   UNL     1       2.046   9.070  18.056  0.00  0.00    +0.000 A 
ATOM      4  C   UNL     1       2.997   8.091  17.787  0.00  0.00    +0.000 A 
ATOM      5  C   UNL     1       3.177   6.997  18.652  0.00  0.00    +0.000 A 
ATOM      6  C   UNL     1       2.340   6.942  19.765  0.00  0.00    +0.000 A 
ATOM      7  N   UNL     1       1.390   7.879  20.025  0.00  0.00    +0.000 NA
ENDROOT
BRANCH   5   8
ATOM      8  C   UNL     1       4.317   6.039  18.331  0.00  0.00    +0.000 C 
ATOM      9  N   UNL     1       5.171   5.912  19.311  0.00  0.00    +0.000 NA
ATOM     10  N   UNL     1       4.287   5.368  17.121  0.00  0.00    +0.000 N 
ATOM     11  H   UNL     1       3.573   5.703  16.480  0.00  0.00    +0.000 HD
BRANCH  10  12
ATOM     12  C   UNL     1       5.450   4.845  16.418  0.00  0.00    +0.000 C 
ATOM     13  C   UNL     1       5.059   3.719  15.457  0.00  0.00    +0.000 C 
ATOM     14  C   UNL     1       6.246   3.650  14.504  0.00  0.00    +0.000 C 
ATOM     15  C   UNL     1       6.772   5.079  14.398  0.00  0.00    +0.000 C 
ATOM     16  C   UNL     1       6.055   5.884  15.482  0.00  0.00    +0.000 C 
ENDBRANCH  10  12
BRANCH   9  17
ATOM     17  O   UNL     1       6.140   4.929  19.107  0.00  0.00    +0.000 OA
ATOM     18  H   UNL     1       6.811   5.405  18.588  0.00  0.00    +0.000 HD
ENDBRANCH   9  17
ENDBRANCH   5   8
BRANCH   6  19
ATOM     19  O   UNL     1       2.408   5.884  20.651  0.00  0.00    +0.000 OA
BRANCH  19  20
ATOM     20  C   UNL     1       1.372   4.901  20.460  0.00  0.00    +0.000 C 
BRANCH  20  21
ATOM     21  C   UNL     1       1.894   3.575  19.879  0.00  0.00    +0.000 C 
ATOM     22  C   UNL     1       3.353   3.225  20.214  0.00  0.00    +0.000 C 
ATOM     23  C   UNL     1       3.694   1.821  19.691  0.00  0.00    +0.000 C 
ATOM     24  C   UNL     1       3.379   1.632  18.204  0.00  0.00    +0.000 C 
ATOM     25  C   UNL     1       2.006   2.167  17.803  0.00  0.00    +0.000 C 
ATOM     26  C   UNL     1       1.755   3.569  18.348  0.00  0.00    +0.000 C 
ENDBRANCH  20  21
ENDBRANCH  19  20
ENDBRANCH   6  19
TORSDOF 6
ENDMDL
MODEL 9
REMARK VINA RESULT:      -6.7      2.308      4.935
REMARK  Name = 
REMARK  7 active torsions:
REMARK  status: ('A' for Active; 'I' for Inactive)
REMARK    1  A    between atoms: C_1  and  C_2
REMARK    2  A    between atoms: C_5  and  C_6
REMARK    3  A    between atoms: N_7  and  O_8
REMARK    4  A    between atoms: N_9  and  C_10
REMARK    5  A    between atoms: C_15  and  O_16
REMARK    6  A    between atoms: O_16  and  C_17
REMARK    7  A    between atoms: C_17  and  C_18
REMARK                            x       y       z     vdW  Elec       q    Type
REMARK                         _______ _______ _______ _____ _____    ______ ____
ROOT
ATOM      1  C   UNL     1       1.201   2.665  22.013  0.00  0.00    +0.000 C 
ATOM      2  C   UNL     1       2.400   3.041  21.200  0.00  0.00    +0.000 A 
ATOM      3  C   UNL     1       3.363   2.112  20.862  0.00  0.00    +0.000 A 
ATOM      4  C   UNL     1       4.421   2.522  20.056  0.00  0.00    +0.000 A 
ATOM      5  C   UNL     1       4.509   3.846  19.592  0.00  0.00    +0.000 A 
ATOM      6  C   UNL     1       3.499   4.715  20.001  0.00  0.00    +0.000 A 
ATOM      7  N   UNL     1       2.474   4.333  20.808  0.00  0.00    +0.000 NA
ENDROOT
BRANCH   5   8
ATOM      8  C   UNL     1       5.642   4.169  18.627  0.00  0.00    +0.000 C 
ATOM      9  N   UNL     1       6.674   4.716  19.211  0.00  0.00    +0.000 NA
ATOM     10  N   UNL     1       5.500   3.792  17.303  0.00  0.00    +0.000 N 
ATOM     11  H   UNL     1       4.568   3.467  17.063  0.00  0.00    +0.000 HD
BRANCH  10  12
ATOM     12  C   UNL     1       6.168   4.420  16.171  0.00  0.00    +0.000 C 
ATOM     13  C   UNL     1       6.229   3.474  14.968  0.00  0.00    +0.000 C 
ATOM     14  C   UNL     1       6.488   4.418  13.800  0.00  0.00    +0.000 C 
ATOM     15  C   UNL     1       5.784   5.723  14.162  0.00  0.00    +0.000 C 
ATOM     16  C   UNL     1       5.366   5.595  15.627  0.00  0.00    +0.000 C 
ENDBRANCH  10  12
BRANCH   9  17
ATOM     17  O   UNL     1       7.784   4.883  18.382  0.00  0.00    +0.000 OA
ATOM     18  H   UNL     1       7.502   5.613  17.805  0.00  0.00    +0.000 HD
ENDBRANCH   9  17
ENDBRANCH   5   8
BRANCH   6  19
ATOM     19  O   UNL     1       3.519   6.047  19.636  0.00  0.00    +0.000 OA
BRANCH  19  20
ATOM     20  C   UNL     1       2.667   6.354  18.515  0.00  0.00    +0.000 C 
BRANCH  20  21
ATOM     21  C   UNL     1       1.792   7.600  18.742  0.00  0.00    +0.000 C 
ATOM     22  C   UNL     1       2.166   8.841  17.916  0.00  0.00    +0.000 C 
ATOM     23  C   UNL     1       1.133   9.956  18.139  0.00  0.00    +0.000 C 
ATOM     24  C   UNL     1       0.905  10.290  19.616  0.00  0.00    +0.000 C 
ATOM     25  C   UNL     1       0.739   9.054  20.497  0.00  0.00    +0.000 C 
ATOM     26  C   UNL     1       1.813   8.006  20.225  0.00  0.00    +0.000 C 
ENDBRANCH  20  21
ENDBRANCH  19  20
ENDBRANCH   6  19
TORSDOF 6
ENDMDL
