MODEL 1
REMARK VINA RESULT:      -9.4      0.000      0.000
REMARK  Name = 
REMARK  9 active torsions:
REMARK  status: ('A' for Active; 'I' for Inactive)
REMARK    1  A    between atoms: C_1  and  O_2
REMARK    2  A    between atoms: O_2  and  C_3
REMARK    3  A    between atoms: C_8  and  O_9
REMARK    4  A    between atoms: O_9  and  C_10
REMARK    5  A    between atoms: C_10  and  C_11
REMARK    6  A    between atoms: N_13  and  C_14
REMARK    7  A    between atoms: C_16  and  C_17
REMARK    8  A    between atoms: N_26  and  C_27
REMARK    9  A    between atoms: C_31  and  C_32
REMARK                            x       y       z     vdW  Elec       q    Type
REMARK                         _______ _______ _______ _____ _____    ______ ____
ROOT
ATOM      1  C   UNL     1       5.830   5.823  16.312  0.00  0.00    +0.000 A 
ATOM      2  C   UNL     1       6.353   5.588  15.072  0.00  0.00    +0.000 A 
ATOM      3  C   UNL     1       5.763   4.372  14.655  0.00  0.00    +0.000 A 
ATOM      4  C   UNL     1       5.941   3.727  13.327  0.00  0.00    +0.000 C 
ATOM      5  N   UNL     1       4.977   3.832  15.603  0.00  0.00    +0.000 NA
ATOM      6  N   UNL     1       4.982   4.765  16.598  0.00  0.00    +0.000 N 
ATOM      7  C   UNL     1       4.076   4.706  17.667  0.00  0.00    +0.000 A 
ATOM      8  N   UNL     1       3.714   5.800  18.267  0.00  0.00    +0.000 NA
ATOM      9  C   UNL     1       2.849   5.574  19.287  0.00  0.00    +0.000 A 
ATOM     10  C   UNL     1       2.505   4.361  19.825  0.00  0.00    +0.000 A 
ATOM     11  C   UNL     1       1.794   4.685  20.989  0.00  0.00    +0.000 A 
ATOM     12  N   UNL     1       1.629   6.012  21.133  0.00  0.00    +0.000 NA
ATOM     13  N   UNL     1       2.112   6.533  19.973  0.00  0.00    +0.000 N 
ATOM     14  C   UNL     1       2.944   3.159  19.160  0.00  0.00    +0.000 A 
ATOM     15  O   UNL     1       2.739   2.030  19.578  0.00  0.00    +0.000 OA
ATOM     16  N   UNL     1       3.660   3.427  17.995  0.00  0.00    +0.000 N 
ATOM     17  H   UNL     1       3.999   2.632  17.462  0.00  0.00    +0.000 HD
ENDROOT
BRANCH  13  18
ATOM     18  C   UNL     1       1.824   7.849  19.530  0.00  0.00    +0.000 A 
ATOM     19  C   UNL     1       2.174   8.237  18.226  0.00  0.00    +0.000 A 
ATOM     20  C   UNL     1       1.883   9.520  17.771  0.00  0.00    +0.000 A 
ATOM     21  C   UNL     1       1.276  10.434  18.626  0.00  0.00    +0.000 A 
ATOM     22  C   UNL     1       0.926  10.063  19.933  0.00  0.00    +0.000 A 
ATOM     23  C   UNL     1       0.326  11.069  20.870  0.00  0.00    +0.000 C 
ATOM     24  C   UNL     1       1.168   8.751  20.372  0.00  0.00    +0.000 A 
ENDBRANCH  13  18
BRANCH   1  27
ATOM     25  C   UNL     1       7.510   7.418  17.083  0.00  0.00    +0.000 C 
ATOM     26  O   UNL     1       8.284   6.995  16.236  0.00  0.00    +0.000 OA
ATOM     27  N   UNL     1       6.162   6.911  17.106  0.00  0.00    +0.000 N 
ATOM     28  H   UNL     1       5.483   7.273  17.765  0.00  0.00    +0.000 HD
BRANCH  25  29
ATOM     29  C   UNL     1       7.846   8.423  18.169  0.00  0.00    +0.000 C 
BRANCH  29  30
ATOM     30  O   UNL     1       7.761   9.763  17.708  0.00  0.00    +0.000 OA
BRANCH  30  36
ATOM     31  C   UNL     1       8.685  12.068  18.032  0.00  0.00    +0.000 A 
ATOM     32  C   UNL     1       9.587  12.862  18.758  0.00  0.00    +0.000 A 
ATOM     33  C   UNL     1      10.459  12.289  19.681  0.00  0.00    +0.000 A 
ATOM     34  C   UNL     1      10.396  10.922  19.926  0.00  0.00    +0.000 A 
ATOM     35  C   UNL     1       9.455  10.135  19.256  0.00  0.00    +0.000 A 
ATOM     36  C   UNL     1       8.590  10.691  18.301  0.00  0.00    +0.000 A 
BRANCH  31  38
ATOM     37  C   UNL     1       7.196  13.828  17.505  0.00  0.00    +0.000 C 
ATOM     38  O   UNL     1       7.868  12.637  17.093  0.00  0.00    +0.000 OA
ENDBRANCH  31  38
ENDBRANCH  30  36
ENDBRANCH  29  30
ENDBRANCH  25  29
ENDBRANCH   1  27
TORSDOF 6
ENDMDL
MODEL 2
REMARK VINA RESULT:      -9.1      1.326      1.677
REMARK  Name = 
REMARK  9 active torsions:
REMARK  status: ('A' for Active; 'I' for Inactive)
REMARK    1  A    between atoms: C_1  and  O_2
REMARK    2  A    between atoms: O_2  and  C_3
REMARK    3  A    between atoms: C_8  and  O_9
REMARK    4  A    between atoms: O_9  and  C_10
REMARK    5  A    between atoms: C_10  and  C_11
REMARK    6  A    between atoms: N_13  and  C_14
REMARK    7  A    between atoms: C_16  and  C_17
REMARK    8  A    between atoms: N_26  and  C_27
REMARK    9  A    between atoms: C_31  and  C_32
REMARK                            x       y       z     vdW  Elec       q    Type
REMARK                         _______ _______ _______ _____ _____    ______ ____
ROOT
ATOM      1  C   UNL     1       6.504   5.680  16.623  0.00  0.00    +0.000 A 
ATOM      2  C   UNL     1       7.108   5.690  15.397  0.00  0.00    +0.000 A 
ATOM      3  C   UNL     1       6.651   4.512  14.760  0.00  0.00    +0.000 A 
ATOM      4  C   UNL     1       6.953   4.104  13.364  0.00  0.00    +0.000 C 
ATOM      5  N   UNL     1       5.871   3.765  15.562  0.00  0.00    +0.000 NA
ATOM      6  N   UNL     1       5.742   4.526  16.688  0.00  0.00    +0.000 N 
ATOM      7  C   UNL     1       4.793   4.223  17.674  0.00  0.00    +0.000 A 
ATOM      8  N   UNL     1       4.303   5.174  18.412  0.00  0.00    +0.000 NA
ATOM      9  C   UNL     1       3.412   4.719  19.327  0.00  0.00    +0.000 A 
ATOM     10  C   UNL     1       3.153   3.412  19.649  0.00  0.00    +0.000 A 
ATOM     11  C   UNL     1       2.358   3.487  20.801  0.00  0.00    +0.000 A 
ATOM     12  N   UNL     1       2.067   4.756  21.137  0.00  0.00    +0.000 NA
ATOM     13  N   UNL     1       2.559   5.494  20.105  0.00  0.00    +0.000 N 
ATOM     14  C   UNL     1       3.732   2.371  18.836  0.00  0.00    +0.000 A 
ATOM     15  O   UNL     1       3.609   1.177  19.060  0.00  0.00    +0.000 OA
ATOM     16  N   UNL     1       4.478   2.879  17.774  0.00  0.00    +0.000 N 
ATOM     17  H   UNL     1       4.914   2.209  17.148  0.00  0.00    +0.000 HD
ENDROOT
BRANCH  13  18
ATOM     18  C   UNL     1       2.175   6.835  19.853  0.00  0.00    +0.000 A 
ATOM     19  C   UNL     1       2.412   7.401  18.589  0.00  0.00    +0.000 A 
ATOM     20  C   UNL     1       2.026   8.712  18.321  0.00  0.00    +0.000 A 
ATOM     21  C   UNL     1       1.438   9.476  19.324  0.00  0.00    +0.000 A 
ATOM     22  C   UNL     1       1.200   8.926  20.592  0.00  0.00    +0.000 A 
ATOM     23  C   UNL     1       0.620   9.773  21.687  0.00  0.00    +0.000 C 
ATOM     24  C   UNL     1       1.538   7.586  20.844  0.00  0.00    +0.000 A 
ENDBRANCH  13  18
BRANCH   1  27
ATOM     25  C   UNL     1       7.792   7.577  17.463  0.00  0.00    +0.000 C 
ATOM     26  O   UNL     1       8.419   7.602  16.413  0.00  0.00    +0.000 OA
ATOM     27  N   UNL     1       6.696   6.652  17.594  0.00  0.00    +0.000 N 
ATOM     28  H   UNL     1       6.128   6.637  18.433  0.00  0.00    +0.000 HD
BRANCH  25  29
ATOM     29  C   UNL     1       8.085   8.419  18.690  0.00  0.00    +0.000 C 
BRANCH  29  30
ATOM     30  O   UNL     1       8.111   9.809  18.397  0.00  0.00    +0.000 OA
BRANCH  30  36
ATOM     31  C   UNL     1       9.547  10.951  20.102  0.00  0.00    +0.000 A 
ATOM     32  C   UNL     1      10.739  11.658  20.324  0.00  0.00    +0.000 A 
ATOM     33  C   UNL     1      11.562  12.021  19.261  0.00  0.00    +0.000 A 
ATOM     34  C   UNL     1      11.227  11.631  17.970  0.00  0.00    +0.000 A 
ATOM     35  C   UNL     1      10.075  10.869  17.747  0.00  0.00    +0.000 A 
ATOM     36  C   UNL     1       9.219  10.520  18.803  0.00  0.00    +0.000 A 
BRANCH  31  38
ATOM     37  C   UNL     1       8.574  11.667  22.134  0.00  0.00    +0.000 C 
ATOM     38  O   UNL     1       8.723  10.643  21.150  0.00  0.00    +0.000 OA
ENDBRANCH  31  38
ENDBRANCH  30  36
ENDBRANCH  29  30
ENDBRANCH  25  29
ENDBRANCH   1  27
TORSDOF 6
ENDMDL
MODEL 3
REMARK VINA RESULT:      -8.9      6.799     10.255
REMARK  Name = 
REMARK  9 active torsions:
REMARK  status: ('A' for Active; 'I' for Inactive)
REMARK    1  A    between atoms: C_1  and  O_2
REMARK    2  A    between atoms: O_2  and  C_3
REMARK    3  A    between atoms: C_8  and  O_9
REMARK    4  A    between atoms: O_9  and  C_10
REMARK    5  A    between atoms: C_10  and  C_11
REMARK    6  A    between atoms: N_13  and  C_14
REMARK    7  A    between atoms: C_16  and  C_17
REMARK    8  A    between atoms: N_26  and  C_27
REMARK    9  A    between atoms: C_31  and  C_32
REMARK                            x       y       z     vdW  Elec       q    Type
REMARK                         _______ _______ _______ _____ _____    ______ ____
ROOT
ATOM      1  C   UNL     1      -3.960  13.528  22.068  0.00  0.00    +0.000 A 
ATOM      2  C   UNL     1      -4.574  13.692  23.278  0.00  0.00    +0.000 A 
ATOM      3  C   UNL     1      -5.878  13.174  23.096  0.00  0.00    +0.000 A 
ATOM      4  C   UNL     1      -6.918  13.042  24.149  0.00  0.00    +0.000 C 
ATOM      5  N   UNL     1      -6.100  12.780  21.830  0.00  0.00    +0.000 NA
ATOM      6  N   UNL     1      -4.891  12.950  21.220  0.00  0.00    +0.000 N 
ATOM      7  C   UNL     1      -4.624  12.413  19.953  0.00  0.00    +0.000 A 
ATOM      8  N   UNL     1      -3.406  12.098  19.629  0.00  0.00    +0.000 NA
ATOM      9  C   UNL     1      -3.311  11.607  18.369  0.00  0.00    +0.000 A 
ATOM     10  C   UNL     1      -4.289  11.602  17.408  0.00  0.00    +0.000 A 
ATOM     11  C   UNL     1      -3.622  11.225  16.234  0.00  0.00    +0.000 A 
ATOM     12  N   UNL     1      -2.328  10.933  16.454  0.00  0.00    +0.000 NA
ATOM     13  N   UNL     1      -2.203  10.982  17.808  0.00  0.00    +0.000 N 
ATOM     14  C   UNL     1      -5.628  11.985  17.782  0.00  0.00    +0.000 A 
ATOM     15  O   UNL     1      -6.562  12.064  16.999  0.00  0.00    +0.000 OA
ATOM     16  N   UNL     1      -5.736  12.286  19.139  0.00  0.00    +0.000 N 
ATOM     17  H   UNL     1      -6.651  12.559  19.484  0.00  0.00    +0.000 HD
ENDROOT
BRANCH  13  18
ATOM     18  C   UNL     1      -1.117  10.403  18.511  0.00  0.00    +0.000 A 
ATOM     19  C   UNL     1       0.038  10.014  17.812  0.00  0.00    +0.000 A 
ATOM     20  C   UNL     1       1.119   9.460  18.491  0.00  0.00    +0.000 A 
ATOM     21  C   UNL     1       1.039   9.255  19.864  0.00  0.00    +0.000 A 
ATOM     22  C   UNL     1      -0.109   9.633  20.576  0.00  0.00    +0.000 A 
ATOM     23  C   UNL     1      -0.214   9.355  22.046  0.00  0.00    +0.000 C 
ATOM     24  C   UNL     1      -1.177  10.244  19.898  0.00  0.00    +0.000 A 
ENDBRANCH  13  18
BRANCH   1  27
ATOM     25  C   UNL     1      -1.559  13.178  22.338  0.00  0.00    +0.000 C 
ATOM     26  O   UNL     1      -1.787  12.107  22.882  0.00  0.00    +0.000 OA
ATOM     27  N   UNL     1      -2.661  13.928  21.792  0.00  0.00    +0.000 N 
ATOM     28  H   UNL     1      -2.502  14.796  21.295  0.00  0.00    +0.000 HD
BRANCH  25  29
ATOM     29  C   UNL     1      -0.198  13.836  22.212  0.00  0.00    +0.000 C 
BRANCH  29  30
ATOM     30  O   UNL     1       0.802  12.926  21.778  0.00  0.00    +0.000 OA
BRANCH  30  36
ATOM     31  C   UNL     1       2.880  14.113  21.039  0.00  0.00    +0.000 A 
ATOM     32  C   UNL     1       3.682  14.469  19.943  0.00  0.00    +0.000 A 
ATOM     33  C   UNL     1       3.279  14.181  18.641  0.00  0.00    +0.000 A 
ATOM     34  C   UNL     1       2.096  13.484  18.428  0.00  0.00    +0.000 A 
ATOM     35  C   UNL     1       1.325  13.066  19.517  0.00  0.00    +0.000 A 
ATOM     36  C   UNL     1       1.700  13.375  20.834  0.00  0.00    +0.000 A 
BRANCH  31  38
ATOM     37  C   UNL     1       3.957  15.687  22.436  0.00  0.00    +0.000 C 
ATOM     38  O   UNL     1       3.264  14.445  22.310  0.00  0.00    +0.000 OA
ENDBRANCH  31  38
ENDBRANCH  30  36
ENDBRANCH  29  30
ENDBRANCH  25  29
ENDBRANCH   1  27
TORSDOF 6
ENDMDL
MODEL 4
REMARK VINA RESULT:      -8.9      1.056      1.164
REMARK  Name = 
REMARK  9 active torsions:
REMARK  status: ('A' for Active; 'I' for Inactive)
REMARK    1  A    between atoms: C_1  and  O_2
REMARK    2  A    between atoms: O_2  and  C_3
REMARK    3  A    between atoms: C_8  and  O_9
REMARK    4  A    between atoms: O_9  and  C_10
REMARK    5  A    between atoms: C_10  and  C_11
REMARK    6  A    between atoms: N_13  and  C_14
REMARK    7  A    between atoms: C_16  and  C_17
REMARK    8  A    between atoms: N_26  and  C_27
REMARK    9  A    between atoms: C_31  and  C_32
REMARK                            x       y       z     vdW  Elec       q    Type
REMARK                         _______ _______ _______ _____ _____    ______ ____
ROOT
ATOM      1  C   UNL     1       6.195   5.915  16.397  0.00  0.00    +0.000 A 
ATOM      2  C   UNL     1       6.749   5.748  15.159  0.00  0.00    +0.000 A 
ATOM      3  C   UNL     1       6.290   4.482  14.725  0.00  0.00    +0.000 A 
ATOM      4  C   UNL     1       6.544   3.873  13.394  0.00  0.00    +0.000 C 
ATOM      5  N   UNL     1       5.557   3.855  15.661  0.00  0.00    +0.000 NA
ATOM      6  N   UNL     1       5.458   4.774  16.665  0.00  0.00    +0.000 N 
ATOM      7  C   UNL     1       4.555   4.611  17.725  0.00  0.00    +0.000 A 
ATOM      8  N   UNL     1       4.077   5.655  18.333  0.00  0.00    +0.000 NA
ATOM      9  C   UNL     1       3.231   5.331  19.342  0.00  0.00    +0.000 A 
ATOM     10  C   UNL     1       3.010   4.084  19.866  0.00  0.00    +0.000 A 
ATOM     11  C   UNL     1       2.260   4.322  21.027  0.00  0.00    +0.000 A 
ATOM     12  N   UNL     1       1.958   5.623  21.181  0.00  0.00    +0.000 NA
ATOM     13  N   UNL     1       2.395   6.203  20.030  0.00  0.00    +0.000 N 
ATOM     14  C   UNL     1       3.576   2.940  19.194  0.00  0.00    +0.000 A 
ATOM     15  O   UNL     1       3.485   1.792  19.600  0.00  0.00    +0.000 OA
ATOM     16  N   UNL     1       4.270   3.293  18.038  0.00  0.00    +0.000 N 
ATOM     17  H   UNL     1       4.694   2.542  17.501  0.00  0.00    +0.000 HD
ENDROOT
BRANCH  13  18
ATOM     18  C   UNL     1       1.976   7.486  19.597  0.00  0.00    +0.000 A 
ATOM     19  C   UNL     1       2.169   7.866  18.258  0.00  0.00    +0.000 A 
ATOM     20  C   UNL     1       1.749   9.116  17.814  0.00  0.00    +0.000 A 
ATOM     21  C   UNL     1       1.168  10.008  18.710  0.00  0.00    +0.000 A 
ATOM     22  C   UNL     1       0.974   9.645  20.051  0.00  0.00    +0.000 A 
ATOM     23  C   UNL     1       0.402  10.631  21.026  0.00  0.00    +0.000 C 
ATOM     24  C   UNL     1       1.347   8.362  20.485  0.00  0.00    +0.000 A 
ENDBRANCH  13  18
BRANCH   1  27
ATOM     25  C   UNL     1       7.688   7.682  17.180  0.00  0.00    +0.000 C 
ATOM     26  O   UNL     1       8.499   7.361  16.323  0.00  0.00    +0.000 OA
ATOM     27  N   UNL     1       6.406   7.024  17.203  0.00  0.00    +0.000 N 
ATOM     28  H   UNL     1       5.695   7.298  17.871  0.00  0.00    +0.000 HD
BRANCH  25  29
ATOM     29  C   UNL     1       7.916   8.704  18.277  0.00  0.00    +0.000 C 
BRANCH  29  30
ATOM     30  O   UNL     1       8.559   9.876  17.797  0.00  0.00    +0.000 OA
BRANCH  30  36
ATOM     31  C   UNL     1      10.298  11.547  18.470  0.00  0.00    +0.000 A 
ATOM     32  C   UNL     1      10.878  12.247  19.540  0.00  0.00    +0.000 A 
ATOM     33  C   UNL     1      10.497  11.985  20.854  0.00  0.00    +0.000 A 
ATOM     34  C   UNL     1       9.492  11.060  21.105  0.00  0.00    +0.000 A 
ATOM     35  C   UNL     1       8.862  10.407  20.040  0.00  0.00    +0.000 A 
ATOM     36  C   UNL     1       9.254  10.636  18.713  0.00  0.00    +0.000 A 
BRANCH  31  38
ATOM     37  C   UNL     1      11.705  12.798  17.040  0.00  0.00    +0.000 C 
ATOM     38  O   UNL     1      10.716  11.779  17.188  0.00  0.00    +0.000 OA
ENDBRANCH  31  38
ENDBRANCH  30  36
ENDBRANCH  29  30
ENDBRANCH  25  29
ENDBRANCH   1  27
TORSDOF 6
ENDMDL
MODEL 5
REMARK VINA RESULT:      -8.9      8.817     11.081
REMARK  Name = 
REMARK  9 active torsions:
REMARK  status: ('A' for Active; 'I' for Inactive)
REMARK    1  A    between atoms: C_1  and  O_2
REMARK    2  A    between atoms: O_2  and  C_3
REMARK    3  A    between atoms: C_8  and  O_9
REMARK    4  A    between atoms: O_9  and  C_10
REMARK    5  A    between atoms: C_10  and  C_11
REMARK    6  A    between atoms: N_13  and  C_14
REMARK    7  A    between atoms: C_16  and  C_17
REMARK    8  A    between atoms: N_26  and  C_27
REMARK    9  A    between atoms: C_31  and  C_32
REMARK                            x       y       z     vdW  Elec       q    Type
REMARK                         _______ _______ _______ _____ _____    ______ ____
ROOT
ATOM      1  C   UNL     1      -2.821  11.588  17.419  0.00  0.00    +0.000 A 
ATOM      2  C   UNL     1      -2.407  11.214  16.171  0.00  0.00    +0.000 A 
ATOM      3  C   UNL     1      -3.513  10.529  15.614  0.00  0.00    +0.000 A 
ATOM      4  C   UNL     1      -3.600   9.996  14.230  0.00  0.00    +0.000 C 
ATOM      5  N   UNL     1      -4.532  10.409  16.483  0.00  0.00    +0.000 NA
ATOM      6  N   UNL     1      -4.114  11.117  17.573  0.00  0.00    +0.000 N 
ATOM      7  C   UNL     1      -4.993  11.457  18.610  0.00  0.00    +0.000 A 
ATOM      8  N   UNL     1      -4.775  12.526  19.317  0.00  0.00    +0.000 NA
ATOM      9  C   UNL     1      -5.703  12.708  20.288  0.00  0.00    +0.000 A 
ATOM     10  C   UNL     1      -6.667  11.819  20.687  0.00  0.00    +0.000 A 
ATOM     11  C   UNL     1      -7.188  12.374  21.865  0.00  0.00    +0.000 A 
ATOM     12  N   UNL     1      -6.646  13.572  22.146  0.00  0.00    +0.000 NA
ATOM     13  N   UNL     1      -5.878  13.852  21.058  0.00  0.00    +0.000 N 
ATOM     14  C   UNL     1      -6.872  10.624  19.906  0.00  0.00    +0.000 A 
ATOM     15  O   UNL     1      -7.666   9.743  20.197  0.00  0.00    +0.000 OA
ATOM     16  N   UNL     1      -6.038  10.568  18.791  0.00  0.00    +0.000 N 
ATOM     17  H   UNL     1      -6.125   9.759  18.184  0.00  0.00    +0.000 HD
ENDROOT
BRANCH  13  18
ATOM     18  C   UNL     1      -5.405  15.153  20.753  0.00  0.00    +0.000 A 
ATOM     19  C   UNL     1      -6.018  15.895  19.729  0.00  0.00    +0.000 A 
ATOM     20  C   UNL     1      -5.575  17.180  19.429  0.00  0.00    +0.000 A 
ATOM     21  C   UNL     1      -4.494  17.716  20.122  0.00  0.00    +0.000 A 
ATOM     22  C   UNL     1      -3.868  16.986  21.142  0.00  0.00    +0.000 A 
ATOM     23  C   UNL     1      -2.666  17.545  21.845  0.00  0.00    +0.000 C 
ATOM     24  C   UNL     1      -4.352  15.712  21.483  0.00  0.00    +0.000 A 
ENDBRANCH  13  18
BRANCH   1  27
ATOM     25  C   UNL     1      -1.278  11.530  19.310  0.00  0.00    +0.000 C 
ATOM     26  O   UNL     1      -1.213  10.313  19.206  0.00  0.00    +0.000 OA
ATOM     27  N   UNL     1      -2.029  12.271  18.330  0.00  0.00    +0.000 N 
ATOM     28  H   UNL     1      -2.066  13.283  18.362  0.00  0.00    +0.000 HD
BRANCH  25  29
ATOM     29  C   UNL     1      -0.663  12.357  20.423  0.00  0.00    +0.000 C 
BRANCH  29  30
ATOM     30  O   UNL     1      -0.946  11.826  21.709  0.00  0.00    +0.000 OA
BRANCH  30  36
ATOM     31  C   UNL     1      -1.066  13.790  23.259  0.00  0.00    +0.000 A 
ATOM     32  C   UNL     1      -1.878  14.521  24.140  0.00  0.00    +0.000 A 
ATOM     33  C   UNL     1      -3.164  14.086  24.453  0.00  0.00    +0.000 A 
ATOM     34  C   UNL     1      -3.668  12.943  23.844  0.00  0.00    +0.000 A 
ATOM     35  C   UNL     1      -2.890  12.246  22.914  0.00  0.00    +0.000 A 
ATOM     36  C   UNL     1      -1.582  12.653  22.610  0.00  0.00    +0.000 A 
BRANCH  31  38
ATOM     37  C   UNL     1       0.326  15.425  22.269  0.00  0.00    +0.000 C 
ATOM     38  O   UNL     1       0.213  14.202  22.998  0.00  0.00    +0.000 OA
ENDBRANCH  31  38
ENDBRANCH  30  36
ENDBRANCH  29  30
ENDBRANCH  25  29
ENDBRANCH   1  27
TORSDOF 6
ENDMDL
MODEL 6
REMARK VINA RESULT:      -8.8      0.896      1.571
REMARK  Name = 
REMARK  9 active torsions:
REMARK  status: ('A' for Active; 'I' for Inactive)
REMARK    1  A    between atoms: C_1  and  O_2
REMARK    2  A    between atoms: O_2  and  C_3
REMARK    3  A    between atoms: C_8  and  O_9
REMARK    4  A    between atoms: O_9  and  C_10
REMARK    5  A    between atoms: C_10  and  C_11
REMARK    6  A    between atoms: N_13  and  C_14
REMARK    7  A    between atoms: C_16  and  C_17
REMARK    8  A    between atoms: N_26  and  C_27
REMARK    9  A    between atoms: C_31  and  C_32
REMARK                            x       y       z     vdW  Elec       q    Type
REMARK                         _______ _______ _______ _____ _____    ______ ____
ROOT
ATOM      1  C   UNL     1       5.813   6.083  16.207  0.00  0.00    +0.000 A 
ATOM      2  C   UNL     1       6.298   5.834  14.953  0.00  0.00    +0.000 A 
ATOM      3  C   UNL     1       5.821   4.541  14.632  0.00  0.00    +0.000 A 
ATOM      4  C   UNL     1       6.002   3.844  13.332  0.00  0.00    +0.000 C 
ATOM      5  N   UNL     1       5.144   3.977  15.648  0.00  0.00    +0.000 NA
ATOM      6  N   UNL     1       5.098   4.961  16.592  0.00  0.00    +0.000 N 
ATOM      7  C   UNL     1       4.257   4.869  17.710  0.00  0.00    +0.000 A 
ATOM      8  N   UNL     1       3.809   5.951  18.273  0.00  0.00    +0.000 NA
ATOM      9  C   UNL     1       3.024   5.695  19.348  0.00  0.00    +0.000 A 
ATOM     10  C   UNL     1       2.838   4.486  19.966  0.00  0.00    +0.000 A 
ATOM     11  C   UNL     1       2.154   4.800  21.148  0.00  0.00    +0.000 A 
ATOM     12  N   UNL     1       1.856   6.109  21.232  0.00  0.00    +0.000 NA
ATOM     13  N   UNL     1       2.223   6.611  20.022  0.00  0.00    +0.000 N 
ATOM     14  C   UNL     1       3.370   3.300  19.341  0.00  0.00    +0.000 A 
ATOM     15  O   UNL     1       3.307   2.181  19.827  0.00  0.00    +0.000 OA
ATOM     16  N   UNL     1       3.996   3.575  18.126  0.00  0.00    +0.000 N 
ATOM     17  H   UNL     1       4.392   2.790  17.618  0.00  0.00    +0.000 HD
ENDROOT
BRANCH  13  18
ATOM     18  C   UNL     1       1.775   7.861  19.529  0.00  0.00    +0.000 A 
ATOM     19  C   UNL     1       2.024   8.211  18.191  0.00  0.00    +0.000 A 
ATOM     20  C   UNL     1       1.576   9.429  17.687  0.00  0.00    +0.000 A 
ATOM     21  C   UNL     1       0.911  10.320  18.525  0.00  0.00    +0.000 A 
ATOM     22  C   UNL     1       0.661   9.987  19.864  0.00  0.00    +0.000 A 
ATOM     23  C   UNL     1      -0.003  10.975  20.777  0.00  0.00    +0.000 C 
ATOM     24  C   UNL     1       1.063   8.734  20.356  0.00  0.00    +0.000 A 
ENDBRANCH  13  18
BRANCH   1  27
ATOM     25  C   UNL     1       7.427   7.662  17.136  0.00  0.00    +0.000 C 
ATOM     26  O   UNL     1       8.321   7.088  16.532  0.00  0.00    +0.000 OA
ATOM     27  N   UNL     1       6.065   7.244  16.924  0.00  0.00    +0.000 N 
ATOM     28  H   UNL     1       5.298   7.727  17.374  0.00  0.00    +0.000 HD
BRANCH  25  29
ATOM     29  C   UNL     1       7.615   8.778  18.148  0.00  0.00    +0.000 C 
BRANCH  29  30
ATOM     30  O   UNL     1       8.905   9.367  18.067  0.00  0.00    +0.000 OA
BRANCH  30  36
ATOM     31  C   UNL     1       9.921  11.556  18.734  0.00  0.00    +0.000 A 
ATOM     32  C   UNL     1       9.836  12.953  18.624  0.00  0.00    +0.000 A 
ATOM     33  C   UNL     1       8.773  13.552  17.954  0.00  0.00    +0.000 A 
ATOM     34  C   UNL     1       7.813  12.756  17.340  0.00  0.00    +0.000 A 
ATOM     35  C   UNL     1       7.926  11.363  17.388  0.00  0.00    +0.000 A 
ATOM     36  C   UNL     1       8.974  10.743  18.085  0.00  0.00    +0.000 A 
BRANCH  31  38
ATOM     37  C   UNL     1      12.148  11.748  19.506  0.00  0.00    +0.000 C 
ATOM     38  O   UNL     1      10.945  10.981  19.438  0.00  0.00    +0.000 OA
ENDBRANCH  31  38
ENDBRANCH  30  36
ENDBRANCH  29  30
ENDBRANCH  25  29
ENDBRANCH   1  27
TORSDOF 6
ENDMDL
MODEL 7
REMARK VINA RESULT:      -8.8      1.183      1.306
REMARK  Name = 
REMARK  9 active torsions:
REMARK  status: ('A' for Active; 'I' for Inactive)
REMARK    1  A    between atoms: C_1  and  O_2
REMARK    2  A    between atoms: O_2  and  C_3
REMARK    3  A    between atoms: C_8  and  O_9
REMARK    4  A    between atoms: O_9  and  C_10
REMARK    5  A    between atoms: C_10  and  C_11
REMARK    6  A    between atoms: N_13  and  C_14
REMARK    7  A    between atoms: C_16  and  C_17
REMARK    8  A    between atoms: N_26  and  C_27
REMARK    9  A    between atoms: C_31  and  C_32
REMARK                            x       y       z     vdW  Elec       q    Type
REMARK                         _______ _______ _______ _____ _____    ______ ____
ROOT
ATOM      1  C   UNL     1       6.476   5.082  16.184  0.00  0.00    +0.000 A 
ATOM      2  C   UNL     1       7.006   5.078  14.923  0.00  0.00    +0.000 A 
ATOM      3  C   UNL     1       6.443   3.941  14.298  0.00  0.00    +0.000 A 
ATOM      4  C   UNL     1       6.637   3.541  12.880  0.00  0.00    +0.000 C 
ATOM      5  N   UNL     1       5.669   3.227  15.134  0.00  0.00    +0.000 NA
ATOM      6  N   UNL     1       5.652   3.973  16.277  0.00  0.00    +0.000 N 
ATOM      7  C   UNL     1       4.747   3.709  17.315  0.00  0.00    +0.000 A 
ATOM      8  N   UNL     1       4.359   4.673  18.095  0.00  0.00    +0.000 NA
ATOM      9  C   UNL     1       3.499   4.254  19.055  0.00  0.00    +0.000 A 
ATOM     10  C   UNL     1       3.182   2.959  19.372  0.00  0.00    +0.000 A 
ATOM     11  C   UNL     1       2.463   3.060  20.572  0.00  0.00    +0.000 A 
ATOM     12  N   UNL     1       2.268   4.337  20.943  0.00  0.00    +0.000 NA
ATOM     13  N   UNL     1       2.740   5.063  19.894  0.00  0.00    +0.000 N 
ATOM     14  C   UNL     1       3.648   1.901  18.510  0.00  0.00    +0.000 A 
ATOM     15  O   UNL     1       3.468   0.712  18.724  0.00  0.00    +0.000 OA
ATOM     16  N   UNL     1       4.359   2.384  17.413  0.00  0.00    +0.000 N 
ATOM     17  H   UNL     1       4.717   1.701  16.752  0.00  0.00    +0.000 HD
ENDROOT
BRANCH  13  18
ATOM     18  C   UNL     1       2.423   6.429  19.685  0.00  0.00    +0.000 A 
ATOM     19  C   UNL     1       2.725   7.034  18.454  0.00  0.00    +0.000 A 
ATOM     20  C   UNL     1       2.405   8.369  18.228  0.00  0.00    +0.000 A 
ATOM     21  C   UNL     1       1.817   9.119  19.242  0.00  0.00    +0.000 A 
ATOM     22  C   UNL     1       1.514   8.530  20.479  0.00  0.00    +0.000 A 
ATOM     23  C   UNL     1       0.935   9.357  21.588  0.00  0.00    +0.000 C 
ATOM     24  C   UNL     1       1.786   7.168  20.686  0.00  0.00    +0.000 A 
ENDBRANCH  13  18
BRANCH   1  27
ATOM     25  C   UNL     1       6.383   7.394  16.965  0.00  0.00    +0.000 C 
ATOM     26  O   UNL     1       5.630   7.665  16.040  0.00  0.00    +0.000 OA
ATOM     27  N   UNL     1       6.783   6.023  17.156  0.00  0.00    +0.000 N 
ATOM     28  H   UNL     1       7.370   5.759  17.938  0.00  0.00    +0.000 HD
BRANCH  25  29
ATOM     29  C   UNL     1       6.989   8.390  17.935  0.00  0.00    +0.000 C 
BRANCH  29  30
ATOM     30  O   UNL     1       7.659   9.451  17.269  0.00  0.00    +0.000 OA
BRANCH  30  36
ATOM     31  C   UNL     1       8.419  11.740  17.944  0.00  0.00    +0.000 A 
ATOM     32  C   UNL     1       9.197  12.482  18.847  0.00  0.00    +0.000 A 
ATOM     33  C   UNL     1       9.997  11.843  19.792  0.00  0.00    +0.000 A 
ATOM     34  C   UNL     1       9.983  10.457  19.877  0.00  0.00    +0.000 A 
ATOM     35  C   UNL     1       9.160   9.712  19.025  0.00  0.00    +0.000 A 
ATOM     36  C   UNL     1       8.371  10.338  18.048  0.00  0.00    +0.000 A 
BRANCH  31  38
ATOM     37  C   UNL     1       7.177  13.665  17.359  0.00  0.00    +0.000 C 
ATOM     38  O   UNL     1       7.675  12.379  16.989  0.00  0.00    +0.000 OA
ENDBRANCH  31  38
ENDBRANCH  30  36
ENDBRANCH  29  30
ENDBRANCH  25  29
ENDBRANCH   1  27
TORSDOF 6
ENDMDL
MODEL 8
REMARK VINA RESULT:      -8.7      0.876      1.439
REMARK  Name = 
REMARK  9 active torsions:
REMARK  status: ('A' for Active; 'I' for Inactive)
REMARK    1  A    between atoms: C_1  and  O_2
REMARK    2  A    between atoms: O_2  and  C_3
REMARK    3  A    between atoms: C_8  and  O_9
REMARK    4  A    between atoms: O_9  and  C_10
REMARK    5  A    between atoms: C_10  and  C_11
REMARK    6  A    between atoms: N_13  and  C_14
REMARK    7  A    between atoms: C_16  and  C_17
REMARK    8  A    between atoms: N_26  and  C_27
REMARK    9  A    between atoms: C_31  and  C_32
REMARK                            x       y       z     vdW  Elec       q    Type
REMARK                         _______ _______ _______ _____ _____    ______ ____
ROOT
ATOM      1  C   UNL     1       5.877   5.523  16.217  0.00  0.00    +0.000 A 
ATOM      2  C   UNL     1       6.253   5.500  14.902  0.00  0.00    +0.000 A 
ATOM      3  C   UNL     1       5.771   4.265  14.410  0.00  0.00    +0.000 A 
ATOM      4  C   UNL     1       5.848   3.800  13.000  0.00  0.00    +0.000 C 
ATOM      5  N   UNL     1       5.196   3.520  15.370  0.00  0.00    +0.000 NA
ATOM      6  N   UNL     1       5.217   4.331  16.467  0.00  0.00    +0.000 N 
ATOM      7  C   UNL     1       4.479   4.029  17.620  0.00  0.00    +0.000 A 
ATOM      8  N   UNL     1       4.066   4.988  18.392  0.00  0.00    +0.000 NA
ATOM      9  C   UNL     1       3.382   4.533  19.471  0.00  0.00    +0.000 A 
ATOM     10  C   UNL     1       3.272   3.232  19.890  0.00  0.00    +0.000 A 
ATOM     11  C   UNL     1       2.690   3.324  21.162  0.00  0.00    +0.000 A 
ATOM     12  N   UNL     1       2.379   4.591  21.490  0.00  0.00    +0.000 NA
ATOM     13  N   UNL     1       2.630   5.298  20.355  0.00  0.00    +0.000 N 
ATOM     14  C   UNL     1       3.765   2.184  19.032  0.00  0.00    +0.000 A 
ATOM     15  O   UNL     1       3.764   0.999  19.326  0.00  0.00    +0.000 OA
ATOM     16  N   UNL     1       4.277   2.676  17.832  0.00  0.00    +0.000 N 
ATOM     17  H   UNL     1       4.640   1.999  17.168  0.00  0.00    +0.000 HD
ENDROOT
BRANCH  13  18
ATOM     18  C   UNL     1       2.120   6.599  20.119  0.00  0.00    +0.000 A 
ATOM     19  C   UNL     1       1.328   7.225  21.096  0.00  0.00    +0.000 A 
ATOM     20  C   UNL     1       0.834   8.509  20.885  0.00  0.00    +0.000 A 
ATOM     21  C   UNL     1       1.094   9.160  19.683  0.00  0.00    +0.000 A 
ATOM     22  C   UNL     1       1.879   8.546  18.696  0.00  0.00    +0.000 A 
ATOM     23  C   UNL     1       2.107   9.228  17.379  0.00  0.00    +0.000 C 
ATOM     24  C   UNL     1       2.424   7.274  18.933  0.00  0.00    +0.000 A 
ENDBRANCH  13  18
BRANCH   1  27
ATOM     25  C   UNL     1       7.438   7.235  16.987  0.00  0.00    +0.000 C 
ATOM     26  O   UNL     1       8.147   7.010  16.017  0.00  0.00    +0.000 OA
ATOM     27  N   UNL     1       6.172   6.555  17.094  0.00  0.00    +0.000 N 
ATOM     28  H   UNL     1       5.542   6.752  17.862  0.00  0.00    +0.000 HD
BRANCH  25  29
ATOM     29  C   UNL     1       7.784   8.154  18.144  0.00  0.00    +0.000 C 
BRANCH  29  30
ATOM     30  O   UNL     1       7.580   9.523  17.824  0.00  0.00    +0.000 OA
BRANCH  30  36
ATOM     31  C   UNL     1       8.612  11.795  18.025  0.00  0.00    +0.000 A 
ATOM     32  C   UNL     1       9.571  12.576  18.689  0.00  0.00    +0.000 A 
ATOM     33  C   UNL     1      10.447  12.003  19.607  0.00  0.00    +0.000 A 
ATOM     34  C   UNL     1      10.334  10.651  19.909  0.00  0.00    +0.000 A 
ATOM     35  C   UNL     1       9.338   9.880  19.302  0.00  0.00    +0.000 A 
ATOM     36  C   UNL     1       8.467  10.435  18.352  0.00  0.00    +0.000 A 
BRANCH  31  38
ATOM     37  C   UNL     1       7.288  13.658  17.418  0.00  0.00    +0.000 C 
ATOM     38  O   UNL     1       7.790  12.363  17.089  0.00  0.00    +0.000 OA
ENDBRANCH  31  38
ENDBRANCH  30  36
ENDBRANCH  29  30
ENDBRANCH  25  29
ENDBRANCH   1  27
TORSDOF 6
ENDMDL
MODEL 9
REMARK VINA RESULT:      -8.7      1.420      2.065
REMARK  Name = 
REMARK  9 active torsions:
REMARK  status: ('A' for Active; 'I' for Inactive)
REMARK    1  A    between atoms: C_1  and  O_2
REMARK    2  A    between atoms: O_2  and  C_3
REMARK    3  A    between atoms: C_8  and  O_9
REMARK    4  A    between atoms: O_9  and  C_10
REMARK    5  A    between atoms: C_10  and  C_11
REMARK    6  A    between atoms: N_13  and  C_14
REMARK    7  A    between atoms: C_16  and  C_17
REMARK    8  A    between atoms: N_26  and  C_27
REMARK    9  A    between atoms: C_31  and  C_32
REMARK                            x       y       z     vdW  Elec       q    Type
REMARK                         _______ _______ _______ _____ _____    ______ ____
ROOT
ATOM      1  C   UNL     1       6.405   5.605  16.641  0.00  0.00    +0.000 A 
ATOM      2  C   UNL     1       6.944   5.665  15.386  0.00  0.00    +0.000 A 
ATOM      3  C   UNL     1       6.491   4.490  14.742  0.00  0.00    +0.000 A 
ATOM      4  C   UNL     1       6.733   4.126  13.321  0.00  0.00    +0.000 C 
ATOM      5  N   UNL     1       5.776   3.699  15.561  0.00  0.00    +0.000 NA
ATOM      6  N   UNL     1       5.682   4.426  16.713  0.00  0.00    +0.000 N 
ATOM      7  C   UNL     1       4.795   4.069  17.738  0.00  0.00    +0.000 A 
ATOM      8  N   UNL     1       4.316   4.985  18.525  0.00  0.00    +0.000 NA
ATOM      9  C   UNL     1       3.487   4.478  19.471  0.00  0.00    +0.000 A 
ATOM     10  C   UNL     1       3.285   3.156  19.771  0.00  0.00    +0.000 A 
ATOM     11  C   UNL     1       2.549   3.177  20.963  0.00  0.00    +0.000 A 
ATOM     12  N   UNL     1       2.237   4.428  21.348  0.00  0.00    +0.000 NA
ATOM     13  N   UNL     1       2.652   5.206  20.312  0.00  0.00    +0.000 N 
ATOM     14  C   UNL     1       3.852   2.155  18.901  0.00  0.00    +0.000 A 
ATOM     15  O   UNL     1       3.777   0.952  19.099  0.00  0.00    +0.000 OA
ATOM     16  N   UNL     1       4.527   2.713  17.817  0.00  0.00    +0.000 N 
ATOM     17  H   UNL     1       4.950   2.074  17.152  0.00  0.00    +0.000 HD
ENDROOT
BRANCH  13  18
ATOM     18  C   UNL     1       2.216   6.540  20.116  0.00  0.00    +0.000 A 
ATOM     19  C   UNL     1       1.540   7.211  21.150  0.00  0.00    +0.000 A 
ATOM     20  C   UNL     1       1.120   8.527  20.978  0.00  0.00    +0.000 A 
ATOM     21  C   UNL     1       1.338   9.168  19.763  0.00  0.00    +0.000 A 
ATOM     22  C   UNL     1       2.007   8.510  18.720  0.00  0.00    +0.000 A 
ATOM     23  C   UNL     1       2.186   9.184  17.392  0.00  0.00    +0.000 C 
ATOM     24  C   UNL     1       2.480   7.202  18.913  0.00  0.00    +0.000 A 
ENDBRANCH  13  18
BRANCH   1  27
ATOM     25  C   UNL     1       7.712   7.484  17.491  0.00  0.00    +0.000 C 
ATOM     26  O   UNL     1       8.318   7.529  16.430  0.00  0.00    +0.000 OA
ATOM     27  N   UNL     1       6.617   6.558  17.627  0.00  0.00    +0.000 N 
ATOM     28  H   UNL     1       6.066   6.527  18.476  0.00  0.00    +0.000 HD
BRANCH  25  29
ATOM     29  C   UNL     1       8.030   8.302  18.729  0.00  0.00    +0.000 C 
BRANCH  29  30
ATOM     30  O   UNL     1       8.017   9.698  18.470  0.00  0.00    +0.000 OA
BRANCH  30  36
ATOM     31  C   UNL     1       9.445  10.901  20.140  0.00  0.00    +0.000 A 
ATOM     32  C   UNL     1      10.636  11.615  20.343  0.00  0.00    +0.000 A 
ATOM     33  C   UNL     1      11.465  11.938  19.272  0.00  0.00    +0.000 A 
ATOM     34  C   UNL     1      11.137  11.502  17.994  0.00  0.00    +0.000 A 
ATOM     35  C   UNL     1       9.986  10.733  17.793  0.00  0.00    +0.000 A 
ATOM     36  C   UNL     1       9.124  10.423  18.856  0.00  0.00    +0.000 A 
BRANCH  31  38
ATOM     37  C   UNL     1       8.571  11.633  22.212  0.00  0.00    +0.000 C 
ATOM     38  O   UNL     1       8.615  10.632  21.194  0.00  0.00    +0.000 OA
ENDBRANCH  31  38
ENDBRANCH  30  36
ENDBRANCH  29  30
ENDBRANCH  25  29
ENDBRANCH   1  27
TORSDOF 6
ENDMDL
