MODEL 1
REMARK VINA RESULT:      -7.7      0.000      0.000
REMARK  Name = 
REMARK  15 active torsions:
REMARK  status: ('A' for Active; 'I' for Inactive)
REMARK    1  A    between atoms: C_1  and  O_2
REMARK    2  A    between atoms: O_2  and  C_3
REMARK    3  A    between atoms: C_9  and  C_10
REMARK    4  A    between atoms: C_10  and  C_11
REMARK    5  A    between atoms: N_13  and  C_14
REMARK    6  A    between atoms: C_14  and  C_15
REMARK    7  A    between atoms: C_14  and  C_26
REMARK    8  A    between atoms: N_17  and  C_18
REMARK    9  A    between atoms: C_18  and  C_19
REMARK   10  A    between atoms: C_18  and  C_23
REMARK   11  A    between atoms: C_19  and  C_20
REMARK   12  A    between atoms: C_20  and  C_21
REMARK   13  A    between atoms: C_20  and  C_22
REMARK   14  A    between atoms: C_26  and  C_27
REMARK   15  A    between atoms: C_26  and  C_28
REMARK                            x       y       z     vdW  Elec       q    Type
REMARK                         _______ _______ _______ _____ _____    ______ ____
ROOT
ATOM      1  C   UNL     1       2.691   5.518  19.282  0.00  0.00    +0.000 C 
ENDROOT
BRANCH   1   4
ATOM      2  C   UNL     1       1.859   7.876  19.441  0.00  0.00    +0.000 C 
ATOM      3  O   UNL     1       2.225   8.177  18.304  0.00  0.00    +0.000 OA
ATOM      4  N   UNL     1       2.117   6.660  20.024  0.00  0.00    +0.000 N 
ATOM      5  H   UNL     1       1.575   6.427  20.846  0.00  0.00    +0.000 HD
BRANCH   2   6
ATOM      6  C   UNL     1       1.092   8.860  20.305  0.00  0.00    +0.000 C 
BRANCH   6  13
ATOM      7  C   UNL     1      -2.051  10.295  17.429  0.00  0.00    +0.000 A 
ATOM      8  C   UNL     1      -2.735  11.350  18.055  0.00  0.00    +0.000 A 
ATOM      9  C   UNL     1      -2.154  12.031  19.130  0.00  0.00    +0.000 A 
ATOM     10  C   UNL     1      -0.908  11.614  19.560  0.00  0.00    +0.000 A 
ATOM     11  C   UNL     1      -0.227  10.555  18.978  0.00  0.00    +0.000 A 
ATOM     12  C   UNL     1      -0.791   9.903  17.889  0.00  0.00    +0.000 A 
ATOM     13  C   UNL     1       1.080  10.255  19.663  0.00  0.00    +0.000 C 
ATOM     14  C   UNL     1       1.199  11.375  20.726  0.00  0.00    +0.000 C 
ATOM     15  C   UNL     1      -0.091  12.153  20.637  0.00  0.00    +0.000 C 
ATOM     16  O   UNL     1      -0.415  13.099  21.332  0.00  0.00    +0.000 OA
BRANCH   7  18
ATOM     17  C   UNL     1      -2.882  10.277  15.219  0.00  0.00    +0.000 C 
ATOM     18  O   UNL     1      -2.530   9.549  16.387  0.00  0.00    +0.000 OA
ENDBRANCH   7  18
ENDBRANCH   6  13
ENDBRANCH   2   6
ENDBRANCH   1   4
BRANCH   1  19
ATOM     19  C   UNL     1       4.221   5.687  18.986  0.00  0.00    +0.000 C 
ATOM     20  O   UNL     1       5.098   5.419  19.805  0.00  0.00    +0.000 OA
ATOM     21  N   UNL     1       4.511   6.042  17.687  0.00  0.00    +0.000 N 
ATOM     22  H   UNL     1       3.744   5.869  17.038  0.00  0.00    +0.000 HD
BRANCH  21  23
ATOM     23  C   UNL     1       5.855   6.031  17.109  0.00  0.00    +0.000 C 
BRANCH  23  24
ATOM     24  C   UNL     1       5.891   5.294  15.752  0.00  0.00    +0.000 C 
ATOM     25  N   UNL     1       4.966   4.304  15.559  0.00  0.00    +0.000 N 
ATOM     26  O   UNL     1       6.661   5.593  14.842  0.00  0.00    +0.000 OA
ATOM     27  H   UNL     1       4.149   4.208  16.154  0.00  0.00    +0.000 HD
ATOM     28  H   UNL     1       4.911   3.904  14.633  0.00  0.00    +0.000 HD
ENDBRANCH  23  24
BRANCH  23  29
ATOM     29  C   UNL     1       6.524   7.415  17.016  0.00  0.00    +0.000 C 
BRANCH  29  30
ATOM     30  C   UNL     1       7.933   7.596  17.626  0.00  0.00    +0.000 C 
ATOM     31  C   UNL     1       8.119   9.074  18.008  0.00  0.00    +0.000 C 
ATOM     32  C   UNL     1       8.188   6.756  18.879  0.00  0.00    +0.000 C 
ENDBRANCH  29  30
ENDBRANCH  23  29
ENDBRANCH  21  23
ENDBRANCH   1  19
BRANCH   1  33
ATOM     33  C   UNL     1       2.398   4.151  19.966  0.00  0.00    +0.000 C 
ATOM     34  C   UNL     1       0.982   4.040  20.541  0.00  0.00    +0.000 C 
ATOM     35  C   UNL     1       2.657   2.967  19.026  0.00  0.00    +0.000 C 
ENDBRANCH   1  33
TORSDOF 10
ENDMDL
MODEL 2
REMARK VINA RESULT:      -7.5      1.623      2.505
REMARK  Name = 
REMARK  15 active torsions:
REMARK  status: ('A' for Active; 'I' for Inactive)
REMARK    1  A    between atoms: C_1  and  O_2
REMARK    2  A    between atoms: O_2  and  C_3
REMARK    3  A    between atoms: C_9  and  C_10
REMARK    4  A    between atoms: C_10  and  C_11
REMARK    5  A    between atoms: N_13  and  C_14
REMARK    6  A    between atoms: C_14  and  C_15
REMARK    7  A    between atoms: C_14  and  C_26
REMARK    8  A    between atoms: N_17  and  C_18
REMARK    9  A    between atoms: C_18  and  C_19
REMARK   10  A    between atoms: C_18  and  C_23
REMARK   11  A    between atoms: C_19  and  C_20
REMARK   12  A    between atoms: C_20  and  C_21
REMARK   13  A    between atoms: C_20  and  C_22
REMARK   14  A    between atoms: C_26  and  C_27
REMARK   15  A    between atoms: C_26  and  C_28
REMARK                            x       y       z     vdW  Elec       q    Type
REMARK                         _______ _______ _______ _____ _____    ______ ____
ROOT
ATOM      1  C   UNL     1       2.851   6.269  17.954  0.00  0.00    +0.000 C 
ENDROOT
BRANCH   1   4
ATOM      2  C   UNL     1       1.883   8.523  18.465  0.00  0.00    +0.000 C 
ATOM      3  O   UNL     1       1.961   8.919  17.301  0.00  0.00    +0.000 OA
ATOM      4  N   UNL     1       2.364   7.308  18.886  0.00  0.00    +0.000 N 
ATOM      5  H   UNL     1       2.039   6.979  19.786  0.00  0.00    +0.000 HD
BRANCH   2   6
ATOM      6  C   UNL     1       1.249   9.379  19.545  0.00  0.00    +0.000 C 
BRANCH   6  13
ATOM      7  C   UNL     1      -2.552  10.346  17.347  0.00  0.00    +0.000 A 
ATOM      8  C   UNL     1      -3.273  11.250  18.145  0.00  0.00    +0.000 A 
ATOM      9  C   UNL     1      -2.626  11.987  19.142  0.00  0.00    +0.000 A 
ATOM     10  C   UNL     1      -1.271  11.775  19.324  0.00  0.00    +0.000 A 
ATOM     11  C   UNL     1      -0.544  10.865  18.571  0.00  0.00    +0.000 A 
ATOM     12  C   UNL     1      -1.183  10.160  17.558  0.00  0.00    +0.000 A 
ATOM     13  C   UNL     1       0.896  10.771  19.000  0.00  0.00    +0.000 C 
ATOM     14  C   UNL     1       1.022  11.862  20.092  0.00  0.00    +0.000 C 
ATOM     15  C   UNL     1      -0.372  12.412  20.274  0.00  0.00    +0.000 C 
ATOM     16  O   UNL     1      -0.714  13.268  21.070  0.00  0.00    +0.000 OA
BRANCH   7  18
ATOM     17  C   UNL     1      -3.113  10.138  15.063  0.00  0.00    +0.000 C 
ATOM     18  O   UNL     1      -3.084   9.561  16.361  0.00  0.00    +0.000 OA
ENDBRANCH   7  18
ENDBRANCH   6  13
ENDBRANCH   2   6
ENDBRANCH   1   4
BRANCH   1  19
ATOM     19  C   UNL     1       4.328   6.508  17.489  0.00  0.00    +0.000 C 
ATOM     20  O   UNL     1       4.879   7.606  17.536  0.00  0.00    +0.000 OA
ATOM     21  N   UNL     1       5.004   5.360  17.139  0.00  0.00    +0.000 N 
ATOM     22  H   UNL     1       4.569   4.509  17.493  0.00  0.00    +0.000 HD
BRANCH  21  23
ATOM     23  C   UNL     1       6.446   5.292  16.900  0.00  0.00    +0.000 C 
BRANCH  23  24
ATOM     24  C   UNL     1       7.220   4.863  18.165  0.00  0.00    +0.000 C 
ATOM     25  N   UNL     1       8.377   4.157  17.974  0.00  0.00    +0.000 N 
ATOM     26  O   UNL     1       6.876   5.171  19.304  0.00  0.00    +0.000 OA
ATOM     27  H   UNL     1       8.840   4.117  17.072  0.00  0.00    +0.000 HD
ATOM     28  H   UNL     1       8.944   3.979  18.792  0.00  0.00    +0.000 HD
ENDBRANCH  23  24
BRANCH  23  29
ATOM     29  C   UNL     1       6.853   4.446  15.678  0.00  0.00    +0.000 C 
BRANCH  29  30
ATOM     30  C   UNL     1       6.379   4.898  14.277  0.00  0.00    +0.000 C 
ATOM     31  C   UNL     1       7.612   5.096  13.379  0.00  0.00    +0.000 C 
ATOM     32  C   UNL     1       5.448   3.906  13.578  0.00  0.00    +0.000 C 
ENDBRANCH  29  30
ENDBRANCH  23  29
ENDBRANCH  21  23
ENDBRANCH   1  19
BRANCH   1  33
ATOM     33  C   UNL     1       2.663   4.828  18.513  0.00  0.00    +0.000 C 
ATOM     34  C   UNL     1       2.379   4.782  20.017  0.00  0.00    +0.000 C 
ATOM     35  C   UNL     1       1.568   4.057  17.767  0.00  0.00    +0.000 C 
ENDBRANCH   1  33
TORSDOF 10
ENDMDL
MODEL 3
REMARK VINA RESULT:      -7.2      1.740      3.637
REMARK  Name = 
REMARK  15 active torsions:
REMARK  status: ('A' for Active; 'I' for Inactive)
REMARK    1  A    between atoms: C_1  and  O_2
REMARK    2  A    between atoms: O_2  and  C_3
REMARK    3  A    between atoms: C_9  and  C_10
REMARK    4  A    between atoms: C_10  and  C_11
REMARK    5  A    between atoms: N_13  and  C_14
REMARK    6  A    between atoms: C_14  and  C_15
REMARK    7  A    between atoms: C_14  and  C_26
REMARK    8  A    between atoms: N_17  and  C_18
REMARK    9  A    between atoms: C_18  and  C_19
REMARK   10  A    between atoms: C_18  and  C_23
REMARK   11  A    between atoms: C_19  and  C_20
REMARK   12  A    between atoms: C_20  and  C_21
REMARK   13  A    between atoms: C_20  and  C_22
REMARK   14  A    between atoms: C_26  and  C_27
REMARK   15  A    between atoms: C_26  and  C_28
REMARK                            x       y       z     vdW  Elec       q    Type
REMARK                         _______ _______ _______ _____ _____    ______ ____
ROOT
ATOM      1  C   UNL     1       3.047   6.277  18.418  0.00  0.00    +0.000 C 
ENDROOT
BRANCH   1   4
ATOM      2  C   UNL     1       2.258   8.651  18.276  0.00  0.00    +0.000 C 
ATOM      3  O   UNL     1       2.526   8.762  17.079  0.00  0.00    +0.000 OA
ATOM      4  N   UNL     1       2.553   7.534  19.018  0.00  0.00    +0.000 N 
ATOM      5  H   UNL     1       2.083   7.445  19.910  0.00  0.00    +0.000 HD
BRANCH   2   6
ATOM      6  C   UNL     1       1.581   9.775  19.037  0.00  0.00    +0.000 C 
BRANCH   6  13
ATOM      7  C   UNL     1      -1.171  12.034  21.783  0.00  0.00    +0.000 A 
ATOM      8  C   UNL     1      -2.049  12.772  20.973  0.00  0.00    +0.000 A 
ATOM      9  C   UNL     1      -2.244  12.419  19.634  0.00  0.00    +0.000 A 
ATOM     10  C   UNL     1      -1.529  11.343  19.140  0.00  0.00    +0.000 A 
ATOM     11  C   UNL     1      -0.632  10.618  19.911  0.00  0.00    +0.000 A 
ATOM     12  C   UNL     1      -0.467  10.950  21.250  0.00  0.00    +0.000 A 
ATOM     13  C   UNL     1       0.067   9.537  19.131  0.00  0.00    +0.000 C 
ATOM     14  C   UNL     1      -0.610   9.597  17.739  0.00  0.00    +0.000 C 
ATOM     15  C   UNL     1      -1.556  10.771  17.802  0.00  0.00    +0.000 C 
ATOM     16  O   UNL     1      -2.257  11.185  16.896  0.00  0.00    +0.000 OA
BRANCH   7  18
ATOM     17  C   UNL     1      -1.421  13.517  23.603  0.00  0.00    +0.000 C 
ATOM     18  O   UNL     1      -0.889  12.301  23.094  0.00  0.00    +0.000 OA
ENDBRANCH   7  18
ENDBRANCH   6  13
ENDBRANCH   2   6
ENDBRANCH   1   4
BRANCH   1  19
ATOM     19  C   UNL     1       4.610   6.166  18.430  0.00  0.00    +0.000 C 
ATOM     20  O   UNL     1       5.235   5.554  19.294  0.00  0.00    +0.000 OA
ATOM     21  N   UNL     1       5.224   6.704  17.320  0.00  0.00    +0.000 N 
ATOM     22  H   UNL     1       4.593   6.837  16.531  0.00  0.00    +0.000 HD
BRANCH  21  23
ATOM     23  C   UNL     1       6.637   6.519  16.988  0.00  0.00    +0.000 C 
BRANCH  23  24
ATOM     24  C   UNL     1       7.554   7.411  17.853  0.00  0.00    +0.000 C 
ATOM     25  N   UNL     1       8.202   6.805  18.896  0.00  0.00    +0.000 N 
ATOM     26  O   UNL     1       7.762   8.598  17.614  0.00  0.00    +0.000 OA
ATOM     27  H   UNL     1       8.280   5.796  18.967  0.00  0.00    +0.000 HD
ATOM     28  H   UNL     1       8.890   7.357  19.389  0.00  0.00    +0.000 HD
ENDBRANCH  23  24
BRANCH  23  29
ATOM     29  C   UNL     1       7.110   5.053  16.994  0.00  0.00    +0.000 C 
BRANCH  29  30
ATOM     30  C   UNL     1       6.768   4.162  15.777  0.00  0.00    +0.000 C 
ATOM     31  C   UNL     1       5.336   3.628  15.944  0.00  0.00    +0.000 C 
ATOM     32  C   UNL     1       6.843   4.882  14.430  0.00  0.00    +0.000 C 
ENDBRANCH  29  30
ENDBRANCH  23  29
ENDBRANCH  21  23
ENDBRANCH   1  19
BRANCH   1  33
ATOM     33  C   UNL     1       2.389   5.014  19.046  0.00  0.00    +0.000 C 
ATOM     34  C   UNL     1       1.592   5.304  20.322  0.00  0.00    +0.000 C 
ATOM     35  C   UNL     1       1.494   4.271  18.047  0.00  0.00    +0.000 C 
ENDBRANCH   1  33
TORSDOF 10
ENDMDL
MODEL 4
REMARK VINA RESULT:      -7.2      2.651      8.799
REMARK  Name = 
REMARK  15 active torsions:
REMARK  status: ('A' for Active; 'I' for Inactive)
REMARK    1  A    between atoms: C_1  and  O_2
REMARK    2  A    between atoms: O_2  and  C_3
REMARK    3  A    between atoms: C_9  and  C_10
REMARK    4  A    between atoms: C_10  and  C_11
REMARK    5  A    between atoms: N_13  and  C_14
REMARK    6  A    between atoms: C_14  and  C_15
REMARK    7  A    between atoms: C_14  and  C_26
REMARK    8  A    between atoms: N_17  and  C_18
REMARK    9  A    between atoms: C_18  and  C_19
REMARK   10  A    between atoms: C_18  and  C_23
REMARK   11  A    between atoms: C_19  and  C_20
REMARK   12  A    between atoms: C_20  and  C_21
REMARK   13  A    between atoms: C_20  and  C_22
REMARK   14  A    between atoms: C_26  and  C_27
REMARK   15  A    between atoms: C_26  and  C_28
REMARK                            x       y       z     vdW  Elec       q    Type
REMARK                         _______ _______ _______ _____ _____    ______ ____
ROOT
ATOM      1  C   UNL     1       0.643  10.513  19.965  0.00  0.00    +0.000 C 
ENDROOT
BRANCH   1   4
ATOM      2  C   UNL     1       1.715   9.166  18.146  0.00  0.00    +0.000 C 
ATOM      3  O   UNL     1       2.312  10.128  17.662  0.00  0.00    +0.000 OA
ATOM      4  N   UNL     1       0.828   9.270  19.189  0.00  0.00    +0.000 N 
ATOM      5  H   UNL     1       0.583   8.410  19.663  0.00  0.00    +0.000 HD
BRANCH   2   6
ATOM      6  C   UNL     1       1.910   7.765  17.597  0.00  0.00    +0.000 C 
BRANCH   6  13
ATOM      7  C   UNL     1       2.512   3.425  18.605  0.00  0.00    +0.000 A 
ATOM      8  C   UNL     1       3.433   2.909  17.678  0.00  0.00    +0.000 A 
ATOM      9  C   UNL     1       4.274   3.767  16.962  0.00  0.00    +0.000 A 
ATOM     10  C   UNL     1       4.147   5.127  17.183  0.00  0.00    +0.000 A 
ATOM     11  C   UNL     1       3.224   5.662  18.068  0.00  0.00    +0.000 A 
ATOM     12  C   UNL     1       2.415   4.805  18.804  0.00  0.00    +0.000 A 
ATOM     13  C   UNL     1       3.237   7.167  18.085  0.00  0.00    +0.000 C 
ATOM     14  C   UNL     1       4.411   7.531  17.143  0.00  0.00    +0.000 C 
ATOM     15  C   UNL     1       4.898   6.218  16.582  0.00  0.00    +0.000 C 
ATOM     16  O   UNL     1       5.791   6.066  15.767  0.00  0.00    +0.000 OA
BRANCH   7  18
ATOM     17  C   UNL     1       0.966   3.378  20.388  0.00  0.00    +0.000 C 
ATOM     18  O   UNL     1       1.631   2.683  19.342  0.00  0.00    +0.000 OA
ENDBRANCH   7  18
ENDBRANCH   6  13
ENDBRANCH   2   6
ENDBRANCH   1   4
BRANCH   1  19
ATOM     19  C   UNL     1      -0.457  11.454  19.362  0.00  0.00    +0.000 C 
ATOM     20  O   UNL     1      -0.293  12.661  19.197  0.00  0.00    +0.000 OA
ATOM     21  N   UNL     1      -1.580  10.795  18.911  0.00  0.00    +0.000 N 
ATOM     22  H   UNL     1      -1.435   9.797  18.766  0.00  0.00    +0.000 HD
BRANCH  21  23
ATOM     23  C   UNL     1      -2.631  11.415  18.105  0.00  0.00    +0.000 C 
BRANCH  23  24
ATOM     24  C   UNL     1      -2.657  10.855  16.665  0.00  0.00    +0.000 C 
ATOM     25  N   UNL     1      -3.272  11.623  15.713  0.00  0.00    +0.000 N 
ATOM     26  O   UNL     1      -2.112   9.803  16.340  0.00  0.00    +0.000 OA
ATOM     27  H   UNL     1      -3.488  12.602  15.869  0.00  0.00    +0.000 HD
ATOM     28  H   UNL     1      -3.187  11.317  14.754  0.00  0.00    +0.000 HD
ENDBRANCH  23  24
BRANCH  23  29
ATOM     29  C   UNL     1      -4.033  11.384  18.745  0.00  0.00    +0.000 C 
BRANCH  29  30
ATOM     30  C   UNL     1      -4.527  12.641  19.498  0.00  0.00    +0.000 C 
ATOM     31  C   UNL     1      -6.054  12.554  19.653  0.00  0.00    +0.000 C 
ATOM     32  C   UNL     1      -3.926  12.815  20.893  0.00  0.00    +0.000 C 
ENDBRANCH  29  30
ENDBRANCH  23  29
ENDBRANCH  21  23
ENDBRANCH   1  19
BRANCH   1  33
ATOM     33  C   UNL     1       0.384  10.243  21.476  0.00  0.00    +0.000 C 
ATOM     34  C   UNL     1      -0.526  11.282  22.141  0.00  0.00    +0.000 C 
ATOM     35  C   UNL     1      -0.184   8.840  21.724  0.00  0.00    +0.000 C 
ENDBRANCH   1  33
TORSDOF 10
ENDMDL
MODEL 5
REMARK VINA RESULT:      -7.2      2.615      8.516
REMARK  Name = 
REMARK  15 active torsions:
REMARK  status: ('A' for Active; 'I' for Inactive)
REMARK    1  A    between atoms: C_1  and  O_2
REMARK    2  A    between atoms: O_2  and  C_3
REMARK    3  A    between atoms: C_9  and  C_10
REMARK    4  A    between atoms: C_10  and  C_11
REMARK    5  A    between atoms: N_13  and  C_14
REMARK    6  A    between atoms: C_14  and  C_15
REMARK    7  A    between atoms: C_14  and  C_26
REMARK    8  A    between atoms: N_17  and  C_18
REMARK    9  A    between atoms: C_18  and  C_19
REMARK   10  A    between atoms: C_18  and  C_23
REMARK   11  A    between atoms: C_19  and  C_20
REMARK   12  A    between atoms: C_20  and  C_21
REMARK   13  A    between atoms: C_20  and  C_22
REMARK   14  A    between atoms: C_26  and  C_27
REMARK   15  A    between atoms: C_26  and  C_28
REMARK                            x       y       z     vdW  Elec       q    Type
REMARK                         _______ _______ _______ _____ _____    ______ ____
ROOT
ATOM      1  C   UNL     1       0.892  10.079  20.875  0.00  0.00    +0.000 C 
ENDROOT
BRANCH   1   4
ATOM      2  C   UNL     1       1.522   9.239  18.601  0.00  0.00    +0.000 C 
ATOM      3  O   UNL     1       1.714  10.365  18.140  0.00  0.00    +0.000 OA
ATOM      4  N   UNL     1       1.044   9.010  19.867  0.00  0.00    +0.000 N 
ATOM      5  H   UNL     1       1.152   8.071  20.229  0.00  0.00    +0.000 HD
BRANCH   2   6
ATOM      6  C   UNL     1       1.791   7.996  17.774  0.00  0.00    +0.000 C 
BRANCH   6  13
ATOM      7  C   UNL     1       1.837   3.666  18.984  0.00  0.00    +0.000 A 
ATOM      8  C   UNL     1       2.678   2.994  18.082  0.00  0.00    +0.000 A 
ATOM      9  C   UNL     1       3.618   3.702  17.326  0.00  0.00    +0.000 A 
ATOM     10  C   UNL     1       3.669   5.076  17.483  0.00  0.00    +0.000 A 
ATOM     11  C   UNL     1       2.827   5.766  18.343  0.00  0.00    +0.000 A 
ATOM     12  C   UNL     1       1.919   5.055  19.118  0.00  0.00    +0.000 A 
ATOM     13  C   UNL     1       3.034   7.256  18.289  0.00  0.00    +0.000 C 
ATOM     14  C   UNL     1       4.239   7.422  17.331  0.00  0.00    +0.000 C 
ATOM     15  C   UNL     1       4.550   6.032  16.832  0.00  0.00    +0.000 C 
ATOM     16  O   UNL     1       5.411   5.729  16.025  0.00  0.00    +0.000 OA
BRANCH   7  18
ATOM     17  C   UNL     1       1.226   2.845  21.111  0.00  0.00    +0.000 C 
ATOM     18  O   UNL     1       0.872   3.079  19.755  0.00  0.00    +0.000 OA
ENDBRANCH   7  18
ENDBRANCH   6  13
ENDBRANCH   2   6
ENDBRANCH   1   4
BRANCH   1  19
ATOM     19  C   UNL     1       0.084  11.312  20.343  0.00  0.00    +0.000 C 
ATOM     20  O   UNL     1       0.527  12.460  20.348  0.00  0.00    +0.000 OA
ATOM     21  N   UNL     1      -1.116  10.990  19.750  0.00  0.00    +0.000 N 
ATOM     22  H   UNL     1      -1.187  10.009  19.482  0.00  0.00    +0.000 HD
BRANCH  21  23
ATOM     23  C   UNL     1      -1.933  11.925  18.976  0.00  0.00    +0.000 C 
BRANCH  23  24
ATOM     24  C   UNL     1      -2.312  11.351  17.593  0.00  0.00    +0.000 C 
ATOM     25  N   UNL     1      -1.419  10.490  17.014  0.00  0.00    +0.000 N 
ATOM     26  O   UNL     1      -3.381  11.587  17.035  0.00  0.00    +0.000 OA
ATOM     27  H   UNL     1      -0.670  10.056  17.543  0.00  0.00    +0.000 HD
ATOM     28  H   UNL     1      -1.717  10.023  16.169  0.00  0.00    +0.000 HD
ENDBRANCH  23  24
BRANCH  23  29
ATOM     29  C   UNL     1      -3.170  12.464  19.720  0.00  0.00    +0.000 C 
BRANCH  29  30
ATOM     30  C   UNL     1      -3.051  12.756  21.234  0.00  0.00    +0.000 C 
ATOM     31  C   UNL     1      -2.431  14.151  21.419  0.00  0.00    +0.000 C 
ATOM     32  C   UNL     1      -4.384  12.735  21.985  0.00  0.00    +0.000 C 
ENDBRANCH  29  30
ENDBRANCH  23  29
ENDBRANCH  21  23
ENDBRANCH   1  19
BRANCH   1  33
ATOM     33  C   UNL     1       0.301   9.558  22.218  0.00  0.00    +0.000 C 
ATOM     34  C   UNL     1      -0.548  10.594  22.962  0.00  0.00    +0.000 C 
ATOM     35  C   UNL     1      -0.517   8.274  22.030  0.00  0.00    +0.000 C 
ENDBRANCH   1  33
TORSDOF 10
ENDMDL
MODEL 6
REMARK VINA RESULT:      -7.2      1.428      2.520
REMARK  Name = 
REMARK  15 active torsions:
REMARK  status: ('A' for Active; 'I' for Inactive)
REMARK    1  A    between atoms: C_1  and  O_2
REMARK    2  A    between atoms: O_2  and  C_3
REMARK    3  A    between atoms: C_9  and  C_10
REMARK    4  A    between atoms: C_10  and  C_11
REMARK    5  A    between atoms: N_13  and  C_14
REMARK    6  A    between atoms: C_14  and  C_15
REMARK    7  A    between atoms: C_14  and  C_26
REMARK    8  A    between atoms: N_17  and  C_18
REMARK    9  A    between atoms: C_18  and  C_19
REMARK   10  A    between atoms: C_18  and  C_23
REMARK   11  A    between atoms: C_19  and  C_20
REMARK   12  A    between atoms: C_20  and  C_21
REMARK   13  A    between atoms: C_20  and  C_22
REMARK   14  A    between atoms: C_26  and  C_27
REMARK   15  A    between atoms: C_26  and  C_28
REMARK                            x       y       z     vdW  Elec       q    Type
REMARK                         _______ _______ _______ _____ _____    ______ ____
ROOT
ATOM      1  C   UNL     1       2.686   5.936  17.812  0.00  0.00    +0.000 C 
ENDROOT
BRANCH   1   4
ATOM      2  C   UNL     1       2.039   8.274  18.441  0.00  0.00    +0.000 C 
ATOM      3  O   UNL     1       2.301   8.740  17.331  0.00  0.00    +0.000 OA
ATOM      4  N   UNL     1       2.274   6.966  18.788  0.00  0.00    +0.000 N 
ATOM      5  H   UNL     1       1.808   6.628  19.620  0.00  0.00    +0.000 HD
BRANCH   2   6
ATOM      6  C   UNL     1       1.439   9.138  19.533  0.00  0.00    +0.000 C 
BRANCH   6  13
ATOM      7  C   UNL     1      -2.354  10.266  17.399  0.00  0.00    +0.000 A 
ATOM      8  C   UNL     1      -3.029  11.188  18.215  0.00  0.00    +0.000 A 
ATOM      9  C   UNL     1      -2.342  11.891  19.210  0.00  0.00    +0.000 A 
ATOM     10  C   UNL     1      -0.993  11.627  19.371  0.00  0.00    +0.000 A 
ATOM     11  C   UNL     1      -0.312  10.698  18.599  0.00  0.00    +0.000 A 
ATOM     12  C   UNL     1      -0.990  10.028  17.589  0.00  0.00    +0.000 A 
ATOM     13  C   UNL     1       1.130  10.547  19.007  0.00  0.00    +0.000 C 
ATOM     14  C   UNL     1       1.312  11.622  20.106  0.00  0.00    +0.000 C 
ATOM     15  C   UNL     1      -0.058  12.221  20.314  0.00  0.00    +0.000 C 
ATOM     16  O   UNL     1      -0.357  13.081  21.123  0.00  0.00    +0.000 OA
BRANCH   7  18
ATOM     17  C   UNL     1      -2.930  10.090  15.116  0.00  0.00    +0.000 C 
ATOM     18  O   UNL     1      -2.928   9.511  16.414  0.00  0.00    +0.000 OA
ENDBRANCH   7  18
ENDBRANCH   6  13
ENDBRANCH   2   6
ENDBRANCH   1   4
BRANCH   1  19
ATOM     19  C   UNL     1       4.228   5.656  17.831  0.00  0.00    +0.000 C 
ATOM     20  O   UNL     1       4.808   5.152  18.790  0.00  0.00    +0.000 OA
ATOM     21  N   UNL     1       4.863   5.905  16.634  0.00  0.00    +0.000 N 
ATOM     22  H   UNL     1       4.227   5.957  15.840  0.00  0.00    +0.000 HD
BRANCH  21  23
ATOM     23  C   UNL     1       6.237   5.505  16.330  0.00  0.00    +0.000 C 
BRANCH  23  24
ATOM     24  C   UNL     1       7.171   5.685  17.546  0.00  0.00    +0.000 C 
ATOM     25  N   UNL     1       7.376   6.965  17.986  0.00  0.00    +0.000 N 
ATOM     26  O   UNL     1       7.678   4.744  18.153  0.00  0.00    +0.000 OA
ATOM     27  H   UNL     1       6.777   7.733  17.702  0.00  0.00    +0.000 HD
ATOM     28  H   UNL     1       7.889   7.075  18.850  0.00  0.00    +0.000 HD
ENDBRANCH  23  24
BRANCH  23  29
ATOM     29  C   UNL     1       6.374   4.097  15.718  0.00  0.00    +0.000 C 
BRANCH  29  30
ATOM     30  C   UNL     1       6.688   3.976  14.209  0.00  0.00    +0.000 C 
ATOM     31  C   UNL     1       5.364   3.864  13.437  0.00  0.00    +0.000 C 
ATOM     32  C   UNL     1       7.466   5.161  13.631  0.00  0.00    +0.000 C 
ENDBRANCH  29  30
ENDBRANCH  23  29
ENDBRANCH  21  23
ENDBRANCH   1  19
BRANCH   1  33
ATOM     33  C   UNL     1       1.873   4.616  17.955  0.00  0.00    +0.000 C 
ATOM     34  C   UNL     1       2.512   3.419  17.245  0.00  0.00    +0.000 C 
ATOM     35  C   UNL     1       1.613   4.254  19.423  0.00  0.00    +0.000 C 
ENDBRANCH   1  33
TORSDOF 10
ENDMDL
MODEL 7
REMARK VINA RESULT:      -7.2      2.570      8.886
REMARK  Name = 
REMARK  15 active torsions:
REMARK  status: ('A' for Active; 'I' for Inactive)
REMARK    1  A    between atoms: C_1  and  O_2
REMARK    2  A    between atoms: O_2  and  C_3
REMARK    3  A    between atoms: C_9  and  C_10
REMARK    4  A    between atoms: C_10  and  C_11
REMARK    5  A    between atoms: N_13  and  C_14
REMARK    6  A    between atoms: C_14  and  C_15
REMARK    7  A    between atoms: C_14  and  C_26
REMARK    8  A    between atoms: N_17  and  C_18
REMARK    9  A    between atoms: C_18  and  C_19
REMARK   10  A    between atoms: C_18  and  C_23
REMARK   11  A    between atoms: C_19  and  C_20
REMARK   12  A    between atoms: C_20  and  C_21
REMARK   13  A    between atoms: C_20  and  C_22
REMARK   14  A    between atoms: C_26  and  C_27
REMARK   15  A    between atoms: C_26  and  C_28
REMARK                            x       y       z     vdW  Elec       q    Type
REMARK                         _______ _______ _______ _____ _____    ______ ____
ROOT
ATOM      1  C   UNL     1       0.637  10.574  19.860  0.00  0.00    +0.000 C 
ENDROOT
BRANCH   1   4
ATOM      2  C   UNL     1       1.711   9.183  18.074  0.00  0.00    +0.000 C 
ATOM      3  O   UNL     1       2.311  10.134  17.570  0.00  0.00    +0.000 OA
ATOM      4  N   UNL     1       0.823   9.313  19.112  0.00  0.00    +0.000 N 
ATOM      5  H   UNL     1       0.575   8.465  19.606  0.00  0.00    +0.000 HD
BRANCH   2   6
ATOM      6  C   UNL     1       1.906   7.770  17.558  0.00  0.00    +0.000 C 
BRANCH   6  13
ATOM      7  C   UNL     1       2.516   3.434  18.579  0.00  0.00    +0.000 A 
ATOM      8  C   UNL     1       3.454   2.923  17.667  0.00  0.00    +0.000 A 
ATOM      9  C   UNL     1       4.301   3.785  16.963  0.00  0.00    +0.000 A 
ATOM     10  C   UNL     1       4.163   5.144  17.181  0.00  0.00    +0.000 A 
ATOM     11  C   UNL     1       3.224   5.674  18.052  0.00  0.00    +0.000 A 
ATOM     12  C   UNL     1       2.408   4.814  18.775  0.00  0.00    +0.000 A 
ATOM     13  C   UNL     1       3.228   7.180  18.068  0.00  0.00    +0.000 C 
ATOM     14  C   UNL     1       4.415   7.550  17.143  0.00  0.00    +0.000 C 
ATOM     15  C   UNL     1       4.918   6.239  16.591  0.00  0.00    +0.000 C 
ATOM     16  O   UNL     1       5.824   6.091  15.790  0.00  0.00    +0.000 OA
BRANCH   7  18
ATOM     17  C   UNL     1       1.048   3.338  20.425  0.00  0.00    +0.000 C 
ATOM     18  O   UNL     1       1.627   2.688  19.302  0.00  0.00    +0.000 OA
ENDBRANCH   7  18
ENDBRANCH   6  13
ENDBRANCH   2   6
ENDBRANCH   1   4
BRANCH   1  19
ATOM     19  C   UNL     1      -0.454  11.505  19.228  0.00  0.00    +0.000 C 
ATOM     20  O   UNL     1      -0.286  12.709  19.042  0.00  0.00    +0.000 OA
ATOM     21  N   UNL     1      -1.574  10.841  18.779  0.00  0.00    +0.000 N 
ATOM     22  H   UNL     1      -1.430   9.840  18.655  0.00  0.00    +0.000 HD
BRANCH  21  23
ATOM     23  C   UNL     1      -2.617  11.447  17.951  0.00  0.00    +0.000 C 
BRANCH  23  24
ATOM     24  C   UNL     1      -2.743  10.745  16.581  0.00  0.00    +0.000 C 
ATOM     25  N   UNL     1      -2.817   9.378  16.589  0.00  0.00    +0.000 N 
ATOM     26  O   UNL     1      -2.835  11.353  15.517  0.00  0.00    +0.000 OA
ATOM     27  H   UNL     1      -3.022   8.856  17.435  0.00  0.00    +0.000 HD
ATOM     28  H   UNL     1      -3.019   8.926  15.708  0.00  0.00    +0.000 HD
ENDBRANCH  23  24
BRANCH  23  29
ATOM     29  C   UNL     1      -3.987  11.582  18.642  0.00  0.00    +0.000 C 
BRANCH  29  30
ATOM     30  C   UNL     1      -5.264  11.372  17.795  0.00  0.00    +0.000 C 
ATOM     31  C   UNL     1      -6.333  10.700  18.673  0.00  0.00    +0.000 C 
ATOM     32  C   UNL     1      -5.866  12.661  17.233  0.00  0.00    +0.000 C 
ENDBRANCH  29  30
ENDBRANCH  23  29
ENDBRANCH  21  23
ENDBRANCH   1  19
BRANCH   1  33
ATOM     33  C   UNL     1       0.367  10.339  21.374  0.00  0.00    +0.000 C 
ATOM     34  C   UNL     1      -0.527  11.406  22.014  0.00  0.00    +0.000 C 
ATOM     35  C   UNL     1      -0.228   8.952  21.647  0.00  0.00    +0.000 C 
ENDBRANCH   1  33
TORSDOF 10
ENDMDL
MODEL 8
REMARK VINA RESULT:      -7.1      2.292      3.063
REMARK  Name = 
REMARK  15 active torsions:
REMARK  status: ('A' for Active; 'I' for Inactive)
REMARK    1  A    between atoms: C_1  and  O_2
REMARK    2  A    between atoms: O_2  and  C_3
REMARK    3  A    between atoms: C_9  and  C_10
REMARK    4  A    between atoms: C_10  and  C_11
REMARK    5  A    between atoms: N_13  and  C_14
REMARK    6  A    between atoms: C_14  and  C_15
REMARK    7  A    between atoms: C_14  and  C_26
REMARK    8  A    between atoms: N_17  and  C_18
REMARK    9  A    between atoms: C_18  and  C_19
REMARK   10  A    between atoms: C_18  and  C_23
REMARK   11  A    between atoms: C_19  and  C_20
REMARK   12  A    between atoms: C_20  and  C_21
REMARK   13  A    between atoms: C_20  and  C_22
REMARK   14  A    between atoms: C_26  and  C_27
REMARK   15  A    between atoms: C_26  and  C_28
REMARK                            x       y       z     vdW  Elec       q    Type
REMARK                         _______ _______ _______ _____ _____    ______ ____
ROOT
ATOM      1  C   UNL     1       2.551   4.699  18.544  0.00  0.00    +0.000 C 
ENDROOT
BRANCH   1   4
ATOM      2  C   UNL     1       2.477   7.184  18.850  0.00  0.00    +0.000 C 
ATOM      3  O   UNL     1       2.843   7.427  17.699  0.00  0.00    +0.000 OA
ATOM      4  N   UNL     1       2.395   5.916  19.367  0.00  0.00    +0.000 N 
ATOM      5  H   UNL     1       1.861   5.808  20.221  0.00  0.00    +0.000 HD
BRANCH   2   6
ATOM      6  C   UNL     1       2.098   8.301  19.804  0.00  0.00    +0.000 C 
BRANCH   6  13
ATOM      7  C   UNL     1      -0.585  11.187  21.969  0.00  0.00    +0.000 A 
ATOM      8  C   UNL     1      -0.101  12.479  21.705  0.00  0.00    +0.000 A 
ATOM      9  C   UNL     1       0.732  12.713  20.607  0.00  0.00    +0.000 A 
ATOM     10  C   UNL     1       1.075  11.631  19.816  0.00  0.00    +0.000 A 
ATOM     11  C   UNL     1       0.636  10.342  20.074  0.00  0.00    +0.000 A 
ATOM     12  C   UNL     1      -0.219  10.118  21.145  0.00  0.00    +0.000 A 
ATOM     13  C   UNL     1       1.196   9.331  19.108  0.00  0.00    +0.000 C 
ATOM     14  C   UNL     1       1.988  10.195  18.096  0.00  0.00    +0.000 C 
ATOM     15  C   UNL     1       1.909  11.607  18.624  0.00  0.00    +0.000 C 
ATOM     16  O   UNL     1       2.435  12.591  18.137  0.00  0.00    +0.000 OA
BRANCH   7  18
ATOM     17  C   UNL     1      -2.375  11.795  23.384  0.00  0.00    +0.000 C 
ATOM     18  O   UNL     1      -1.385  10.841  23.023  0.00  0.00    +0.000 OA
ENDBRANCH   7  18
ENDBRANCH   6  13
ENDBRANCH   2   6
ENDBRANCH   1   4
BRANCH   1  19
ATOM     19  C   UNL     1       4.048   4.277  18.352  0.00  0.00    +0.000 C 
ATOM     20  O   UNL     1       4.643   3.535  19.131  0.00  0.00    +0.000 OA
ATOM     21  N   UNL     1       4.609   4.704  17.169  0.00  0.00    +0.000 N 
ATOM     22  H   UNL     1       3.921   4.977  16.468  0.00  0.00    +0.000 HD
BRANCH  21  23
ATOM     23  C   UNL     1       5.901   4.247  16.655  0.00  0.00    +0.000 C 
BRANCH  23  24
ATOM     24  C   UNL     1       6.061   4.549  15.149  0.00  0.00    +0.000 C 
ATOM     25  N   UNL     1       6.149   3.472  14.308  0.00  0.00    +0.000 N 
ATOM     26  O   UNL     1       6.056   5.686  14.684  0.00  0.00    +0.000 OA
ATOM     27  H   UNL     1       5.885   2.538  14.601  0.00  0.00    +0.000 HD
ATOM     28  H   UNL     1       6.134   3.666  13.316  0.00  0.00    +0.000 HD
ENDBRANCH  23  24
BRANCH  23  29
ATOM     29  C   UNL     1       7.120   4.737  17.460  0.00  0.00    +0.000 C 
BRANCH  29  30
ATOM     30  C   UNL     1       6.980   6.029  18.298  0.00  0.00    +0.000 C 
ATOM     31  C   UNL     1       7.884   5.914  19.537  0.00  0.00    +0.000 C 
ATOM     32  C   UNL     1       7.371   7.307  17.553  0.00  0.00    +0.000 C 
ENDBRANCH  29  30
ENDBRANCH  23  29
ENDBRANCH  21  23
ENDBRANCH   1  19
BRANCH   1  33
ATOM     33  C   UNL     1       1.694   3.508  19.065  0.00  0.00    +0.000 C 
ATOM     34  C   UNL     1       2.134   2.146  18.518  0.00  0.00    +0.000 C 
ATOM     35  C   UNL     1       1.656   3.451  20.597  0.00  0.00    +0.000 C 
ENDBRANCH   1  33
TORSDOF 10
ENDMDL
MODEL 9
REMARK VINA RESULT:      -7.1      2.371      3.549
REMARK  Name = 
REMARK  15 active torsions:
REMARK  status: ('A' for Active; 'I' for Inactive)
REMARK    1  A    between atoms: C_1  and  O_2
REMARK    2  A    between atoms: O_2  and  C_3
REMARK    3  A    between atoms: C_9  and  C_10
REMARK    4  A    between atoms: C_10  and  C_11
REMARK    5  A    between atoms: N_13  and  C_14
REMARK    6  A    between atoms: C_14  and  C_15
REMARK    7  A    between atoms: C_14  and  C_26
REMARK    8  A    between atoms: N_17  and  C_18
REMARK    9  A    between atoms: C_18  and  C_19
REMARK   10  A    between atoms: C_18  and  C_23
REMARK   11  A    between atoms: C_19  and  C_20
REMARK   12  A    between atoms: C_20  and  C_21
REMARK   13  A    between atoms: C_20  and  C_22
REMARK   14  A    between atoms: C_26  and  C_27
REMARK   15  A    between atoms: C_26  and  C_28
REMARK                            x       y       z     vdW  Elec       q    Type
REMARK                         _______ _______ _______ _____ _____    ______ ____
ROOT
ATOM      1  C   UNL     1       2.778   5.061  18.621  0.00  0.00    +0.000 C 
ENDROOT
BRANCH   1   4
ATOM      2  C   UNL     1       2.204   7.490  18.841  0.00  0.00    +0.000 C 
ATOM      3  O   UNL     1       2.139   7.676  17.625  0.00  0.00    +0.000 OA
ATOM      4  N   UNL     1       2.588   6.299  19.405  0.00  0.00    +0.000 N 
ATOM      5  H   UNL     1       2.377   6.174  20.387  0.00  0.00    +0.000 HD
BRANCH   2   6
ATOM      6  C   UNL     1       1.871   8.597  19.824  0.00  0.00    +0.000 C 
BRANCH   6  13
ATOM      7  C   UNL     1      -0.787  11.428  22.089  0.00  0.00    +0.000 A 
ATOM      8  C   UNL     1      -0.287  12.723  21.877  0.00  0.00    +0.000 A 
ATOM      9  C   UNL     1       0.553  12.990  20.792  0.00  0.00    +0.000 A 
ATOM     10  C   UNL     1       0.887  11.936  19.960  0.00  0.00    +0.000 A 
ATOM     11  C   UNL     1       0.432  10.642  20.167  0.00  0.00    +0.000 A 
ATOM     12  C   UNL     1      -0.430  10.388  21.226  0.00  0.00    +0.000 A 
ATOM     13  C   UNL     1       0.984   9.663  19.165  0.00  0.00    +0.000 C 
ATOM     14  C   UNL     1       1.790  10.556  18.190  0.00  0.00    +0.000 C 
ATOM     15  C   UNL     1       1.726  11.947  18.772  0.00  0.00    +0.000 C 
ATOM     16  O   UNL     1       2.265  12.944  18.326  0.00  0.00    +0.000 OA
BRANCH   7  18
ATOM     17  C   UNL     1      -2.595  11.990  23.500  0.00  0.00    +0.000 C 
ATOM     18  O   UNL     1      -1.596  11.051  23.125  0.00  0.00    +0.000 OA
ENDBRANCH   7  18
ENDBRANCH   6  13
ENDBRANCH   2   6
ENDBRANCH   1   4
BRANCH   1  19
ATOM     19  C   UNL     1       4.267   4.834  18.186  0.00  0.00    +0.000 C 
ATOM     20  O   UNL     1       4.967   3.928  18.634  0.00  0.00    +0.000 OA
ATOM     21  N   UNL     1       4.691   5.656  17.166  0.00  0.00    +0.000 N 
ATOM     22  H   UNL     1       3.927   6.087  16.647  0.00  0.00    +0.000 HD
BRANCH  21  23
ATOM     23  C   UNL     1       5.945   5.483  16.433  0.00  0.00    +0.000 C 
BRANCH  23  24
ATOM     24  C   UNL     1       7.161   5.414  17.383  0.00  0.00    +0.000 C 
ATOM     25  N   UNL     1       7.921   4.276  17.335  0.00  0.00    +0.000 N 
ATOM     26  O   UNL     1       7.497   6.339  18.118  0.00  0.00    +0.000 OA
ATOM     27  H   UNL     1       7.852   3.616  16.568  0.00  0.00    +0.000 HD
ATOM     28  H   UNL     1       8.781   4.278  17.867  0.00  0.00    +0.000 HD
ENDBRANCH  23  24
BRANCH  23  29
ATOM     29  C   UNL     1       5.947   4.312  15.432  0.00  0.00    +0.000 C 
BRANCH  29  30
ATOM     30  C   UNL     1       6.090   4.629  13.926  0.00  0.00    +0.000 C 
ATOM     31  C   UNL     1       7.509   5.161  13.667  0.00  0.00    +0.000 C 
ATOM     32  C   UNL     1       5.868   3.427  13.006  0.00  0.00    +0.000 C 
ENDBRANCH  29  30
ENDBRANCH  23  29
ENDBRANCH  21  23
ENDBRANCH   1  19
BRANCH   1  33
ATOM     33  C   UNL     1       2.203   3.804  19.336  0.00  0.00    +0.000 C 
ATOM     34  C   UNL     1       1.255   4.133  20.494  0.00  0.00    +0.000 C 
ATOM     35  C   UNL     1       1.499   2.854  18.359  0.00  0.00    +0.000 C 
ENDBRANCH   1  33
TORSDOF 10
ENDMDL
