MODEL 1
REMARK VINA RESULT:      -7.9      0.000      0.000
REMARK  Name = 
REMARK  8 active torsions:
REMARK  status: ('A' for Active; 'I' for Inactive)
REMARK    1  A    between atoms: C_1  and  O_2
REMARK    2  A    between atoms: O_2  and  C_3
REMARK    3  A    between atoms: C_6  and  C_7
REMARK    4  A    between atoms: N_22  and  C_23
REMARK    5  A    between atoms: C_23  and  C_24
REMARK    6  A    between atoms: C_24  and  N_25
REMARK    7  A    between atoms: N_25  and  C_26
REMARK    8  A    between atoms: N_25  and  C_27
REMARK                            x       y       z     vdW  Elec       q    Type
REMARK                         _______ _______ _______ _____ _____    ______ ____
ROOT
ATOM      1  C   UNL     1       2.277   7.775  18.598  0.00  0.00    +0.000 A 
ATOM      2  N   UNL     1       1.396   8.441  17.846  0.00  0.00    +0.000 NA
ATOM      3  C   UNL     1       0.787   9.356  18.717  0.00  0.00    +0.000 A 
ATOM      4  C   UNL     1      -0.196  10.419  18.573  0.00  0.00    +0.000 A 
ATOM      5  C   UNL     1      -0.421  11.332  19.651  0.00  0.00    +0.000 A 
ATOM      6  C   UNL     1       0.102  10.940  20.878  0.00  0.00    +0.000 A 
ATOM      7  C   UNL     1      -0.280  11.621  21.982  0.00  0.00    +0.000 A 
ATOM      8  C   UNL     1      -0.995  10.861  22.880  0.00  0.00    +0.000 A 
ATOM      9  C   UNL     1      -0.607   9.535  23.009  0.00  0.00    +0.000 A 
ATOM     10  C   UNL     1       0.576   9.159  22.376  0.00  0.00    +0.000 A 
ATOM     11  C   UNL     1       0.741   9.727  21.117  0.00  0.00    +0.000 A 
ATOM     12  C   UNL     1       1.253   9.074  19.995  0.00  0.00    +0.000 A 
ATOM     13  O   UNL     1       2.141   8.045  19.943  0.00  0.00    +0.000 OA
ATOM     14  C   UNL     1      -0.362  13.048  21.832  0.00  0.00    +0.000 C 
ATOM     15  O   UNL     1       0.317  13.774  22.552  0.00  0.00    +0.000 OA
ATOM     16  N   UNL     1      -1.236  13.446  20.863  0.00  0.00    +0.000 N 
ATOM     17  C   UNL     1      -1.414  12.578  19.742  0.00  0.00    +0.000 C 
ATOM     18  O   UNL     1      -2.307  12.708  18.909  0.00  0.00    +0.000 OA
ENDROOT
BRANCH   1  22
ATOM     19  C   UNL     1       5.636   5.171  17.689  0.00  0.00    +0.000 A 
ATOM     20  C   UNL     1       5.285   6.181  16.818  0.00  0.00    +0.000 A 
ATOM     21  C   UNL     1       4.216   7.023  17.123  0.00  0.00    +0.000 A 
ATOM     22  C   UNL     1       3.413   6.870  18.261  0.00  0.00    +0.000 A 
ATOM     23  C   UNL     1       3.788   5.803  19.126  0.00  0.00    +0.000 A 
ATOM     24  C   UNL     1       4.901   4.979  18.864  0.00  0.00    +0.000 A 
BRANCH  19  26
ATOM     25  C   UNL     1       7.149   4.414  15.953  0.00  0.00    +0.000 C 
ATOM     26  O   UNL     1       6.741   4.408  17.324  0.00  0.00    +0.000 OA
ENDBRANCH  19  26
ENDBRANCH   1  22
BRANCH  16  27
ATOM     27  C   UNL     1      -2.085  14.574  21.383  0.00  0.00    +0.000 C 
BRANCH  27  28
ATOM     28  C   UNL     1      -3.640  14.317  21.546  0.00  0.00    +0.000 C 
BRANCH  28  29
ATOM     29  N   UNL     1      -4.055  12.945  22.013  0.00  0.00    +0.000 NA
ATOM     30  C   UNL     1      -4.064  12.829  23.483  0.00  0.00    +0.000 C 
ATOM     31  C   UNL     1      -5.415  12.602  21.553  0.00  0.00    +0.000 C 
ENDBRANCH  28  29
ENDBRANCH  27  28
ENDBRANCH  16  27
TORSDOF 5
ENDMDL
MODEL 2
REMARK VINA RESULT:      -7.7      1.642      2.653
REMARK  Name = 
REMARK  8 active torsions:
REMARK  status: ('A' for Active; 'I' for Inactive)
REMARK    1  A    between atoms: C_1  and  O_2
REMARK    2  A    between atoms: O_2  and  C_3
REMARK    3  A    between atoms: C_6  and  C_7
REMARK    4  A    between atoms: N_22  and  C_23
REMARK    5  A    between atoms: C_23  and  C_24
REMARK    6  A    between atoms: C_24  and  N_25
REMARK    7  A    between atoms: N_25  and  C_26
REMARK    8  A    between atoms: N_25  and  C_27
REMARK                            x       y       z     vdW  Elec       q    Type
REMARK                         _______ _______ _______ _____ _____    ______ ____
ROOT
ATOM      1  C   UNL     1       2.832   7.357  18.699  0.00  0.00    +0.000 A 
ATOM      2  N   UNL     1       2.306   7.303  19.926  0.00  0.00    +0.000 NA
ATOM      3  C   UNL     1       1.566   8.487  20.061  0.00  0.00    +0.000 A 
ATOM      4  C   UNL     1       0.700   9.050  21.085  0.00  0.00    +0.000 A 
ATOM      5  C   UNL     1      -0.100  10.199  20.789  0.00  0.00    +0.000 A 
ATOM      6  C   UNL     1       0.247  10.880  19.628  0.00  0.00    +0.000 A 
ATOM      7  C   UNL     1      -0.294  12.101  19.416  0.00  0.00    +0.000 A 
ATOM      8  C   UNL     1       0.630  13.121  19.408  0.00  0.00    +0.000 A 
ATOM      9  C   UNL     1       1.865  12.826  18.847  0.00  0.00    +0.000 A 
ATOM     10  C   UNL     1       1.980  11.610  18.177  0.00  0.00    +0.000 A 
ATOM     11  C   UNL     1       1.329  10.558  18.814  0.00  0.00    +0.000 A 
ATOM     12  C   UNL     1       1.818   9.257  18.932  0.00  0.00    +0.000 A 
ATOM     13  O   UNL     1       2.659   8.586  18.099  0.00  0.00    +0.000 OA
ATOM     14  C   UNL     1      -1.686  12.227  19.750  0.00  0.00    +0.000 C 
ATOM     15  O   UNL     1      -2.489  12.564  18.886  0.00  0.00    +0.000 OA
ATOM     16  N   UNL     1      -1.961  11.950  21.058  0.00  0.00    +0.000 N 
ATOM     17  C   UNL     1      -1.132  10.989  21.714  0.00  0.00    +0.000 C 
ATOM     18  O   UNL     1      -1.134  10.797  22.928  0.00  0.00    +0.000 OA
ENDROOT
BRANCH   1  22
ATOM     19  C   UNL     1       4.788   4.338  16.261  0.00  0.00    +0.000 A 
ATOM     20  C   UNL     1       5.175   5.659  16.174  0.00  0.00    +0.000 A 
ATOM     21  C   UNL     1       4.555   6.621  16.970  0.00  0.00    +0.000 A 
ATOM     22  C   UNL     1       3.491   6.335  17.836  0.00  0.00    +0.000 A 
ATOM     23  C   UNL     1       3.101   4.967  17.883  0.00  0.00    +0.000 A 
ATOM     24  C   UNL     1       3.755   3.973  17.130  0.00  0.00    +0.000 A 
BRANCH  19  26
ATOM     25  C   UNL     1       6.257   3.962  14.368  0.00  0.00    +0.000 C 
ATOM     26  O   UNL     1       5.492   3.444  15.460  0.00  0.00    +0.000 OA
ENDBRANCH  19  26
ENDBRANCH   1  22
BRANCH  16  27
ATOM     27  C   UNL     1      -2.884  13.003  21.611  0.00  0.00    +0.000 C 
BRANCH  27  28
ATOM     28  C   UNL     1      -4.419  12.640  21.755  0.00  0.00    +0.000 C 
BRANCH  28  29
ATOM     29  N   UNL     1      -4.925  12.372  23.150  0.00  0.00    +0.000 NA
ATOM     30  C   UNL     1      -3.898  12.617  24.179  0.00  0.00    +0.000 C 
ATOM     31  C   UNL     1      -6.076  13.233  23.487  0.00  0.00    +0.000 C 
ENDBRANCH  28  29
ENDBRANCH  27  28
ENDBRANCH  16  27
TORSDOF 5
ENDMDL
MODEL 3
REMARK VINA RESULT:      -7.7      1.808      3.090
REMARK  Name = 
REMARK  8 active torsions:
REMARK  status: ('A' for Active; 'I' for Inactive)
REMARK    1  A    between atoms: C_1  and  O_2
REMARK    2  A    between atoms: O_2  and  C_3
REMARK    3  A    between atoms: C_6  and  C_7
REMARK    4  A    between atoms: N_22  and  C_23
REMARK    5  A    between atoms: C_23  and  C_24
REMARK    6  A    between atoms: C_24  and  N_25
REMARK    7  A    between atoms: N_25  and  C_26
REMARK    8  A    between atoms: N_25  and  C_27
REMARK                            x       y       z     vdW  Elec       q    Type
REMARK                         _______ _______ _______ _____ _____    ______ ____
ROOT
ATOM      1  C   UNL     1       1.847   7.481  20.090  0.00  0.00    +0.000 A 
ATOM      2  N   UNL     1       1.505   7.785  21.345  0.00  0.00    +0.000 NA
ATOM      3  C   UNL     1       0.759   8.968  21.246  0.00  0.00    +0.000 A 
ATOM      4  C   UNL     1       0.034   9.811  22.185  0.00  0.00    +0.000 A 
ATOM      5  C   UNL     1      -0.832  10.839  21.696  0.00  0.00    +0.000 A 
ATOM      6  C   UNL     1      -0.675  11.157  20.352  0.00  0.00    +0.000 A 
ATOM      7  C   UNL     1      -1.275  12.276  19.886  0.00  0.00    +0.000 A 
ATOM      8  C   UNL     1      -0.391  13.239  19.454  0.00  0.00    +0.000 A 
ATOM      9  C   UNL     1       0.757  12.780  18.825  0.00  0.00    +0.000 A 
ATOM     10  C   UNL     1       0.809  11.422  18.517  0.00  0.00    +0.000 A 
ATOM     11  C   UNL     1       0.287  10.603  19.513  0.00  0.00    +0.000 A 
ATOM     12  C   UNL     1       0.825   9.383  19.922  0.00  0.00    +0.000 A 
ATOM     13  O   UNL     1       1.555   8.491  19.199  0.00  0.00    +0.000 OA
ATOM     14  C   UNL     1      -2.608  12.511  20.370  0.00  0.00    +0.000 C 
ATOM     15  O   UNL     1      -3.537  12.600  19.573  0.00  0.00    +0.000 OA
ATOM     16  N   UNL     1      -2.684  12.620  21.728  0.00  0.00    +0.000 N 
ATOM     17  C   UNL     1      -1.742  11.874  22.501  0.00  0.00    +0.000 C 
ATOM     18  O   UNL     1      -1.564  12.034  23.706  0.00  0.00    +0.000 OA
ENDROOT
BRANCH   1  22
ATOM     19  C   UNL     1       3.401   3.888  18.202  0.00  0.00    +0.000 A 
ATOM     20  C   UNL     1       2.848   3.825  19.463  0.00  0.00    +0.000 A 
ATOM     21  C   UNL     1       2.337   4.979  20.057  0.00  0.00    +0.000 A 
ATOM     22  C   UNL     1       2.403   6.247  19.464  0.00  0.00    +0.000 A 
ATOM     23  C   UNL     1       3.002   6.279  18.173  0.00  0.00    +0.000 A 
ATOM     24  C   UNL     1       3.470   5.114  17.533  0.00  0.00    +0.000 A 
BRANCH  19  26
ATOM     25  C   UNL     1       3.595   1.479  18.406  0.00  0.00    +0.000 C 
ATOM     26  O   UNL     1       3.847   2.681  17.672  0.00  0.00    +0.000 OA
ENDBRANCH  19  26
ENDBRANCH   1  22
BRANCH  16  27
ATOM     27  C   UNL     1      -3.546  13.799  22.090  0.00  0.00    +0.000 C 
BRANCH  27  28
ATOM     28  C   UNL     1      -4.647  13.595  23.212  0.00  0.00    +0.000 C 
BRANCH  28  29
ATOM     29  N   UNL     1      -5.646  12.488  22.988  0.00  0.00    +0.000 NA
ATOM     30  C   UNL     1      -6.765  12.536  23.946  0.00  0.00    +0.000 C 
ATOM     31  C   UNL     1      -6.240  12.555  21.638  0.00  0.00    +0.000 C 
ENDBRANCH  28  29
ENDBRANCH  27  28
ENDBRANCH  16  27
TORSDOF 5
ENDMDL
MODEL 4
REMARK VINA RESULT:      -7.7      0.480      1.123
REMARK  Name = 
REMARK  8 active torsions:
REMARK  status: ('A' for Active; 'I' for Inactive)
REMARK    1  A    between atoms: C_1  and  O_2
REMARK    2  A    between atoms: O_2  and  C_3
REMARK    3  A    between atoms: C_6  and  C_7
REMARK    4  A    between atoms: N_22  and  C_23
REMARK    5  A    between atoms: C_23  and  C_24
REMARK    6  A    between atoms: C_24  and  N_25
REMARK    7  A    between atoms: N_25  and  C_26
REMARK    8  A    between atoms: N_25  and  C_27
REMARK                            x       y       z     vdW  Elec       q    Type
REMARK                         _______ _______ _______ _____ _____    ______ ____
ROOT
ATOM      1  C   UNL     1       2.207   7.873  18.558  0.00  0.00    +0.000 A 
ATOM      2  N   UNL     1       1.287   8.524  17.841  0.00  0.00    +0.000 NA
ATOM      3  C   UNL     1       0.678   9.409  18.743  0.00  0.00    +0.000 A 
ATOM      4  C   UNL     1      -0.338  10.446  18.644  0.00  0.00    +0.000 A 
ATOM      5  C   UNL     1      -0.557  11.337  19.741  0.00  0.00    +0.000 A 
ATOM      6  C   UNL     1       0.012  10.943  20.947  0.00  0.00    +0.000 A 
ATOM      7  C   UNL     1      -0.356  11.596  22.072  0.00  0.00    +0.000 A 
ATOM      8  C   UNL     1      -1.024  10.804  22.978  0.00  0.00    +0.000 A 
ATOM      9  C   UNL     1      -0.595   9.487  23.075  0.00  0.00    +0.000 A 
ATOM     10  C   UNL     1       0.579   9.155  22.404  0.00  0.00    +0.000 A 
ATOM     11  C   UNL     1       0.692   9.745  21.149  0.00  0.00    +0.000 A 
ATOM     12  C   UNL     1       1.188   9.123  20.003  0.00  0.00    +0.000 A 
ATOM     13  O   UNL     1       2.103   8.120  19.910  0.00  0.00    +0.000 OA
ATOM     14  C   UNL     1      -0.482  13.023  21.946  0.00  0.00    +0.000 C 
ATOM     15  O   UNL     1       0.198  13.757  22.656  0.00  0.00    +0.000 OA
ATOM     16  N   UNL     1      -1.395  13.409  21.008  0.00  0.00    +0.000 N 
ATOM     17  C   UNL     1      -1.580  12.553  19.879  0.00  0.00    +0.000 C 
ATOM     18  O   UNL     1      -2.501  12.669  19.074  0.00  0.00    +0.000 OA
ENDROOT
BRANCH   1  22
ATOM     19  C   UNL     1       5.516   5.322  17.363  0.00  0.00    +0.000 A 
ATOM     20  C   UNL     1       4.736   4.984  18.449  0.00  0.00    +0.000 A 
ATOM     21  C   UNL     1       3.667   5.798  18.818  0.00  0.00    +0.000 A 
ATOM     22  C   UNL     1       3.358   7.005  18.175  0.00  0.00    +0.000 A 
ATOM     23  C   UNL     1       4.197   7.335  17.074  0.00  0.00    +0.000 A 
ATOM     24  C   UNL     1       5.246   6.495  16.651  0.00  0.00    +0.000 A 
BRANCH  19  26
ATOM     25  C   UNL     1       7.000   4.382  15.691  0.00  0.00    +0.000 C 
ATOM     26  O   UNL     1       6.535   4.428  17.043  0.00  0.00    +0.000 OA
ENDBRANCH  19  26
ENDBRANCH   1  22
BRANCH  16  27
ATOM     27  C   UNL     1      -2.259  14.506  21.569  0.00  0.00    +0.000 C 
BRANCH  27  28
ATOM     28  C   UNL     1      -3.426  14.096  22.560  0.00  0.00    +0.000 C 
BRANCH  28  29
ATOM     29  N   UNL     1      -4.811  14.000  21.974  0.00  0.00    +0.000 NA
ATOM     30  C   UNL     1      -4.994  14.888  20.811  0.00  0.00    +0.000 C 
ATOM     31  C   UNL     1      -5.114  12.631  21.513  0.00  0.00    +0.000 C 
ENDBRANCH  28  29
ENDBRANCH  27  28
ENDBRANCH  16  27
TORSDOF 5
ENDMDL
MODEL 5
REMARK VINA RESULT:      -7.6      1.821      3.081
REMARK  Name = 
REMARK  8 active torsions:
REMARK  status: ('A' for Active; 'I' for Inactive)
REMARK    1  A    between atoms: C_1  and  O_2
REMARK    2  A    between atoms: O_2  and  C_3
REMARK    3  A    between atoms: C_6  and  C_7
REMARK    4  A    between atoms: N_22  and  C_23
REMARK    5  A    between atoms: C_23  and  C_24
REMARK    6  A    between atoms: C_24  and  N_25
REMARK    7  A    between atoms: N_25  and  C_26
REMARK    8  A    between atoms: N_25  and  C_27
REMARK                            x       y       z     vdW  Elec       q    Type
REMARK                         _______ _______ _______ _____ _____    ______ ____
ROOT
ATOM      1  C   UNL     1       3.128   7.234  18.345  0.00  0.00    +0.000 A 
ATOM      2  N   UNL     1       2.582   7.148  19.561  0.00  0.00    +0.000 NA
ATOM      3  C   UNL     1       1.819   8.316  19.705  0.00  0.00    +0.000 A 
ATOM      4  C   UNL     1       0.925   8.844  20.724  0.00  0.00    +0.000 A 
ATOM      5  C   UNL     1       0.109   9.984  20.435  0.00  0.00    +0.000 A 
ATOM      6  C   UNL     1       0.463  10.692  19.292  0.00  0.00    +0.000 A 
ATOM      7  C   UNL     1      -0.096  11.906  19.094  0.00  0.00    +0.000 A 
ATOM      8  C   UNL     1       0.809  12.943  19.120  0.00  0.00    +0.000 A 
ATOM      9  C   UNL     1       2.058  12.681  18.575  0.00  0.00    +0.000 A 
ATOM     10  C   UNL     1       2.207  11.480  17.886  0.00  0.00    +0.000 A 
ATOM     11  C   UNL     1       1.565  10.404  18.492  0.00  0.00    +0.000 A 
ATOM     12  C   UNL     1       2.076   9.111  18.595  0.00  0.00    +0.000 A 
ATOM     13  O   UNL     1       2.943   8.471  17.764  0.00  0.00    +0.000 OA
ATOM     14  C   UNL     1      -1.496  12.001  19.405  0.00  0.00    +0.000 C 
ATOM     15  O   UNL     1      -2.290  12.340  18.534  0.00  0.00    +0.000 OA
ATOM     16  N   UNL     1      -1.788  11.696  20.703  0.00  0.00    +0.000 N 
ATOM     17  C   UNL     1      -0.953  10.738  21.356  0.00  0.00    +0.000 C 
ATOM     18  O   UNL     1      -0.972  10.523  22.566  0.00  0.00    +0.000 OA
ENDROOT
BRANCH   1  22
ATOM     19  C   UNL     1       5.189   4.304  15.885  0.00  0.00    +0.000 A 
ATOM     20  C   UNL     1       5.458   5.648  15.736  0.00  0.00    +0.000 A 
ATOM     21  C   UNL     1       4.805   6.582  16.539  0.00  0.00    +0.000 A 
ATOM     22  C   UNL     1       3.820   6.240  17.475  0.00  0.00    +0.000 A 
ATOM     23  C   UNL     1       3.549   4.848  17.586  0.00  0.00    +0.000 A 
ATOM     24  C   UNL     1       4.241   3.885  16.824  0.00  0.00    +0.000 A 
BRANCH  19  26
ATOM     25  C   UNL     1       6.193   3.845  13.726  0.00  0.00    +0.000 C 
ATOM     26  O   UNL     1       5.918   3.442  15.071  0.00  0.00    +0.000 OA
ENDBRANCH  19  26
ENDBRANCH   1  22
BRANCH  16  27
ATOM     27  C   UNL     1      -2.739  12.721  21.260  0.00  0.00    +0.000 C 
BRANCH  27  28
ATOM     28  C   UNL     1      -2.194  14.192  21.483  0.00  0.00    +0.000 C 
BRANCH  28  29
ATOM     29  N   UNL     1      -0.951  14.334  22.324  0.00  0.00    +0.000 NA
ATOM     30  C   UNL     1      -0.294  15.641  22.142  0.00  0.00    +0.000 C 
ATOM     31  C   UNL     1      -1.250  14.208  23.764  0.00  0.00    +0.000 C 
ENDBRANCH  28  29
ENDBRANCH  27  28
ENDBRANCH  16  27
TORSDOF 5
ENDMDL
MODEL 6
REMARK VINA RESULT:      -7.6      1.144      2.118
REMARK  Name = 
REMARK  8 active torsions:
REMARK  status: ('A' for Active; 'I' for Inactive)
REMARK    1  A    between atoms: C_1  and  O_2
REMARK    2  A    between atoms: O_2  and  C_3
REMARK    3  A    between atoms: C_6  and  C_7
REMARK    4  A    between atoms: N_22  and  C_23
REMARK    5  A    between atoms: C_23  and  C_24
REMARK    6  A    between atoms: C_24  and  N_25
REMARK    7  A    between atoms: N_25  and  C_26
REMARK    8  A    between atoms: N_25  and  C_27
REMARK                            x       y       z     vdW  Elec       q    Type
REMARK                         _______ _______ _______ _____ _____    ______ ____
ROOT
ATOM      1  C   UNL     1       2.245   7.803  18.655  0.00  0.00    +0.000 A 
ATOM      2  N   UNL     1       1.379   8.477  17.893  0.00  0.00    +0.000 NA
ATOM      3  C   UNL     1       0.776   9.404  18.755  0.00  0.00    +0.000 A 
ATOM      4  C   UNL     1      -0.191  10.480  18.597  0.00  0.00    +0.000 A 
ATOM      5  C   UNL     1      -0.411  11.402  19.669  0.00  0.00    +0.000 A 
ATOM      6  C   UNL     1       0.097  11.010  20.902  0.00  0.00    +0.000 A 
ATOM      7  C   UNL     1      -0.284  11.701  22.000  0.00  0.00    +0.000 A 
ATOM      8  C   UNL     1      -1.016  10.957  22.896  0.00  0.00    +0.000 A 
ATOM      9  C   UNL     1      -0.646   9.626  23.035  0.00  0.00    +0.000 A 
ATOM     10  C   UNL     1       0.536   9.231  22.413  0.00  0.00    +0.000 A 
ATOM     11  C   UNL     1       0.718   9.790  21.152  0.00  0.00    +0.000 A 
ATOM     12  C   UNL     1       1.229   9.124  20.038  0.00  0.00    +0.000 A 
ATOM     13  O   UNL     1       2.103   8.082  19.997  0.00  0.00    +0.000 OA
ATOM     14  C   UNL     1      -0.345  13.129  21.841  0.00  0.00    +0.000 C 
ATOM     15  O   UNL     1       0.339  13.849  22.562  0.00  0.00    +0.000 OA
ATOM     16  N   UNL     1      -1.207  13.533  20.863  0.00  0.00    +0.000 N 
ATOM     17  C   UNL     1      -1.388  12.662  19.746  0.00  0.00    +0.000 C 
ATOM     18  O   UNL     1      -2.273  12.799  18.905  0.00  0.00    +0.000 OA
ENDROOT
BRANCH   1  22
ATOM     19  C   UNL     1       5.575   5.150  17.784  0.00  0.00    +0.000 A 
ATOM     20  C   UNL     1       5.231   6.147  16.896  0.00  0.00    +0.000 A 
ATOM     21  C   UNL     1       4.172   7.005  17.188  0.00  0.00    +0.000 A 
ATOM     22  C   UNL     1       3.371   6.880  18.331  0.00  0.00    +0.000 A 
ATOM     23  C   UNL     1       3.739   5.826  19.214  0.00  0.00    +0.000 A 
ATOM     24  C   UNL     1       4.842   4.987  18.964  0.00  0.00    +0.000 A 
BRANCH  19  26
ATOM     25  C   UNL     1       7.157   4.447  16.085  0.00  0.00    +0.000 C 
ATOM     26  O   UNL     1       6.671   4.369  17.429  0.00  0.00    +0.000 OA
ENDBRANCH  19  26
ENDBRANCH   1  22
BRANCH  16  27
ATOM     27  C   UNL     1      -2.043  14.676  21.371  0.00  0.00    +0.000 C 
BRANCH  27  28
ATOM     28  C   UNL     1      -1.684  16.136  20.872  0.00  0.00    +0.000 C 
BRANCH  28  29
ATOM     29  N   UNL     1      -0.819  16.239  19.642  0.00  0.00    +0.000 NA
ATOM     30  C   UNL     1      -1.223  17.350  18.760  0.00  0.00    +0.000 C 
ATOM     31  C   UNL     1       0.597  16.467  19.988  0.00  0.00    +0.000 C 
ENDBRANCH  28  29
ENDBRANCH  27  28
ENDBRANCH  16  27
TORSDOF 5
ENDMDL
MODEL 7
REMARK VINA RESULT:      -7.5      1.959      3.221
REMARK  Name = 
REMARK  8 active torsions:
REMARK  status: ('A' for Active; 'I' for Inactive)
REMARK    1  A    between atoms: C_1  and  O_2
REMARK    2  A    between atoms: O_2  and  C_3
REMARK    3  A    between atoms: C_6  and  C_7
REMARK    4  A    between atoms: N_22  and  C_23
REMARK    5  A    between atoms: C_23  and  C_24
REMARK    6  A    between atoms: C_24  and  N_25
REMARK    7  A    between atoms: N_25  and  C_26
REMARK    8  A    between atoms: N_25  and  C_27
REMARK                            x       y       z     vdW  Elec       q    Type
REMARK                         _______ _______ _______ _____ _____    ______ ____
ROOT
ATOM      1  C   UNL     1       1.444   8.036  20.611  0.00  0.00    +0.000 A 
ATOM      2  N   UNL     1       1.099   8.439  21.837  0.00  0.00    +0.000 NA
ATOM      3  C   UNL     1       0.320   9.589  21.639  0.00  0.00    +0.000 A 
ATOM      4  C   UNL     1      -0.425  10.491  22.505  0.00  0.00    +0.000 A 
ATOM      5  C   UNL     1      -1.321  11.449  21.934  0.00  0.00    +0.000 A 
ATOM      6  C   UNL     1      -1.177  11.652  20.566  0.00  0.00    +0.000 A 
ATOM      7  C   UNL     1      -1.810  12.709  20.007  0.00  0.00    +0.000 A 
ATOM      8  C   UNL     1      -0.954  13.654  19.488  0.00  0.00    +0.000 A 
ATOM      9  C   UNL     1       0.205  13.173  18.895  0.00  0.00    +0.000 A 
ATOM     10  C   UNL     1       0.293  11.796  18.706  0.00  0.00    +0.000 A 
ATOM     11  C   UNL     1      -0.203  11.053  19.773  0.00  0.00    +0.000 A 
ATOM     12  C   UNL     1       0.369   9.888  20.283  0.00  0.00    +0.000 A 
ATOM     13  O   UNL     1       1.121   8.957  19.637  0.00  0.00    +0.000 OA
ATOM     14  C   UNL     1      -3.147  12.949  20.477  0.00  0.00    +0.000 C 
ATOM     15  O   UNL     1      -4.080  12.943  19.681  0.00  0.00    +0.000 OA
ATOM     16  N   UNL     1      -3.220  13.175  21.821  0.00  0.00    +0.000 N 
ATOM     17  C   UNL     1      -2.256  12.525  22.651  0.00  0.00    +0.000 C 
ATOM     18  O   UNL     1      -2.077  12.794  23.836  0.00  0.00    +0.000 OA
ENDROOT
BRANCH   1  22
ATOM     19  C   UNL     1       3.212   4.335  19.174  0.00  0.00    +0.000 A 
ATOM     20  C   UNL     1       3.415   5.514  18.488  0.00  0.00    +0.000 A 
ATOM     21  C   UNL     1       2.858   6.701  18.962  0.00  0.00    +0.000 A 
ATOM     22  C   UNL     1       2.032   6.768  20.092  0.00  0.00    +0.000 A 
ATOM     23  C   UNL     1       1.824   5.530  20.762  0.00  0.00    +0.000 A 
ATOM     24  C   UNL     1       2.426   4.331  20.331  0.00  0.00    +0.000 A 
BRANCH  19  26
ATOM     25  C   UNL     1       3.095   1.992  18.560  0.00  0.00    +0.000 C 
ATOM     26  O   UNL     1       3.841   3.210  18.650  0.00  0.00    +0.000 OA
ENDBRANCH  19  26
ENDBRANCH   1  22
BRANCH  16  27
ATOM     27  C   UNL     1      -4.114  14.357  22.084  0.00  0.00    +0.000 C 
BRANCH  27  28
ATOM     28  C   UNL     1      -5.587  14.074  22.594  0.00  0.00    +0.000 C 
BRANCH  28  29
ATOM     29  N   UNL     1      -6.001  12.628  22.701  0.00  0.00    +0.000 NA
ATOM     30  C   UNL     1      -6.734  12.341  23.947  0.00  0.00    +0.000 C 
ATOM     31  C   UNL     1      -6.886  12.232  21.588  0.00  0.00    +0.000 C 
ENDBRANCH  28  29
ENDBRANCH  27  28
ENDBRANCH  16  27
TORSDOF 5
ENDMDL
MODEL 8
REMARK VINA RESULT:      -7.5      1.010      1.449
REMARK  Name = 
REMARK  8 active torsions:
REMARK  status: ('A' for Active; 'I' for Inactive)
REMARK    1  A    between atoms: C_1  and  O_2
REMARK    2  A    between atoms: O_2  and  C_3
REMARK    3  A    between atoms: C_6  and  C_7
REMARK    4  A    between atoms: N_22  and  C_23
REMARK    5  A    between atoms: C_23  and  C_24
REMARK    6  A    between atoms: C_24  and  N_25
REMARK    7  A    between atoms: N_25  and  C_26
REMARK    8  A    between atoms: N_25  and  C_27
REMARK                            x       y       z     vdW  Elec       q    Type
REMARK                         _______ _______ _______ _____ _____    ______ ____
ROOT
ATOM      1  C   UNL     1       2.154   7.882  18.467  0.00  0.00    +0.000 A 
ATOM      2  N   UNL     1       1.241   8.555  17.761  0.00  0.00    +0.000 NA
ATOM      3  C   UNL     1       0.655   9.445  18.673  0.00  0.00    +0.000 A 
ATOM      4  C   UNL     1      -0.341  10.502  18.586  0.00  0.00    +0.000 A 
ATOM      5  C   UNL     1      -0.535  11.390  19.691  0.00  0.00    +0.000 A 
ATOM      6  C   UNL     1       0.035  10.978  20.890  0.00  0.00    +0.000 A 
ATOM      7  C   UNL     1      -0.313  11.631  22.021  0.00  0.00    +0.000 A 
ATOM      8  C   UNL     1      -0.988  10.846  22.928  0.00  0.00    +0.000 A 
ATOM      9  C   UNL     1      -0.584   9.522  23.014  0.00  0.00    +0.000 A 
ATOM     10  C   UNL     1       0.579   9.171  22.332  0.00  0.00    +0.000 A 
ATOM     11  C   UNL     1       0.693   9.766  21.080  0.00  0.00    +0.000 A 
ATOM     12  C   UNL     1       1.169   9.142  19.927  0.00  0.00    +0.000 A 
ATOM     13  O   UNL     1       2.064   8.123  19.821  0.00  0.00    +0.000 OA
ATOM     14  C   UNL     1      -0.412  13.061  21.905  0.00  0.00    +0.000 C 
ATOM     15  O   UNL     1       0.286  13.778  22.615  0.00  0.00    +0.000 OA
ATOM     16  N   UNL     1      -1.325  13.470  20.976  0.00  0.00    +0.000 N 
ATOM     17  C   UNL     1      -1.535  12.625  19.844  0.00  0.00    +0.000 C 
ATOM     18  O   UNL     1      -2.459  12.763  19.047  0.00  0.00    +0.000 OA
ENDROOT
BRANCH   1  22
ATOM     19  C   UNL     1       5.416   5.293  17.224  0.00  0.00    +0.000 A 
ATOM     20  C   UNL     1       4.481   4.844  18.133  0.00  0.00    +0.000 A 
ATOM     21  C   UNL     1       3.428   5.674  18.516  0.00  0.00    +0.000 A 
ATOM     22  C   UNL     1       3.285   6.995  18.070  0.00  0.00    +0.000 A 
ATOM     23  C   UNL     1       4.280   7.433  17.152  0.00  0.00    +0.000 A 
ATOM     24  C   UNL     1       5.318   6.589  16.709  0.00  0.00    +0.000 A 
BRANCH  19  26
ATOM     25  C   UNL     1       7.691   4.497  17.487  0.00  0.00    +0.000 C 
ATOM     26  O   UNL     1       6.406   4.381  16.869  0.00  0.00    +0.000 OA
ENDBRANCH  19  26
ENDBRANCH   1  22
BRANCH  16  27
ATOM     27  C   UNL     1      -2.164  14.580  21.551  0.00  0.00    +0.000 C 
BRANCH  27  28
ATOM     28  C   UNL     1      -3.313  14.188  22.569  0.00  0.00    +0.000 C 
BRANCH  28  29
ATOM     29  N   UNL     1      -3.316  14.903  23.896  0.00  0.00    +0.000 NA
ATOM     30  C   UNL     1      -2.220  15.882  24.012  0.00  0.00    +0.000 C 
ATOM     31  C   UNL     1      -4.573  15.647  24.111  0.00  0.00    +0.000 C 
ENDBRANCH  28  29
ENDBRANCH  27  28
ENDBRANCH  16  27
TORSDOF 5
ENDMDL
MODEL 9
REMARK VINA RESULT:      -7.5      2.946      4.569
REMARK  Name = 
REMARK  8 active torsions:
REMARK  status: ('A' for Active; 'I' for Inactive)
REMARK    1  A    between atoms: C_1  and  O_2
REMARK    2  A    between atoms: O_2  and  C_3
REMARK    3  A    between atoms: C_6  and  C_7
REMARK    4  A    between atoms: N_22  and  C_23
REMARK    5  A    between atoms: C_23  and  C_24
REMARK    6  A    between atoms: C_24  and  N_25
REMARK    7  A    between atoms: N_25  and  C_26
REMARK    8  A    between atoms: N_25  and  C_27
REMARK                            x       y       z     vdW  Elec       q    Type
REMARK                         _______ _______ _______ _____ _____    ______ ____
ROOT
ATOM      1  C   UNL     1       1.093   9.169  18.627  0.00  0.00    +0.000 A 
ATOM      2  N   UNL     1       0.888  10.211  19.437  0.00  0.00    +0.000 NA
ATOM      3  C   UNL     1      -0.418  10.640  19.161  0.00  0.00    +0.000 A 
ATOM      4  C   UNL     1      -1.304  11.660  19.701  0.00  0.00    +0.000 A 
ATOM      5  C   UNL     1      -2.687  11.669  19.334  0.00  0.00    +0.000 A 
ATOM      6  C   UNL     1      -3.014  10.880  18.238  0.00  0.00    +0.000 A 
ATOM      7  C   UNL     1      -4.239  11.030  17.685  0.00  0.00    +0.000 A 
ATOM      8  C   UNL     1      -4.209  11.509  16.395  0.00  0.00    +0.000 A 
ATOM      9  C   UNL     1      -3.162  11.065  15.599  0.00  0.00    +0.000 A 
ATOM     10  C   UNL     1      -2.371  10.039  16.112  0.00  0.00    +0.000 A 
ATOM     11  C   UNL     1      -2.096  10.170  17.469  0.00  0.00    +0.000 A 
ATOM     12  C   UNL     1      -0.870   9.898  18.077  0.00  0.00    +0.000 A 
ATOM     13  O   UNL     1       0.091   9.015  17.694  0.00  0.00    +0.000 OA
ATOM     14  C   UNL     1      -5.324  11.182  18.616  0.00  0.00    +0.000 C 
ATOM     15  O   UNL     1      -6.254  10.382  18.599  0.00  0.00    +0.000 OA
ATOM     16  N   UNL     1      -5.185  12.258  19.444  0.00  0.00    +0.000 N 
ATOM     17  C   UNL     1      -3.857  12.652  19.792  0.00  0.00    +0.000 C 
ATOM     18  O   UNL     1      -3.581  13.709  20.353  0.00  0.00    +0.000 OA
ENDROOT
BRANCH   1  22
ATOM     19  C   UNL     1       4.107   6.044  18.440  0.00  0.00    +0.000 A 
ATOM     20  C   UNL     1       3.227   6.097  19.501  0.00  0.00    +0.000 A 
ATOM     21  C   UNL     1       2.253   7.093  19.547  0.00  0.00    +0.000 A 
ATOM     22  C   UNL     1       2.142   8.109  18.589  0.00  0.00    +0.000 A 
ATOM     23  C   UNL     1       3.080   8.038  17.521  0.00  0.00    +0.000 A 
ATOM     24  C   UNL     1       4.034   7.006  17.427  0.00  0.00    +0.000 A 
BRANCH  19  26
ATOM     25  C   UNL     1       4.520   3.661  18.627  0.00  0.00    +0.000 C 
ATOM     26  O   UNL     1       5.018   4.991  18.457  0.00  0.00    +0.000 OA
ENDBRANCH  19  26
ENDBRANCH   1  22
BRANCH  16  27
ATOM     27  C   UNL     1      -6.491  13.003  19.522  0.00  0.00    +0.000 C 
BRANCH  27  28
ATOM     28  C   UNL     1      -7.103  13.568  18.174  0.00  0.00    +0.000 C 
BRANCH  28  29
ATOM     29  N   UNL     1      -6.776  14.998  17.827  0.00  0.00    +0.000 NA
ATOM     30  C   UNL     1      -7.165  15.346  16.448  0.00  0.00    +0.000 C 
ATOM     31  C   UNL     1      -7.473  15.947  18.716  0.00  0.00    +0.000 C 
ENDBRANCH  28  29
ENDBRANCH  27  28
ENDBRANCH  16  27
TORSDOF 5
ENDMDL
