MODEL 1
REMARK VINA RESULT:      -8.7      0.000      0.000
REMARK  Name = 
REMARK  9 active torsions:
REMARK  status: ('A' for Active; 'I' for Inactive)
REMARK    1  A    between atoms: C_1  and  N_2
REMARK    2  A    between atoms: C_4  and  C_5
REMARK    3  A    between atoms: C_5  and  O_7
REMARK    4  A    between atoms: C_8  and  C_9
REMARK    5  A    between atoms: C_12  and  N_13
REMARK    6  A    between atoms: N_13  and  S_14
REMARK    7  A    between atoms: S_14  and  C_17
REMARK    8  A    between atoms: C_22  and  O_23
REMARK    9  A    between atoms: O_23  and  C_24
REMARK                            x       y       z     vdW  Elec       q    Type
REMARK                         _______ _______ _______ _____ _____    ______ ____
ROOT
ATOM      1  C   UNL     1       1.511   8.389  19.796  0.00  0.00    +0.000 A 
ATOM      2  C   UNL     1       1.521   7.333  20.718  0.00  0.00    +0.000 A 
ATOM      3  C   UNL     1       2.127   6.112  20.399  0.00  0.00    +0.000 A 
ATOM      4  C   UNL     1       2.717   5.939  19.150  0.00  0.00    +0.000 A 
ATOM      5  C   UNL     1       2.743   6.985  18.235  0.00  0.00    +0.000 A 
ATOM      6  C   UNL     1       2.135   8.200  18.552  0.00  0.00    +0.000 A 
ENDROOT
BRANCH   1  11
ATOM      7  C   UNL     1      -0.513  12.618  18.770  0.00  0.00    +0.000 C 
ATOM      8  N   UNL     1      -0.114  11.509  19.608  0.00  0.00    +0.000 N 
ATOM      9  C   UNL     1      -0.448  11.290  20.904  0.00  0.00    +0.000 A 
ATOM     10  C   UNL     1       0.139  10.088  21.259  0.00  0.00    +0.000 A 
ATOM     11  C   UNL     1       0.800   9.642  20.068  0.00  0.00    +0.000 A 
ATOM     12  N   UNL     1       0.652  10.543  19.081  0.00  0.00    +0.000 NA
BRANCH  10  13
ATOM     13  C   UNL     1       0.097   9.460  22.568  0.00  0.00    +0.000 C 
ATOM     14  O   UNL     1       0.913   9.657  23.452  0.00  0.00    +0.000 OA
BRANCH  13  15
ATOM     15  O   UNL     1      -0.935   8.590  22.738  0.00  0.00    +0.000 OA
ATOM     16  H   UNL     1      -1.792   8.973  22.479  0.00  0.00    +0.000 HD
ENDBRANCH  13  15
ENDBRANCH  10  13
ENDBRANCH   1  11
BRANCH   4  17
ATOM     17  N   UNL     1       3.317   4.709  18.810  0.00  0.00    +0.000 N 
ATOM     18  H   UNL     1       2.757   3.902  18.552  0.00  0.00    +0.000 HD
BRANCH  17  19
ATOM     19  S   UNL     1       4.973   4.501  18.921  0.00  0.00    +0.000 S 
ATOM     20  O   UNL     1       5.492   5.656  19.629  0.00  0.00    +0.000 OA
ATOM     21  O   UNL     1       5.223   3.165  19.422  0.00  0.00    +0.000 OA
BRANCH  19  22
ATOM     22  C   UNL     1       5.572   4.590  17.244  0.00  0.00    +0.000 A 
ATOM     23  C   UNL     1       4.771   4.006  16.248  0.00  0.00    +0.000 A 
ATOM     24  C   UNL     1       5.205   3.970  14.927  0.00  0.00    +0.000 A 
ATOM     25  C   UNL     1       6.458   4.473  14.603  0.00  0.00    +0.000 A 
ATOM     26  C   UNL     1       7.268   5.039  15.592  0.00  0.00    +0.000 A 
ATOM     27  C   UNL     1       6.817   5.158  16.916  0.00  0.00    +0.000 A 
BRANCH  27  28
ATOM     28  O   UNL     1       7.514   5.819  17.888  0.00  0.00    +0.000 OA
BRANCH  28  29
ATOM     29  C   UNL     1       7.665   7.233  17.783  0.00  0.00    +0.000 C 
ATOM     30  F   UNL     1       8.294   7.611  16.647  0.00  0.00    +0.000 F 
ATOM     31  F   UNL     1       6.437   7.796  17.763  0.00  0.00    +0.000 F 
ATOM     32  F   UNL     1       8.341   7.717  18.846  0.00  0.00    +0.000 F 
ENDBRANCH  28  29
ENDBRANCH  27  28
ENDBRANCH  19  22
ENDBRANCH  17  19
ENDBRANCH   4  17
TORSDOF 8
ENDMDL
MODEL 2
REMARK VINA RESULT:      -8.7      1.927      2.501
REMARK  Name = 
REMARK  9 active torsions:
REMARK  status: ('A' for Active; 'I' for Inactive)
REMARK    1  A    between atoms: C_1  and  N_2
REMARK    2  A    between atoms: C_4  and  C_5
REMARK    3  A    between atoms: C_5  and  O_7
REMARK    4  A    between atoms: C_8  and  C_9
REMARK    5  A    between atoms: C_12  and  N_13
REMARK    6  A    between atoms: N_13  and  S_14
REMARK    7  A    between atoms: S_14  and  C_17
REMARK    8  A    between atoms: C_22  and  O_23
REMARK    9  A    between atoms: O_23  and  C_24
REMARK                            x       y       z     vdW  Elec       q    Type
REMARK                         _______ _______ _______ _____ _____    ______ ____
ROOT
ATOM      1  C   UNL     1       1.153   9.060  18.774  0.00  0.00    +0.000 A 
ATOM      2  C   UNL     1       2.039   8.618  17.782  0.00  0.00    +0.000 A 
ATOM      3  C   UNL     1       2.937   7.576  18.038  0.00  0.00    +0.000 A 
ATOM      4  C   UNL     1       2.961   6.977  19.295  0.00  0.00    +0.000 A 
ATOM      5  C   UNL     1       2.070   7.382  20.282  0.00  0.00    +0.000 A 
ATOM      6  C   UNL     1       1.178   8.425  20.026  0.00  0.00    +0.000 A 
ENDROOT
BRANCH   1  11
ATOM      7  C   UNL     1      -2.762  11.394  17.273  0.00  0.00    +0.000 C 
ATOM      8  N   UNL     1      -1.474  11.243  17.913  0.00  0.00    +0.000 N 
ATOM      9  C   UNL     1      -0.797  12.168  18.636  0.00  0.00    +0.000 A 
ATOM     10  C   UNL     1       0.362  11.549  19.071  0.00  0.00    +0.000 A 
ATOM     11  C   UNL     1       0.272  10.213  18.562  0.00  0.00    +0.000 A 
ATOM     12  N   UNL     1      -0.849  10.060  17.834  0.00  0.00    +0.000 NA
BRANCH  10  13
ATOM     13  C   UNL     1       1.428  12.159  19.847  0.00  0.00    +0.000 C 
ATOM     14  O   UNL     1       2.293  12.880  19.380  0.00  0.00    +0.000 OA
BRANCH  13  15
ATOM     15  O   UNL     1       1.408  11.841  21.170  0.00  0.00    +0.000 OA
ATOM     16  H   UNL     1       1.251  10.893  21.323  0.00  0.00    +0.000 HD
ENDBRANCH  13  15
ENDBRANCH  10  13
ENDBRANCH   1  11
BRANCH   4  17
ATOM     17  N   UNL     1       3.871   5.937  19.571  0.00  0.00    +0.000 N 
ATOM     18  H   UNL     1       4.610   6.052  20.259  0.00  0.00    +0.000 HD
BRANCH  17  19
ATOM     19  S   UNL     1       3.835   4.510  18.700  0.00  0.00    +0.000 S 
ATOM     20  O   UNL     1       4.481   3.504  19.522  0.00  0.00    +0.000 OA
ATOM     21  O   UNL     1       2.481   4.307  18.228  0.00  0.00    +0.000 OA
BRANCH  19  22
ATOM     22  C   UNL     1       4.883   4.796  17.286  0.00  0.00    +0.000 A 
ATOM     23  C   UNL     1       4.457   4.265  16.058  0.00  0.00    +0.000 A 
ATOM     24  C   UNL     1       5.256   4.383  14.925  0.00  0.00    +0.000 A 
ATOM     25  C   UNL     1       6.502   4.987  15.024  0.00  0.00    +0.000 A 
ATOM     26  C   UNL     1       6.941   5.501  16.247  0.00  0.00    +0.000 A 
ATOM     27  C   UNL     1       6.117   5.465  17.384  0.00  0.00    +0.000 A 
BRANCH  27  28
ATOM     28  O   UNL     1       6.446   6.068  18.566  0.00  0.00    +0.000 OA
BRANCH  28  29
ATOM     29  C   UNL     1       7.744   5.845  19.112  0.00  0.00    +0.000 C 
ATOM     30  F   UNL     1       7.722   5.615  20.445  0.00  0.00    +0.000 F 
ATOM     31  F   UNL     1       8.272   4.746  18.528  0.00  0.00    +0.000 F 
ATOM     32  F   UNL     1       8.552   6.895  18.857  0.00  0.00    +0.000 F 
ENDBRANCH  28  29
ENDBRANCH  27  28
ENDBRANCH  19  22
ENDBRANCH  17  19
ENDBRANCH   4  17
TORSDOF 8
ENDMDL
MODEL 3
REMARK VINA RESULT:      -8.6      2.254      2.678
REMARK  Name = 
REMARK  9 active torsions:
REMARK  status: ('A' for Active; 'I' for Inactive)
REMARK    1  A    between atoms: C_1  and  N_2
REMARK    2  A    between atoms: C_4  and  C_5
REMARK    3  A    between atoms: C_5  and  O_7
REMARK    4  A    between atoms: C_8  and  C_9
REMARK    5  A    between atoms: C_12  and  N_13
REMARK    6  A    between atoms: N_13  and  S_14
REMARK    7  A    between atoms: S_14  and  C_17
REMARK    8  A    between atoms: C_22  and  O_23
REMARK    9  A    between atoms: O_23  and  C_24
REMARK                            x       y       z     vdW  Elec       q    Type
REMARK                         _______ _______ _______ _____ _____    ______ ____
ROOT
ATOM      1  C   UNL     1       1.321   9.236  18.862  0.00  0.00    +0.000 A 
ATOM      2  C   UNL     1       1.292   8.500  20.055  0.00  0.00    +0.000 A 
ATOM      3  C   UNL     1       2.088   7.359  20.211  0.00  0.00    +0.000 A 
ATOM      4  C   UNL     1       2.911   6.943  19.167  0.00  0.00    +0.000 A 
ATOM      5  C   UNL     1       2.975   7.677  17.988  0.00  0.00    +0.000 A 
ATOM      6  C   UNL     1       2.177   8.812  17.833  0.00  0.00    +0.000 A 
ENDROOT
BRANCH   1  11
ATOM      7  C   UNL     1      -2.873  11.502  18.311  0.00  0.00    +0.000 C 
ATOM      8  N   UNL     1      -1.435  11.383  18.413  0.00  0.00    +0.000 N 
ATOM      9  C   UNL     1      -0.524  12.385  18.466  0.00  0.00    +0.000 A 
ATOM     10  C   UNL     1       0.713  11.779  18.598  0.00  0.00    +0.000 A 
ATOM     11  C   UNL     1       0.427  10.376  18.639  0.00  0.00    +0.000 A 
ATOM     12  N   UNL     1      -0.893  10.160  18.496  0.00  0.00    +0.000 NA
BRANCH  10  13
ATOM     13  C   UNL     1       2.001  12.449  18.651  0.00  0.00    +0.000 C 
ATOM     14  O   UNL     1       2.423  13.053  19.622  0.00  0.00    +0.000 OA
BRANCH  13  15
ATOM     15  O   UNL     1       2.718  12.374  17.497  0.00  0.00    +0.000 OA
ATOM     16  H   UNL     1       2.307  11.783  16.841  0.00  0.00    +0.000 HD
ENDBRANCH  13  15
ENDBRANCH  10  13
ENDBRANCH   1  11
BRANCH   4  17
ATOM     17  N   UNL     1       3.706   5.787  19.304  0.00  0.00    +0.000 N 
ATOM     18  H   UNL     1       4.474   5.750  19.967  0.00  0.00    +0.000 HD
BRANCH  17  19
ATOM     19  S   UNL     1       3.481   4.467  18.302  0.00  0.00    +0.000 S 
ATOM     20  O   UNL     1       3.684   3.285  19.118  0.00  0.00    +0.000 OA
ATOM     21  O   UNL     1       2.235   4.654  17.587  0.00  0.00    +0.000 OA
BRANCH  19  22
ATOM     22  C   UNL     1       4.818   4.538  17.124  0.00  0.00    +0.000 A 
ATOM     23  C   UNL     1       4.472   4.503  15.763  0.00  0.00    +0.000 A 
ATOM     24  C   UNL     1       5.462   4.481  14.786  0.00  0.00    +0.000 A 
ATOM     25  C   UNL     1       6.797   4.444  15.163  0.00  0.00    +0.000 A 
ATOM     26  C   UNL     1       7.148   4.458  16.516  0.00  0.00    +0.000 A 
ATOM     27  C   UNL     1       6.169   4.563  17.516  0.00  0.00    +0.000 A 
BRANCH  27  28
ATOM     28  O   UNL     1       6.466   4.712  18.842  0.00  0.00    +0.000 OA
BRANCH  28  29
ATOM     29  C   UNL     1       7.580   5.524  19.208  0.00  0.00    +0.000 C 
ATOM     30  F   UNL     1       8.768   4.951  18.910  0.00  0.00    +0.000 F 
ATOM     31  F   UNL     1       7.513   6.683  18.515  0.00  0.00    +0.000 F 
ATOM     32  F   UNL     1       7.544   5.810  20.526  0.00  0.00    +0.000 F 
ENDBRANCH  28  29
ENDBRANCH  27  28
ENDBRANCH  19  22
ENDBRANCH  17  19
ENDBRANCH   4  17
TORSDOF 8
ENDMDL
MODEL 4
REMARK VINA RESULT:      -8.6      3.950      9.162
REMARK  Name = 
REMARK  9 active torsions:
REMARK  status: ('A' for Active; 'I' for Inactive)
REMARK    1  A    between atoms: C_1  and  N_2
REMARK    2  A    between atoms: C_4  and  C_5
REMARK    3  A    between atoms: C_5  and  O_7
REMARK    4  A    between atoms: C_8  and  C_9
REMARK    5  A    between atoms: C_12  and  N_13
REMARK    6  A    between atoms: N_13  and  S_14
REMARK    7  A    between atoms: S_14  and  C_17
REMARK    8  A    between atoms: C_22  and  O_23
REMARK    9  A    between atoms: O_23  and  C_24
REMARK                            x       y       z     vdW  Elec       q    Type
REMARK                         _______ _______ _______ _____ _____    ______ ____
ROOT
ATOM      1  C   UNL     1       2.631   7.085  18.390  0.00  0.00    +0.000 A 
ATOM      2  C   UNL     1       2.493   8.164  17.506  0.00  0.00    +0.000 A 
ATOM      3  C   UNL     1       1.939   9.375  17.937  0.00  0.00    +0.000 A 
ATOM      4  C   UNL     1       1.509   9.508  19.255  0.00  0.00    +0.000 A 
ATOM      5  C   UNL     1       1.664   8.458  20.153  0.00  0.00    +0.000 A 
ATOM      6  C   UNL     1       2.213   7.250  19.720  0.00  0.00    +0.000 A 
ENDROOT
BRANCH   1  11
ATOM      7  C   UNL     1       2.493   2.342  17.673  0.00  0.00    +0.000 C 
ATOM      8  N   UNL     1       3.046   3.676  17.605  0.00  0.00    +0.000 N 
ATOM      9  C   UNL     1       4.158   4.077  16.940  0.00  0.00    +0.000 A 
ATOM     10  C   UNL     1       4.258   5.443  17.140  0.00  0.00    +0.000 A 
ATOM     11  C   UNL     1       3.117   5.777  17.939  0.00  0.00    +0.000 A 
ATOM     12  N   UNL     1       2.407   4.673  18.232  0.00  0.00    +0.000 NA
BRANCH  10  13
ATOM     13  C   UNL     1       5.318   6.310  16.656  0.00  0.00    +0.000 C 
ATOM     14  O   UNL     1       6.262   6.685  17.329  0.00  0.00    +0.000 OA
BRANCH  13  15
ATOM     15  O   UNL     1       5.167   6.710  15.364  0.00  0.00    +0.000 OA
ATOM     16  H   UNL     1       4.232   6.810  15.112  0.00  0.00    +0.000 HD
ENDBRANCH  13  15
ENDBRANCH  10  13
ENDBRANCH   1  11
BRANCH   4  17
ATOM     17  N   UNL     1       0.935  10.716  19.699  0.00  0.00    +0.000 N 
ATOM     18  H   UNL     1       1.450  11.358  20.294  0.00  0.00    +0.000 HD
BRANCH  17  19
ATOM     19  S   UNL     1      -0.658  11.089  19.350  0.00  0.00    +0.000 S 
ATOM     20  O   UNL     1      -0.644  11.888  18.140  0.00  0.00    +0.000 OA
ATOM     21  O   UNL     1      -1.427   9.862  19.405  0.00  0.00    +0.000 OA
BRANCH  19  22
ATOM     22  C   UNL     1      -1.196  12.147  20.681  0.00  0.00    +0.000 A 
ATOM     23  C   UNL     1      -2.088  13.182  20.354  0.00  0.00    +0.000 A 
ATOM     24  C   UNL     1      -2.495  14.093  21.323  0.00  0.00    +0.000 A 
ATOM     25  C   UNL     1      -1.977  14.004  22.609  0.00  0.00    +0.000 A 
ATOM     26  C   UNL     1      -1.074  12.988  22.936  0.00  0.00    +0.000 A 
ATOM     27  C   UNL     1      -0.713  12.010  21.996  0.00  0.00    +0.000 A 
BRANCH  27  28
ATOM     28  O   UNL     1       0.061  10.926  22.303  0.00  0.00    +0.000 OA
BRANCH  28  29
ATOM     29  C   UNL     1      -0.530   9.843  23.019  0.00  0.00    +0.000 C 
ATOM     30  F   UNL     1       0.220   9.437  24.069  0.00  0.00    +0.000 F 
ATOM     31  F   UNL     1      -1.718  10.253  23.514  0.00  0.00    +0.000 F 
ATOM     32  F   UNL     1      -0.747   8.795  22.197  0.00  0.00    +0.000 F 
ENDBRANCH  28  29
ENDBRANCH  27  28
ENDBRANCH  19  22
ENDBRANCH  17  19
ENDBRANCH   4  17
TORSDOF 8
ENDMDL
MODEL 5
REMARK VINA RESULT:      -8.6      1.905      2.271
REMARK  Name = 
REMARK  9 active torsions:
REMARK  status: ('A' for Active; 'I' for Inactive)
REMARK    1  A    between atoms: C_1  and  N_2
REMARK    2  A    between atoms: C_4  and  C_5
REMARK    3  A    between atoms: C_5  and  O_7
REMARK    4  A    between atoms: C_8  and  C_9
REMARK    5  A    between atoms: C_12  and  N_13
REMARK    6  A    between atoms: N_13  and  S_14
REMARK    7  A    between atoms: S_14  and  C_17
REMARK    8  A    between atoms: C_22  and  O_23
REMARK    9  A    between atoms: O_23  and  C_24
REMARK                            x       y       z     vdW  Elec       q    Type
REMARK                         _______ _______ _______ _____ _____    ______ ____
ROOT
ATOM      1  C   UNL     1       1.246   9.107  18.888  0.00  0.00    +0.000 A 
ATOM      2  C   UNL     1       1.279   8.397  20.096  0.00  0.00    +0.000 A 
ATOM      3  C   UNL     1       2.112   7.283  20.248  0.00  0.00    +0.000 A 
ATOM      4  C   UNL     1       2.911   6.868  19.186  0.00  0.00    +0.000 A 
ATOM      5  C   UNL     1       2.914   7.576  17.991  0.00  0.00    +0.000 A 
ATOM      6  C   UNL     1       2.079   8.684  17.839  0.00  0.00    +0.000 A 
ENDROOT
BRANCH   1  11
ATOM      7  C   UNL     1      -2.660  11.304  17.172  0.00  0.00    +0.000 C 
ATOM      8  N   UNL     1      -1.431  11.185  17.924  0.00  0.00    +0.000 N 
ATOM      9  C   UNL     1      -0.890  12.092  18.774  0.00  0.00    +0.000 A 
ATOM     10  C   UNL     1       0.262  11.513  19.279  0.00  0.00    +0.000 A 
ATOM     11  C   UNL     1       0.312  10.216  18.671  0.00  0.00    +0.000 A 
ATOM     12  N   UNL     1      -0.721  10.051  17.826  0.00  0.00    +0.000 NA
BRANCH  10  13
ATOM     13  C   UNL     1       1.205  12.126  20.198  0.00  0.00    +0.000 C 
ATOM     14  O   UNL     1       2.107  12.874  19.861  0.00  0.00    +0.000 OA
BRANCH  13  15
ATOM     15  O   UNL     1       1.023  11.777  21.500  0.00  0.00    +0.000 OA
ATOM     16  H   UNL     1       0.664  12.507  22.035  0.00  0.00    +0.000 HD
ENDBRANCH  13  15
ENDBRANCH  10  13
ENDBRANCH   1  11
BRANCH   4  17
ATOM     17  N   UNL     1       3.743   5.737  19.320  0.00  0.00    +0.000 N 
ATOM     18  H   UNL     1       4.488   5.710  20.010  0.00  0.00    +0.000 HD
BRANCH  17  19
ATOM     19  S   UNL     1       3.604   4.439  18.275  0.00  0.00    +0.000 S 
ATOM     20  O   UNL     1       3.952   3.253  19.034  0.00  0.00    +0.000 OA
ATOM     21  O   UNL     1       2.317   4.532  17.616  0.00  0.00    +0.000 OA
BRANCH  19  22
ATOM     22  C   UNL     1       4.878   4.682  17.052  0.00  0.00    +0.000 A 
ATOM     23  C   UNL     1       4.558   4.357  15.723  0.00  0.00    +0.000 A 
ATOM     24  C   UNL     1       5.522   4.449  14.724  0.00  0.00    +0.000 A 
ATOM     25  C   UNL     1       6.819   4.820  15.054  0.00  0.00    +0.000 A 
ATOM     26  C   UNL     1       7.149   5.126  16.377  0.00  0.00    +0.000 A 
ATOM     27  C   UNL     1       6.173   5.118  17.387  0.00  0.00    +0.000 A 
BRANCH  27  28
ATOM     28  O   UNL     1       6.416   5.535  18.666  0.00  0.00    +0.000 OA
BRANCH  28  29
ATOM     29  C   UNL     1       7.768   5.667  19.100  0.00  0.00    +0.000 C 
ATOM     30  F   UNL     1       8.340   6.823  18.693  0.00  0.00    +0.000 F 
ATOM     31  F   UNL     1       7.788   5.667  20.451  0.00  0.00    +0.000 F 
ATOM     32  F   UNL     1       8.509   4.627  18.661  0.00  0.00    +0.000 F 
ENDBRANCH  28  29
ENDBRANCH  27  28
ENDBRANCH  19  22
ENDBRANCH  17  19
ENDBRANCH   4  17
TORSDOF 8
ENDMDL
MODEL 6
REMARK VINA RESULT:      -8.6      1.900      2.654
REMARK  Name = 
REMARK  9 active torsions:
REMARK  status: ('A' for Active; 'I' for Inactive)
REMARK    1  A    between atoms: C_1  and  N_2
REMARK    2  A    between atoms: C_4  and  C_5
REMARK    3  A    between atoms: C_5  and  O_7
REMARK    4  A    between atoms: C_8  and  C_9
REMARK    5  A    between atoms: C_12  and  N_13
REMARK    6  A    between atoms: N_13  and  S_14
REMARK    7  A    between atoms: S_14  and  C_17
REMARK    8  A    between atoms: C_22  and  O_23
REMARK    9  A    between atoms: O_23  and  C_24
REMARK                            x       y       z     vdW  Elec       q    Type
REMARK                         _______ _______ _______ _____ _____    ______ ____
ROOT
ATOM      1  C   UNL     1       1.617   8.796  19.552  0.00  0.00    +0.000 A 
ATOM      2  C   UNL     1       1.789   7.639  20.325  0.00  0.00    +0.000 A 
ATOM      3  C   UNL     1       2.213   6.442  19.736  0.00  0.00    +0.000 A 
ATOM      4  C   UNL     1       2.458   6.395  18.366  0.00  0.00    +0.000 A 
ATOM      5  C   UNL     1       2.321   7.539  17.588  0.00  0.00    +0.000 A 
ATOM      6  C   UNL     1       1.893   8.730  18.176  0.00  0.00    +0.000 A 
ENDROOT
BRANCH   1  11
ATOM      7  C   UNL     1       0.470  13.453  19.687  0.00  0.00    +0.000 C 
ATOM      8  N   UNL     1       0.555  12.096  20.178  0.00  0.00    +0.000 N 
ATOM      9  C   UNL     1      -0.001  11.587  21.304  0.00  0.00    +0.000 A 
ATOM     10  C   UNL     1       0.326  10.242  21.326  0.00  0.00    +0.000 A 
ATOM     11  C   UNL     1       1.081  10.033  20.126  0.00  0.00    +0.000 A 
ATOM     12  N   UNL     1       1.229  11.189  19.455  0.00  0.00    +0.000 NA
BRANCH  10  13
ATOM     13  C   UNL     1      -0.013   9.288  22.368  0.00  0.00    +0.000 C 
ATOM     14  O   UNL     1      -0.780   8.352  22.221  0.00  0.00    +0.000 OA
BRANCH  13  15
ATOM     15  O   UNL     1       0.585   9.533  23.565  0.00  0.00    +0.000 OA
ATOM     16  H   UNL     1       1.555   9.575  23.497  0.00  0.00    +0.000 HD
ENDBRANCH  13  15
ENDBRANCH  10  13
ENDBRANCH   1  11
BRANCH   4  17
ATOM     17  N   UNL     1       2.870   5.192  17.757  0.00  0.00    +0.000 N 
ATOM     18  H   UNL     1       2.421   4.846  16.915  0.00  0.00    +0.000 HD
BRANCH  17  19
ATOM     19  S   UNL     1       4.047   4.233  18.460  0.00  0.00    +0.000 S 
ATOM     20  O   UNL     1       3.751   4.183  19.879  0.00  0.00    +0.000 OA
ATOM     21  O   UNL     1       4.144   3.009  17.691  0.00  0.00    +0.000 OA
BRANCH  19  22
ATOM     22  C   UNL     1       5.570   5.139  18.264  0.00  0.00    +0.000 A 
ATOM     23  C   UNL     1       6.377   5.286  19.405  0.00  0.00    +0.000 A 
ATOM     24  C   UNL     1       7.544   6.041  19.350  0.00  0.00    +0.000 A 
ATOM     25  C   UNL     1       7.884   6.692  18.171  0.00  0.00    +0.000 A 
ATOM     26  C   UNL     1       7.076   6.567  17.038  0.00  0.00    +0.000 A 
ATOM     27  C   UNL     1       5.938   5.744  17.048  0.00  0.00    +0.000 A 
BRANCH  27  28
ATOM     28  O   UNL     1       5.191   5.485  15.933  0.00  0.00    +0.000 OA
BRANCH  28  29
ATOM     29  C   UNL     1       5.724   4.613  14.938  0.00  0.00    +0.000 C 
ATOM     30  F   UNL     1       4.806   4.243  14.016  0.00  0.00    +0.000 F 
ATOM     31  F   UNL     1       6.708   5.265  14.279  0.00  0.00    +0.000 F 
ATOM     32  F   UNL     1       6.250   3.509  15.508  0.00  0.00    +0.000 F 
ENDBRANCH  28  29
ENDBRANCH  27  28
ENDBRANCH  19  22
ENDBRANCH  17  19
ENDBRANCH   4  17
TORSDOF 8
ENDMDL
MODEL 7
REMARK VINA RESULT:      -8.5      2.138      2.717
REMARK  Name = 
REMARK  9 active torsions:
REMARK  status: ('A' for Active; 'I' for Inactive)
REMARK    1  A    between atoms: C_1  and  N_2
REMARK    2  A    between atoms: C_4  and  C_5
REMARK    3  A    between atoms: C_5  and  O_7
REMARK    4  A    between atoms: C_8  and  C_9
REMARK    5  A    between atoms: C_12  and  N_13
REMARK    6  A    between atoms: N_13  and  S_14
REMARK    7  A    between atoms: S_14  and  C_17
REMARK    8  A    between atoms: C_22  and  O_23
REMARK    9  A    between atoms: O_23  and  C_24
REMARK                            x       y       z     vdW  Elec       q    Type
REMARK                         _______ _______ _______ _____ _____    ______ ____
ROOT
ATOM      1  C   UNL     1       1.656   7.526  20.096  0.00  0.00    +0.000 A 
ATOM      2  C   UNL     1       2.523   7.581  18.996  0.00  0.00    +0.000 A 
ATOM      3  C   UNL     1       3.300   6.472  18.643  0.00  0.00    +0.000 A 
ATOM      4  C   UNL     1       3.221   5.304  19.397  0.00  0.00    +0.000 A 
ATOM      5  C   UNL     1       2.345   5.221  20.473  0.00  0.00    +0.000 A 
ATOM      6  C   UNL     1       1.574   6.330  20.827  0.00  0.00    +0.000 A 
ENDROOT
BRANCH   1  11
ATOM      7  C   UNL     1      -0.778  10.289  23.174  0.00  0.00    +0.000 C 
ATOM      8  N   UNL     1      -0.158   9.936  21.916  0.00  0.00    +0.000 N 
ATOM      9  C   UNL     1       0.004  10.723  20.825  0.00  0.00    +0.000 A 
ATOM     10  C   UNL     1       0.681   9.958  19.891  0.00  0.00    +0.000 A 
ATOM     11  C   UNL     1       0.905   8.703  20.544  0.00  0.00    +0.000 A 
ATOM     12  N   UNL     1       0.358   8.707  21.773  0.00  0.00    +0.000 NA
BRANCH  10  13
ATOM     13  C   UNL     1       1.042  10.362  18.543  0.00  0.00    +0.000 C 
ATOM     14  O   UNL     1       2.020  11.034  18.265  0.00  0.00    +0.000 OA
BRANCH  13  15
ATOM     15  O   UNL     1       0.172   9.946  17.583  0.00  0.00    +0.000 OA
ATOM     16  H   UNL     1      -0.157   9.043  17.743  0.00  0.00    +0.000 HD
ENDBRANCH  13  15
ENDBRANCH  10  13
ENDBRANCH   1  11
BRANCH   4  17
ATOM     17  N   UNL     1       4.010   4.185  19.062  0.00  0.00    +0.000 N 
ATOM     18  H   UNL     1       4.787   3.893  19.647  0.00  0.00    +0.000 HD
BRANCH  17  19
ATOM     19  S   UNL     1       3.762   3.356  17.630  0.00  0.00    +0.000 S 
ATOM     20  O   UNL     1       4.069   1.964  17.895  0.00  0.00    +0.000 OA
ATOM     21  O   UNL     1       2.460   3.731  17.116  0.00  0.00    +0.000 OA
BRANCH  19  22
ATOM     22  C   UNL     1       5.004   3.973  16.510  0.00  0.00    +0.000 A 
ATOM     23  C   UNL     1       4.654   4.058  15.152  0.00  0.00    +0.000 A 
ATOM     24  C   UNL     1       5.592   4.459  14.206  0.00  0.00    +0.000 A 
ATOM     25  C   UNL     1       6.894   4.730  14.604  0.00  0.00    +0.000 A 
ATOM     26  C   UNL     1       7.255   4.628  15.951  0.00  0.00    +0.000 A 
ATOM     27  C   UNL     1       6.305   4.304  16.932  0.00  0.00    +0.000 A 
BRANCH  27  28
ATOM     28  O   UNL     1       6.576   4.320  18.272  0.00  0.00    +0.000 OA
BRANCH  28  29
ATOM     29  C   UNL     1       7.067   5.524  18.858  0.00  0.00    +0.000 C 
ATOM     30  F   UNL     1       8.417   5.610  18.829  0.00  0.00    +0.000 F 
ATOM     31  F   UNL     1       6.587   6.572  18.152  0.00  0.00    +0.000 F 
ATOM     32  F   UNL     1       6.643   5.636  20.134  0.00  0.00    +0.000 F 
ENDBRANCH  28  29
ENDBRANCH  27  28
ENDBRANCH  19  22
ENDBRANCH  17  19
ENDBRANCH   4  17
TORSDOF 8
ENDMDL
MODEL 8
REMARK VINA RESULT:      -8.5      0.391      1.100
REMARK  Name = 
REMARK  9 active torsions:
REMARK  status: ('A' for Active; 'I' for Inactive)
REMARK    1  A    between atoms: C_1  and  N_2
REMARK    2  A    between atoms: C_4  and  C_5
REMARK    3  A    between atoms: C_5  and  O_7
REMARK    4  A    between atoms: C_8  and  C_9
REMARK    5  A    between atoms: C_12  and  N_13
REMARK    6  A    between atoms: N_13  and  S_14
REMARK    7  A    between atoms: S_14  and  C_17
REMARK    8  A    between atoms: C_22  and  O_23
REMARK    9  A    between atoms: O_23  and  C_24
REMARK                            x       y       z     vdW  Elec       q    Type
REMARK                         _______ _______ _______ _____ _____    ______ ____
ROOT
ATOM      1  C   UNL     1       1.559   8.257  19.660  0.00  0.00    +0.000 A 
ATOM      2  C   UNL     1       2.258   8.042  18.464  0.00  0.00    +0.000 A 
ATOM      3  C   UNL     1       2.866   6.809  18.202  0.00  0.00    +0.000 A 
ATOM      4  C   UNL     1       2.786   5.786  19.143  0.00  0.00    +0.000 A 
ATOM      5  C   UNL     1       2.073   5.971  20.322  0.00  0.00    +0.000 A 
ATOM      6  C   UNL     1       1.472   7.203  20.583  0.00  0.00    +0.000 A 
ENDROOT
BRANCH   1  11
ATOM      7  C   UNL     1      -0.399  12.559  18.831  0.00  0.00    +0.000 C 
ATOM      8  N   UNL     1       0.112  11.468  19.632  0.00  0.00    +0.000 N 
ATOM      9  C   UNL     1       0.061  11.338  20.980  0.00  0.00    +0.000 A 
ATOM     10  C   UNL     1       0.643  10.117  21.275  0.00  0.00    +0.000 A 
ATOM     11  C   UNL     1       0.998   9.568  20.000  0.00  0.00    +0.000 A 
ATOM     12  N   UNL     1       0.686  10.427  19.013  0.00  0.00    +0.000 NA
BRANCH  10  13
ATOM     13  C   UNL     1       0.856   9.560  22.599  0.00  0.00    +0.000 C 
ATOM     14  O   UNL     1      -0.038   9.254  23.370  0.00  0.00    +0.000 OA
BRANCH  13  15
ATOM     15  O   UNL     1       2.166   9.421  22.942  0.00  0.00    +0.000 OA
ATOM     16  H   UNL     1       2.667   8.896  22.293  0.00  0.00    +0.000 HD
ENDBRANCH  13  15
ENDBRANCH  10  13
ENDBRANCH   1  11
BRANCH   4  17
ATOM     17  N   UNL     1       3.408   4.544  18.900  0.00  0.00    +0.000 N 
ATOM     18  H   UNL     1       2.861   3.702  18.749  0.00  0.00    +0.000 HD
BRANCH  17  19
ATOM     19  S   UNL     1       5.072   4.391  18.957  0.00  0.00    +0.000 S 
ATOM     20  O   UNL     1       5.575   5.554  19.663  0.00  0.00    +0.000 OA
ATOM     21  O   UNL     1       5.383   3.058  19.432  0.00  0.00    +0.000 OA
BRANCH  19  22
ATOM     22  C   UNL     1       5.614   4.521  17.263  0.00  0.00    +0.000 A 
ATOM     23  C   UNL     1       4.791   3.942  16.283  0.00  0.00    +0.000 A 
ATOM     24  C   UNL     1       5.182   3.938  14.948  0.00  0.00    +0.000 A 
ATOM     25  C   UNL     1       6.415   4.468  14.592  0.00  0.00    +0.000 A 
ATOM     26  C   UNL     1       7.248   5.028  15.565  0.00  0.00    +0.000 A 
ATOM     27  C   UNL     1       6.838   5.116  16.905  0.00  0.00    +0.000 A 
BRANCH  27  28
ATOM     28  O   UNL     1       7.557   5.769  17.867  0.00  0.00    +0.000 OA
BRANCH  28  29
ATOM     29  C   UNL     1       7.677   7.188  17.787  0.00  0.00    +0.000 C 
ATOM     30  F   UNL     1       8.290   7.601  16.655  0.00  0.00    +0.000 F 
ATOM     31  F   UNL     1       6.436   7.725  17.786  0.00  0.00    +0.000 F 
ATOM     32  F   UNL     1       8.349   7.667  18.855  0.00  0.00    +0.000 F 
ENDBRANCH  28  29
ENDBRANCH  27  28
ENDBRANCH  19  22
ENDBRANCH  17  19
ENDBRANCH   4  17
TORSDOF 8
ENDMDL
MODEL 9
REMARK VINA RESULT:      -8.4      3.340      4.122
REMARK  Name = 
REMARK  9 active torsions:
REMARK  status: ('A' for Active; 'I' for Inactive)
REMARK    1  A    between atoms: C_1  and  N_2
REMARK    2  A    between atoms: C_4  and  C_5
REMARK    3  A    between atoms: C_5  and  O_7
REMARK    4  A    between atoms: C_8  and  C_9
REMARK    5  A    between atoms: C_12  and  N_13
REMARK    6  A    between atoms: N_13  and  S_14
REMARK    7  A    between atoms: S_14  and  C_17
REMARK    8  A    between atoms: C_22  and  O_23
REMARK    9  A    between atoms: O_23  and  C_24
REMARK                            x       y       z     vdW  Elec       q    Type
REMARK                         _______ _______ _______ _____ _____    ______ ____
ROOT
ATOM      1  C   UNL     1       0.405  10.177  19.706  0.00  0.00    +0.000 A 
ATOM      2  C   UNL     1       0.835   9.033  20.392  0.00  0.00    +0.000 A 
ATOM      3  C   UNL     1       1.779   8.171  19.824  0.00  0.00    +0.000 A 
ATOM      4  C   UNL     1       2.291   8.445  18.558  0.00  0.00    +0.000 A 
ATOM      5  C   UNL     1       1.898   9.590  17.874  0.00  0.00    +0.000 A 
ATOM      6  C   UNL     1       0.953  10.446  18.442  0.00  0.00    +0.000 A 
ENDROOT
BRANCH   1  11
ATOM      7  C   UNL     1      -1.836  12.907  22.955  0.00  0.00    +0.000 C 
ATOM      8  N   UNL     1      -1.637  12.268  21.673  0.00  0.00    +0.000 N 
ATOM      9  C   UNL     1      -2.362  12.441  20.541  0.00  0.00    +0.000 A 
ATOM     10  C   UNL     1      -1.769  11.648  19.574  0.00  0.00    +0.000 A 
ATOM     11  C   UNL     1      -0.653  11.042  20.238  0.00  0.00    +0.000 A 
ATOM     12  N   UNL     1      -0.611  11.417  21.528  0.00  0.00    +0.000 NA
BRANCH  10  13
ATOM     13  C   UNL     1      -2.223  11.471  18.206  0.00  0.00    +0.000 C 
ATOM     14  O   UNL     1      -3.004  10.607  17.846  0.00  0.00    +0.000 OA
BRANCH  13  15
ATOM     15  O   UNL     1      -1.680  12.348  17.319  0.00  0.00    +0.000 OA
ATOM     16  H   UNL     1      -1.629  13.254  17.673  0.00  0.00    +0.000 HD
ENDBRANCH  13  15
ENDBRANCH  10  13
ENDBRANCH   1  11
BRANCH   4  17
ATOM     17  N   UNL     1       3.231   7.577  17.966  0.00  0.00    +0.000 N 
ATOM     18  H   UNL     1       3.889   7.909  17.268  0.00  0.00    +0.000 HD
BRANCH  17  19
ATOM     19  S   UNL     1       3.226   5.940  18.313  0.00  0.00    +0.000 S 
ATOM     20  O   UNL     1       3.785   5.794  19.643  0.00  0.00    +0.000 OA
ATOM     21  O   UNL     1       1.906   5.424  18.015  0.00  0.00    +0.000 OA
BRANCH  19  22
ATOM     22  C   UNL     1       4.383   5.214  17.166  0.00  0.00    +0.000 A 
ATOM     23  C   UNL     1       4.893   6.049  16.159  0.00  0.00    +0.000 A 
ATOM     24  C   UNL     1       5.743   5.537  15.183  0.00  0.00    +0.000 A 
ATOM     25  C   UNL     1       6.048   4.182  15.181  0.00  0.00    +0.000 A 
ATOM     26  C   UNL     1       5.527   3.342  16.170  0.00  0.00    +0.000 A 
ATOM     27  C   UNL     1       4.734   3.852  17.210  0.00  0.00    +0.000 A 
BRANCH  27  28
ATOM     28  O   UNL     1       4.311   3.097  18.268  0.00  0.00    +0.000 OA
BRANCH  28  29
ATOM     29  C   UNL     1       3.281   2.134  18.056  0.00  0.00    +0.000 C 
ATOM     30  F   UNL     1       2.453   2.008  19.118  0.00  0.00    +0.000 F 
ATOM     31  F   UNL     1       2.527   2.536  17.009  0.00  0.00    +0.000 F 
ATOM     32  F   UNL     1       3.814   0.929  17.763  0.00  0.00    +0.000 F 
ENDBRANCH  28  29
ENDBRANCH  27  28
ENDBRANCH  19  22
ENDBRANCH  17  19
ENDBRANCH   4  17
TORSDOF 8
ENDMDL
