MODEL 1
REMARK VINA RESULT:      -6.2      0.000      0.000
REMARK  Name = 
REMARK  3 active torsions:
REMARK  status: ('A' for Active; 'I' for Inactive)
REMARK    1  A    between atoms: C_4  and  C_5
REMARK    2  A    between atoms: C_10  and  N_11
REMARK    3  A    between atoms: C_18  and  C_19
REMARK                            x       y       z     vdW  Elec       q    Type
REMARK                         _______ _______ _______ _____ _____    ______ ____
ROOT
ATOM      1  O   UNL     1       2.455   7.802  17.970  0.00  0.00    +0.000 OA
ATOM      2  C   UNL     1       1.770   8.294  18.865  0.00  0.00    +0.000 C 
ATOM      3  C   UNL     1       0.437   8.975  18.564  0.00  0.00    +0.000 C 
ATOM      4  C   UNL     1      -0.069  10.029  19.576  0.00  0.00    +0.000 C 
ATOM      5  C   UNL     1       0.466   9.730  20.946  0.00  0.00    +0.000 A 
ATOM      6  C   UNL     1       0.205  10.260  22.249  0.00  0.00    +0.000 A 
ATOM      7  N   UNL     1       1.009   9.678  23.169  0.00  0.00    +0.000 NA
ATOM      8  N   UNL     1       1.743   8.798  22.472  0.00  0.00    +0.000 N 
ATOM      9  C   UNL     1       1.475   8.824  21.144  0.00  0.00    +0.000 A 
ATOM     10  N   UNL     1       2.136   8.129  20.175  0.00  0.00    +0.000 N 
ATOM     11  H   UNL     1       2.423   8.234  22.970  0.00  0.00    +0.000 HD
ATOM     12  H   UNL     1       2.972   7.587  20.355  0.00  0.00    +0.000 HD
ENDROOT
BRANCH   4  13
ATOM     13  C   UNL     1       0.337  11.444  19.166  0.00  0.00    +0.000 A 
ATOM     14  C   UNL     1       1.696  11.787  19.011  0.00  0.00    +0.000 A 
ATOM     15  C   UNL     1       2.068  13.085  18.699  0.00  0.00    +0.000 A 
ATOM     16  C   UNL     1       1.066  14.009  18.510  0.00  0.00    +0.000 A 
ATOM     17  N   UNL     1      -0.250  13.724  18.605  0.00  0.00    +0.000 NA
ATOM     18  C   UNL     1      -0.626  12.459  18.924  0.00  0.00    +0.000 A 
BRANCH  18  19
ATOM     19  N   UNL     1      -1.995  12.214  19.072  0.00  0.00    +0.000 N 
ATOM     20  C   UNL     1      -2.749  13.293  19.753  0.00  0.00    +0.000 C 
ATOM     21  C   UNL     1      -4.132  12.727  20.135  0.00  0.00    +0.000 C 
ATOM     22  O   UNL     1      -4.855  12.238  18.987  0.00  0.00    +0.000 OA
ATOM     23  C   UNL     1      -4.076  11.258  18.277  0.00  0.00    +0.000 C 
ATOM     24  C   UNL     1      -2.720  11.840  17.843  0.00  0.00    +0.000 C 
ENDBRANCH  18  19
ENDBRANCH   4  13
BRANCH   6  25
ATOM     25  C   UNL     1      -0.724  11.332  22.616  0.00  0.00    +0.000 A 
ATOM     26  C   UNL     1      -1.993  11.027  23.111  0.00  0.00    +0.000 A 
ATOM     27  C   UNL     1      -2.816  12.070  23.529  0.00  0.00    +0.000 A 
ATOM     28  C   UNL     1      -2.354  13.376  23.431  0.00  0.00    +0.000 A 
ATOM     29  C   UNL     1      -1.089  13.589  22.908  0.00  0.00    +0.000 A 
ATOM     30  N   UNL     1      -0.267  12.601  22.495  0.00  0.00    +0.000 NA
ENDBRANCH   6  25
TORSDOF 3
ENDMDL
MODEL 2
REMARK VINA RESULT:      -6.1      0.785      1.382
REMARK  Name = 
REMARK  3 active torsions:
REMARK  status: ('A' for Active; 'I' for Inactive)
REMARK    1  A    between atoms: C_4  and  C_5
REMARK    2  A    between atoms: C_10  and  N_11
REMARK    3  A    between atoms: C_18  and  C_19
REMARK                            x       y       z     vdW  Elec       q    Type
REMARK                         _______ _______ _______ _____ _____    ______ ____
ROOT
ATOM      1  O   UNL     1       2.212   8.186  17.788  0.00  0.00    +0.000 OA
ATOM      2  C   UNL     1       1.538   8.636  18.713  0.00  0.00    +0.000 C 
ATOM      3  C   UNL     1       0.229   9.379  18.456  0.00  0.00    +0.000 C 
ATOM      4  C   UNL     1      -0.249  10.376  19.536  0.00  0.00    +0.000 C 
ATOM      5  C   UNL     1       0.269   9.967  20.884  0.00  0.00    +0.000 A 
ATOM      6  C   UNL     1       0.018  10.414  22.220  0.00  0.00    +0.000 A 
ATOM      7  N   UNL     1       0.799   9.744  23.100  0.00  0.00    +0.000 NA
ATOM      8  N   UNL     1       1.509   8.892  22.347  0.00  0.00    +0.000 N 
ATOM      9  C   UNL     1       1.249   9.018  21.023  0.00  0.00    +0.000 A 
ATOM     10  N   UNL     1       1.892   8.370  20.010  0.00  0.00    +0.000 N 
ATOM     11  H   UNL     1       2.168   8.274  22.806  0.00  0.00    +0.000 HD
ATOM     12  H   UNL     1       2.710   7.792  20.154  0.00  0.00    +0.000 HD
ENDROOT
BRANCH   4  13
ATOM     13  C   UNL     1       0.203  11.803  19.226  0.00  0.00    +0.000 A 
ATOM     14  C   UNL     1       1.539  12.197  19.444  0.00  0.00    +0.000 A 
ATOM     15  C   UNL     1       1.937  13.506  19.221  0.00  0.00    +0.000 A 
ATOM     16  C   UNL     1       0.993  14.388  18.746  0.00  0.00    +0.000 A 
ATOM     17  N   UNL     1      -0.287  14.052  18.481  0.00  0.00    +0.000 NA
ATOM     18  C   UNL     1      -0.691  12.777  18.710  0.00  0.00    +0.000 A 
BRANCH  18  19
ATOM     19  N   UNL     1      -2.038  12.479  18.481  0.00  0.00    +0.000 N 
ATOM     20  C   UNL     1      -2.280  11.453  17.439  0.00  0.00    +0.000 C 
ATOM     21  C   UNL     1      -3.778  11.498  17.075  0.00  0.00    +0.000 C 
ATOM     22  O   UNL     1      -4.622  11.276  18.224  0.00  0.00    +0.000 OA
ATOM     23  C   UNL     1      -4.317  12.218  19.268  0.00  0.00    +0.000 C 
ATOM     24  C   UNL     1      -2.835  12.132  19.672  0.00  0.00    +0.000 C 
ENDBRANCH  18  19
ENDBRANCH   4  13
BRANCH   6  25
ATOM     25  C   UNL     1      -0.878  11.487  22.658  0.00  0.00    +0.000 A 
ATOM     26  C   UNL     1      -0.537  12.823  22.441  0.00  0.00    +0.000 A 
ATOM     27  C   UNL     1      -1.451  13.812  22.794  0.00  0.00    +0.000 A 
ATOM     28  C   UNL     1      -2.665  13.440  23.357  0.00  0.00    +0.000 A 
ATOM     29  C   UNL     1      -2.913  12.091  23.556  0.00  0.00    +0.000 A 
ATOM     30  N   UNL     1      -2.049  11.110  23.225  0.00  0.00    +0.000 NA
ENDBRANCH   6  25
TORSDOF 3
ENDMDL
MODEL 3
REMARK VINA RESULT:      -6.1      9.024     11.644
REMARK  Name = 
REMARK  3 active torsions:
REMARK  status: ('A' for Active; 'I' for Inactive)
REMARK    1  A    between atoms: C_4  and  C_5
REMARK    2  A    between atoms: C_10  and  N_11
REMARK    3  A    between atoms: C_18  and  C_19
REMARK                            x       y       z     vdW  Elec       q    Type
REMARK                         _______ _______ _______ _____ _____    ______ ____
ROOT
ATOM      1  O   UNL     1       8.966   9.706  18.506  0.00  0.00    +0.000 OA
ATOM      2  C   UNL     1       9.605  10.753  18.604  0.00  0.00    +0.000 C 
ATOM      3  C   UNL     1       9.473  11.654  19.829  0.00  0.00    +0.000 C 
ATOM      4  C   UNL     1       9.821  13.150  19.654  0.00  0.00    +0.000 C 
ATOM      5  C   UNL     1      10.823  13.323  18.551  0.00  0.00    +0.000 A 
ATOM      6  C   UNL     1      11.596  14.431  18.077  0.00  0.00    +0.000 A 
ATOM      7  N   UNL     1      12.324  14.074  16.993  0.00  0.00    +0.000 NA
ATOM      8  N   UNL     1      12.033  12.780  16.798  0.00  0.00    +0.000 N 
ATOM      9  C   UNL     1      11.120  12.307  17.680  0.00  0.00    +0.000 A 
ATOM     10  N   UNL     1      10.548  11.069  17.661  0.00  0.00    +0.000 N 
ATOM     11  H   UNL     1      12.480  12.296  16.027  0.00  0.00    +0.000 HD
ATOM     12  H   UNL     1      10.688  10.406  16.909  0.00  0.00    +0.000 HD
ENDROOT
BRANCH   4  13
ATOM     13  C   UNL     1       8.578  13.987  19.351  0.00  0.00    +0.000 A 
ATOM     14  C   UNL     1       7.997  13.973  18.066  0.00  0.00    +0.000 A 
ATOM     15  C   UNL     1       6.907  14.776  17.774  0.00  0.00    +0.000 A 
ATOM     16  C   UNL     1       6.394  15.552  18.788  0.00  0.00    +0.000 A 
ATOM     17  N   UNL     1       6.886  15.571  20.045  0.00  0.00    +0.000 NA
ATOM     18  C   UNL     1       7.963  14.799  20.339  0.00  0.00    +0.000 A 
BRANCH  18  19
ATOM     19  N   UNL     1       8.481  14.888  21.635  0.00  0.00    +0.000 N 
ATOM     20  C   UNL     1       9.179  16.159  21.939  0.00  0.00    +0.000 C 
ATOM     21  C   UNL     1       9.970  15.958  23.248  0.00  0.00    +0.000 C 
ATOM     22  O   UNL     1       9.117  15.564  24.342  0.00  0.00    +0.000 OA
ATOM     23  C   UNL     1       8.372  14.380  24.004  0.00  0.00    +0.000 C 
ATOM     24  C   UNL     1       7.537  14.600  22.730  0.00  0.00    +0.000 C 
ENDBRANCH  18  19
ENDBRANCH   4  13
BRANCH   6  25
ATOM     25  C   UNL     1      11.602  15.806  18.582  0.00  0.00    +0.000 A 
ATOM     26  C   UNL     1      10.936  16.816  17.885  0.00  0.00    +0.000 A 
ATOM     27  C   UNL     1      10.892  18.093  18.439  0.00  0.00    +0.000 A 
ATOM     28  C   UNL     1      11.517  18.323  19.658  0.00  0.00    +0.000 A 
ATOM     29  C   UNL     1      12.172  17.267  20.271  0.00  0.00    +0.000 A 
ATOM     30  N   UNL     1      12.234  16.020  19.761  0.00  0.00    +0.000 NA
ENDBRANCH   6  25
TORSDOF 3
ENDMDL
MODEL 4
REMARK VINA RESULT:      -6.1      9.037     11.795
REMARK  Name = 
REMARK  3 active torsions:
REMARK  status: ('A' for Active; 'I' for Inactive)
REMARK    1  A    between atoms: C_4  and  C_5
REMARK    2  A    between atoms: C_10  and  N_11
REMARK    3  A    between atoms: C_18  and  C_19
REMARK                            x       y       z     vdW  Elec       q    Type
REMARK                         _______ _______ _______ _____ _____    ______ ____
ROOT
ATOM      1  O   UNL     1       8.962   9.888  19.495  0.00  0.00    +0.000 OA
ATOM      2  C   UNL     1       9.568  10.942  19.307  0.00  0.00    +0.000 C 
ATOM      3  C   UNL     1       9.424  12.125  20.260  0.00  0.00    +0.000 C 
ATOM      4  C   UNL     1       9.722  13.534  19.699  0.00  0.00    +0.000 C 
ATOM      5  C   UNL     1      10.703  13.444  18.567  0.00  0.00    +0.000 A 
ATOM      6  C   UNL     1      11.434  14.413  17.808  0.00  0.00    +0.000 A 
ATOM      7  N   UNL     1      12.158  13.808  16.837  0.00  0.00    +0.000 NA
ATOM      8  N   UNL     1      11.906  12.500  16.988  0.00  0.00    +0.000 N 
ATOM      9  C   UNL     1      11.020  12.245  17.981  0.00  0.00    +0.000 A 
ATOM     10  N   UNL     1      10.488  11.030  18.294  0.00  0.00    +0.000 N 
ATOM     11  H   UNL     1      12.357  11.846  16.359  0.00  0.00    +0.000 HD
ATOM     12  H   UNL     1      10.638  10.199  17.736  0.00  0.00    +0.000 HD
ENDROOT
BRANCH   4  13
ATOM     13  C   UNL     1       8.449  14.230  19.217  0.00  0.00    +0.000 A 
ATOM     14  C   UNL     1       7.708  13.707  18.137  0.00  0.00    +0.000 A 
ATOM     15  C   UNL     1       6.588  14.369  17.660  0.00  0.00    +0.000 A 
ATOM     16  C   UNL     1       6.208  15.526  18.302  0.00  0.00    +0.000 A 
ATOM     17  N   UNL     1       6.857  16.046  19.365  0.00  0.00    +0.000 NA
ATOM     18  C   UNL     1       7.964  15.414  19.831  0.00  0.00    +0.000 A 
BRANCH  18  19
ATOM     19  N   UNL     1       8.644  16.013  20.896  0.00  0.00    +0.000 N 
ATOM     20  C   UNL     1       9.003  17.435  20.684  0.00  0.00    +0.000 C 
ATOM     21  C   UNL     1      10.023  17.828  21.771  0.00  0.00    +0.000 C 
ATOM     22  O   UNL     1       9.506  17.620  23.102  0.00  0.00    +0.000 OA
ATOM     23  C   UNL     1       9.073  16.258  23.270  0.00  0.00    +0.000 C 
ATOM     24  C   UNL     1       8.011  15.883  22.222  0.00  0.00    +0.000 C 
ENDBRANCH  18  19
ENDBRANCH   4  13
BRANCH   6  25
ATOM     25  C   UNL     1      11.402  15.871  17.942  0.00  0.00    +0.000 A 
ATOM     26  C   UNL     1      12.333  16.526  18.750  0.00  0.00    +0.000 A 
ATOM     27  C   UNL     1      12.326  17.918  18.786  0.00  0.00    +0.000 A 
ATOM     28  C   UNL     1      11.389  18.608  18.027  0.00  0.00    +0.000 A 
ATOM     29  C   UNL     1      10.488  17.878  17.269  0.00  0.00    +0.000 A 
ATOM     30  N   UNL     1      10.470  16.530  17.212  0.00  0.00    +0.000 NA
ENDBRANCH   6  25
TORSDOF 3
ENDMDL
MODEL 5
REMARK VINA RESULT:      -5.9      2.523      4.880
REMARK  Name = 
REMARK  3 active torsions:
REMARK  status: ('A' for Active; 'I' for Inactive)
REMARK    1  A    between atoms: C_4  and  C_5
REMARK    2  A    between atoms: C_10  and  N_11
REMARK    3  A    between atoms: C_18  and  C_19
REMARK                            x       y       z     vdW  Elec       q    Type
REMARK                         _______ _______ _______ _____ _____    ______ ____
ROOT
ATOM      1  O   UNL     1      -2.539   9.809  16.198  0.00  0.00    +0.000 OA
ATOM      2  C   UNL     1      -2.664  10.660  17.077  0.00  0.00    +0.000 C 
ATOM      3  C   UNL     1      -1.531  11.625  17.419  0.00  0.00    +0.000 C 
ATOM      4  C   UNL     1      -1.523  12.243  18.835  0.00  0.00    +0.000 C 
ATOM      5  C   UNL     1      -2.922  12.318  19.375  0.00  0.00    +0.000 A 
ATOM      6  C   UNL     1      -3.507  12.925  20.531  0.00  0.00    +0.000 A 
ATOM      7  N   UNL     1      -4.830  12.646  20.596  0.00  0.00    +0.000 NA
ATOM      8  N   UNL     1      -5.076  11.902  19.509  0.00  0.00    +0.000 N 
ATOM      9  C   UNL     1      -3.962  11.655  18.777  0.00  0.00    +0.000 A 
ATOM     10  N   UNL     1      -3.878  10.839  17.688  0.00  0.00    +0.000 N 
ATOM     11  H   UNL     1      -6.023  11.579  19.348  0.00  0.00    +0.000 HD
ATOM     12  H   UNL     1      -4.642  10.254  17.375  0.00  0.00    +0.000 HD
ENDROOT
BRANCH   4  13
ATOM     13  C   UNL     1      -0.647  11.441  19.796  0.00  0.00    +0.000 A 
ATOM     14  C   UNL     1      -0.978  10.112  20.133  0.00  0.00    +0.000 A 
ATOM     15  C   UNL     1      -0.218   9.404  21.050  0.00  0.00    +0.000 A 
ATOM     16  C   UNL     1       0.885  10.029  21.585  0.00  0.00    +0.000 A 
ATOM     17  N   UNL     1       1.269  11.283  21.265  0.00  0.00    +0.000 NA
ATOM     18  C   UNL     1       0.524  11.991  20.379  0.00  0.00    +0.000 A 
BRANCH  18  19
ATOM     19  N   UNL     1       0.919  13.307  20.116  0.00  0.00    +0.000 N 
ATOM     20  C   UNL     1       1.280  14.099  21.316  0.00  0.00    +0.000 C 
ATOM     21  C   UNL     1       1.349  15.581  20.895  0.00  0.00    +0.000 C 
ATOM     22  O   UNL     1       2.296  15.799  19.829  0.00  0.00    +0.000 OA
ATOM     23  C   UNL     1       1.993  14.958  18.702  0.00  0.00    +0.000 C 
ATOM     24  C   UNL     1       1.982  13.474  19.108  0.00  0.00    +0.000 C 
ENDBRANCH  18  19
ENDBRANCH   4  13
BRANCH   6  25
ATOM     25  C   UNL     1      -2.835  13.688  21.586  0.00  0.00    +0.000 A 
ATOM     26  C   UNL     1      -2.265  13.031  22.677  0.00  0.00    +0.000 A 
ATOM     27  C   UNL     1      -1.561  13.781  23.617  0.00  0.00    +0.000 A 
ATOM     28  C   UNL     1      -1.458  15.156  23.443  0.00  0.00    +0.000 A 
ATOM     29  C   UNL     1      -2.072  15.728  22.341  0.00  0.00    +0.000 A 
ATOM     30  N   UNL     1      -2.760  15.030  21.414  0.00  0.00    +0.000 NA
ENDBRANCH   6  25
TORSDOF 3
ENDMDL
MODEL 6
REMARK VINA RESULT:      -5.8      1.506      1.951
REMARK  Name = 
REMARK  3 active torsions:
REMARK  status: ('A' for Active; 'I' for Inactive)
REMARK    1  A    between atoms: C_4  and  C_5
REMARK    2  A    between atoms: C_10  and  N_11
REMARK    3  A    between atoms: C_18  and  C_19
REMARK                            x       y       z     vdW  Elec       q    Type
REMARK                         _______ _______ _______ _____ _____    ______ ____
ROOT
ATOM      1  O   UNL     1       1.285   9.307  17.937  0.00  0.00    +0.000 OA
ATOM      2  C   UNL     1       0.637   9.635  18.929  0.00  0.00    +0.000 C 
ATOM      3  C   UNL     1      -0.674  10.407  18.805  0.00  0.00    +0.000 C 
ATOM      4  C   UNL     1      -1.119  11.257  20.017  0.00  0.00    +0.000 C 
ATOM      5  C   UNL     1      -0.568  10.677  21.287  0.00  0.00    +0.000 A 
ATOM      6  C   UNL     1      -0.782  10.948  22.675  0.00  0.00    +0.000 A 
ATOM      7  N   UNL     1       0.019  10.170  23.441  0.00  0.00    +0.000 NA
ATOM      8  N   UNL     1       0.704   9.421  22.565  0.00  0.00    +0.000 N 
ATOM      9  C   UNL     1       0.410   9.716  21.276  0.00  0.00    +0.000 A 
ATOM     10  N   UNL     1       1.024   9.204  20.172  0.00  0.00    +0.000 N 
ATOM     11  H   UNL     1       1.371   8.747  22.924  0.00  0.00    +0.000 HD
ATOM     12  H   UNL     1       1.842   8.610  20.218  0.00  0.00    +0.000 HD
ENDROOT
BRANCH   4  13
ATOM     13  C   UNL     1      -0.668  12.711  19.882  0.00  0.00    +0.000 A 
ATOM     14  C   UNL     1       0.672  13.023  19.574  0.00  0.00    +0.000 A 
ATOM     15  C   UNL     1       1.096  14.341  19.511  0.00  0.00    +0.000 A 
ATOM     16  C   UNL     1       0.157  15.325  19.719  0.00  0.00    +0.000 A 
ATOM     17  N   UNL     1      -1.146  15.081  19.975  0.00  0.00    +0.000 NA
ATOM     18  C   UNL     1      -1.569  13.794  20.054  0.00  0.00    +0.000 A 
BRANCH  18  19
ATOM     19  N   UNL     1      -2.912  13.579  20.379  0.00  0.00    +0.000 N 
ATOM     20  C   UNL     1      -3.698  14.812  20.624  0.00  0.00    +0.000 C 
ATOM     21  C   UNL     1      -5.024  14.396  21.293  0.00  0.00    +0.000 C 
ATOM     22  O   UNL     1      -5.770  13.462  20.485  0.00  0.00    +0.000 OA
ATOM     23  C   UNL     1      -4.968  12.309  20.173  0.00  0.00    +0.000 C 
ATOM     24  C   UNL     1      -3.671  12.718  19.453  0.00  0.00    +0.000 C 
ENDBRANCH  18  19
ENDBRANCH   4  13
BRANCH   6  25
ATOM     25  C   UNL     1      -1.661  11.957  23.271  0.00  0.00    +0.000 A 
ATOM     26  C   UNL     1      -1.208  13.264  23.460  0.00  0.00    +0.000 A 
ATOM     27  C   UNL     1      -2.099  14.216  23.950  0.00  0.00    +0.000 A 
ATOM     28  C   UNL     1      -3.402  13.834  24.244  0.00  0.00    +0.000 A 
ATOM     29  C   UNL     1      -3.761  12.511  24.045  0.00  0.00    +0.000 A 
ATOM     30  N   UNL     1      -2.923  11.565  23.572  0.00  0.00    +0.000 NA
ENDBRANCH   6  25
TORSDOF 3
ENDMDL
MODEL 7
REMARK VINA RESULT:      -5.8      1.035      1.307
REMARK  Name = 
REMARK  3 active torsions:
REMARK  status: ('A' for Active; 'I' for Inactive)
REMARK    1  A    between atoms: C_4  and  C_5
REMARK    2  A    between atoms: C_10  and  N_11
REMARK    3  A    between atoms: C_18  and  C_19
REMARK                            x       y       z     vdW  Elec       q    Type
REMARK                         _______ _______ _______ _____ _____    ______ ____
ROOT
ATOM      1  O   UNL     1       2.376   7.610  18.985  0.00  0.00    +0.000 OA
ATOM      2  C   UNL     1       1.585   8.188  19.729  0.00  0.00    +0.000 C 
ATOM      3  C   UNL     1       0.293   8.803  19.196  0.00  0.00    +0.000 C 
ATOM      4  C   UNL     1      -0.337   9.956  20.010  0.00  0.00    +0.000 C 
ATOM      5  C   UNL     1       0.032   9.829  21.459  0.00  0.00    +0.000 A 
ATOM      6  C   UNL     1      -0.386  10.501  22.651  0.00  0.00    +0.000 A 
ATOM      7  N   UNL     1       0.307  10.046  23.721  0.00  0.00    +0.000 NA
ATOM      8  N   UNL     1       1.124   9.107  23.224  0.00  0.00    +0.000 N 
ATOM      9  C   UNL     1       1.017   8.973  21.880  0.00  0.00    +0.000 A 
ATOM     10  N   UNL     1       1.793   8.184  21.084  0.00  0.00    +0.000 N 
ATOM     11  H   UNL     1       1.743   8.618  23.862  0.00  0.00    +0.000 HD
ATOM     12  H   UNL     1       2.605   7.684  21.423  0.00  0.00    +0.000 HD
ENDROOT
BRANCH   4  13
ATOM     13  C   UNL     1       0.105  11.322  19.487  0.00  0.00    +0.000 A 
ATOM     14  C   UNL     1       1.388  11.825  19.786  0.00  0.00    +0.000 A 
ATOM     15  C   UNL     1       1.768  13.090  19.364  0.00  0.00    +0.000 A 
ATOM     16  C   UNL     1       0.867  13.812  18.616  0.00  0.00    +0.000 A 
ATOM     17  N   UNL     1      -0.356  13.360  18.268  0.00  0.00    +0.000 NA
ATOM     18  C   UNL     1      -0.745  12.130  18.688  0.00  0.00    +0.000 A 
BRANCH  18  19
ATOM     19  N   UNL     1      -2.041  11.718  18.358  0.00  0.00    +0.000 N 
ATOM     20  C   UNL     1      -3.123  12.471  19.035  0.00  0.00    +0.000 C 
ATOM     21  C   UNL     1      -4.435  11.685  18.837  0.00  0.00    +0.000 C 
ATOM     22  O   UNL     1      -4.742  11.483  17.442  0.00  0.00    +0.000 OA
ATOM     23  C   UNL     1      -3.647  10.835  16.771  0.00  0.00    +0.000 C 
ATOM     24  C   UNL     1      -2.350  11.650  16.917  0.00  0.00    +0.000 C 
ENDBRANCH  18  19
ENDBRANCH   4  13
BRANCH   6  25
ATOM     25  C   UNL     1      -1.359  11.588  22.778  0.00  0.00    +0.000 A 
ATOM     26  C   UNL     1      -1.081  12.848  22.246  0.00  0.00    +0.000 A 
ATOM     27  C   UNL     1      -2.064  13.834  22.311  0.00  0.00    +0.000 A 
ATOM     28  C   UNL     1      -3.281  13.535  22.910  0.00  0.00    +0.000 A 
ATOM     29  C   UNL     1      -3.464  12.264  23.431  0.00  0.00    +0.000 A 
ATOM     30  N   UNL     1      -2.533  11.289  23.383  0.00  0.00    +0.000 NA
ENDBRANCH   6  25
TORSDOF 3
ENDMDL
MODEL 8
REMARK VINA RESULT:      -5.8      1.003      1.064
REMARK  Name = 
REMARK  3 active torsions:
REMARK  status: ('A' for Active; 'I' for Inactive)
REMARK    1  A    between atoms: C_4  and  C_5
REMARK    2  A    between atoms: C_10  and  N_11
REMARK    3  A    between atoms: C_18  and  C_19
REMARK                            x       y       z     vdW  Elec       q    Type
REMARK                         _______ _______ _______ _____ _____    ______ ____
ROOT
ATOM      1  O   UNL     1       1.912   8.509  18.160  0.00  0.00    +0.000 OA
ATOM      2  C   UNL     1       1.220   8.960  19.071  0.00  0.00    +0.000 C 
ATOM      3  C   UNL     1      -0.016   9.810  18.787  0.00  0.00    +0.000 C 
ATOM      4  C   UNL     1      -0.482  10.783  19.894  0.00  0.00    +0.000 C 
ATOM      5  C   UNL     1      -0.071  10.269  21.243  0.00  0.00    +0.000 A 
ATOM      6  C   UNL     1      -0.365  10.664  22.587  0.00  0.00    +0.000 A 
ATOM      7  N   UNL     1       0.316   9.895  23.468  0.00  0.00    +0.000 NA
ATOM      8  N   UNL     1       1.004   9.032  22.707  0.00  0.00    +0.000 N 
ATOM      9  C   UNL     1       0.829   9.243  21.380  0.00  0.00    +0.000 A 
ATOM     10  N   UNL     1       1.481   8.603  20.369  0.00  0.00    +0.000 N 
ATOM     11  H   UNL     1       1.591   8.344  23.166  0.00  0.00    +0.000 HD
ATOM     12  H   UNL     1       2.246   7.959  20.524  0.00  0.00    +0.000 HD
ENDROOT
BRANCH   4  13
ATOM     13  C   UNL     1       0.087  12.186  19.687  0.00  0.00    +0.000 A 
ATOM     14  C   UNL     1       1.463  12.376  19.441  0.00  0.00    +0.000 A 
ATOM     15  C   UNL     1       1.990  13.651  19.314  0.00  0.00    +0.000 A 
ATOM     16  C   UNL     1       1.120  14.714  19.397  0.00  0.00    +0.000 A 
ATOM     17  N   UNL     1      -0.210  14.585  19.589  0.00  0.00    +0.000 NA
ATOM     18  C   UNL     1      -0.736  13.342  19.730  0.00  0.00    +0.000 A 
BRANCH  18  19
ATOM     19  N   UNL     1      -2.107  13.250  19.986  0.00  0.00    +0.000 N 
ATOM     20  C   UNL     1      -2.772  14.541  20.285  0.00  0.00    +0.000 C 
ATOM     21  C   UNL     1      -4.164  14.226  20.871  0.00  0.00    +0.000 C 
ATOM     22  O   UNL     1      -4.964  13.431  19.972  0.00  0.00    +0.000 OA
ATOM     23  C   UNL     1      -4.271  12.222  19.613  0.00  0.00    +0.000 C 
ATOM     24  C   UNL     1      -2.908  12.536  18.974  0.00  0.00    +0.000 C 
ENDBRANCH  18  19
ENDBRANCH   4  13
BRANCH   6  25
ATOM     25  C   UNL     1      -1.206  11.776  23.034  0.00  0.00    +0.000 A 
ATOM     26  C   UNL     1      -2.567  11.580  23.271  0.00  0.00    +0.000 A 
ATOM     27  C   UNL     1      -3.317  12.639  23.777  0.00  0.00    +0.000 A 
ATOM     28  C   UNL     1      -2.691  13.856  24.019  0.00  0.00    +0.000 A 
ATOM     29  C   UNL     1      -1.340  13.968  23.735  0.00  0.00    +0.000 A 
ATOM     30  N   UNL     1      -0.586  12.962  23.246  0.00  0.00    +0.000 NA
ENDBRANCH   6  25
TORSDOF 3
ENDMDL
MODEL 9
REMARK VINA RESULT:      -5.7      2.303      5.413
REMARK  Name = 
REMARK  3 active torsions:
REMARK  status: ('A' for Active; 'I' for Inactive)
REMARK    1  A    between atoms: C_4  and  C_5
REMARK    2  A    between atoms: C_10  and  N_11
REMARK    3  A    between atoms: C_18  and  C_19
REMARK                            x       y       z     vdW  Elec       q    Type
REMARK                         _______ _______ _______ _____ _____    ______ ____
ROOT
ATOM      1  O   UNL     1      -2.201  13.312  23.553  0.00  0.00    +0.000 OA
ATOM      2  C   UNL     1      -1.444  12.480  23.054  0.00  0.00    +0.000 C 
ATOM      3  C   UNL     1      -0.358  12.886  22.060  0.00  0.00    +0.000 C 
ATOM      4  C   UNL     1       0.147  11.807  21.075  0.00  0.00    +0.000 C 
ATOM      5  C   UNL     1      -0.018  10.441  21.674  0.00  0.00    +0.000 A 
ATOM      6  C   UNL     1       0.412   9.131  21.289  0.00  0.00    +0.000 A 
ATOM      7  N   UNL     1      -0.055   8.204  22.158  0.00  0.00    +0.000 NA
ATOM      8  N   UNL     1      -0.742   8.905  23.070  0.00  0.00    +0.000 N 
ATOM      9  C   UNL     1      -0.774  10.233  22.799  0.00  0.00    +0.000 A 
ATOM     10  N   UNL     1      -1.485  11.177  23.478  0.00  0.00    +0.000 N 
ATOM     11  H   UNL     1      -1.182   8.405  23.834  0.00  0.00    +0.000 HD
ATOM     12  H   UNL     1      -2.147  10.952  24.210  0.00  0.00    +0.000 HD
ENDROOT
BRANCH   4  13
ATOM     13  C   UNL     1      -0.595  11.872  19.740  0.00  0.00    +0.000 A 
ATOM     14  C   UNL     1      -1.718  11.054  19.500  0.00  0.00    +0.000 A 
ATOM     15  C   UNL     1      -2.354  11.068  18.269  0.00  0.00    +0.000 A 
ATOM     16  C   UNL     1      -1.875  11.933  17.312  0.00  0.00    +0.000 A 
ATOM     17  N   UNL     1      -0.831  12.766  17.504  0.00  0.00    +0.000 NA
ATOM     18  C   UNL     1      -0.191  12.751  18.701  0.00  0.00    +0.000 A 
BRANCH  18  19
ATOM     19  N   UNL     1       0.922  13.585  18.844  0.00  0.00    +0.000 N 
ATOM     20  C   UNL     1       2.051  13.278  17.934  0.00  0.00    +0.000 C 
ATOM     21  C   UNL     1       3.289  14.040  18.449  0.00  0.00    +0.000 C 
ATOM     22  O   UNL     1       3.058  15.462  18.523  0.00  0.00    +0.000 OA
ATOM     23  C   UNL     1       1.904  15.747  19.333  0.00  0.00    +0.000 C 
ATOM     24  C   UNL     1       0.656  15.034  18.786  0.00  0.00    +0.000 C 
ENDBRANCH  18  19
ENDBRANCH   4  13
BRANCH   6  25
ATOM     25  C   UNL     1       1.180   8.748  20.103  0.00  0.00    +0.000 A 
ATOM     26  C   UNL     1       1.206   9.578  18.981  0.00  0.00    +0.000 A 
ATOM     27  C   UNL     1       2.014   9.223  17.904  0.00  0.00    +0.000 A 
ATOM     28  C   UNL     1       2.759   8.052  17.976  0.00  0.00    +0.000 A 
ATOM     29  C   UNL     1       2.658   7.277  19.120  0.00  0.00    +0.000 A 
ATOM     30  N   UNL     1       1.885   7.594  20.179  0.00  0.00    +0.000 NA
ENDBRANCH   6  25
TORSDOF 3
ENDMDL
