MODEL 1
REMARK VINA RESULT:      -7.4      0.000      0.000
REMARK  Name = 
REMARK  5 active torsions:
REMARK  status: ('A' for Active; 'I' for Inactive)
REMARK    1  A    between atoms: C_1  and  C_2
REMARK    2  A    between atoms: C_7  and  C_9
REMARK    3  A    between atoms: C_9  and  S_10
REMARK    4  A    between atoms: S_10  and  C_11
REMARK    5  A    between atoms: N_14  and  C_15
REMARK                            x       y       z     vdW  Elec       q    Type
REMARK                         _______ _______ _______ _____ _____    ______ ____
ROOT
ATOM      1  S   UNL     1       7.190   5.835  17.149  0.00  0.00    +0.000 S 
ENDROOT
BRANCH   1   2
ATOM      2  C   UNL     1       5.504   5.968  17.551  0.00  0.00    +0.000 A 
ATOM      3  N   UNL     1       4.704   7.038  17.274  0.00  0.00    +0.000 NA
ATOM      4  C   UNL     1       3.537   6.655  17.751  0.00  0.00    +0.000 A 
ATOM      5  N   UNL     1       3.627   5.390  18.285  0.00  0.00    +0.000 N 
ATOM      6  N   UNL     1       4.907   4.966  18.194  0.00  0.00    +0.000 NA
BRANCH   5   7
ATOM      7  C   UNL     1       2.613   4.564  18.842  0.00  0.00    +0.000 A 
ATOM      8  C   UNL     1       1.983   3.566  18.091  0.00  0.00    +0.000 A 
ATOM      9  C   UNL     1       1.018   2.747  18.691  0.00  0.00    +0.000 A 
ATOM     10  C   UNL     1       0.674   2.926  20.030  0.00  0.00    +0.000 A 
ATOM     11  C   UNL     1       1.289   3.924  20.777  0.00  0.00    +0.000 A 
ATOM     12  C   UNL     1       2.257   4.741  20.190  0.00  0.00    +0.000 A 
ENDBRANCH   5   7
ENDBRANCH   1   2
BRANCH   1  13
ATOM     13  C   UNL     1       7.998   6.620  18.565  0.00  0.00    +0.000 C 
BRANCH  13  20
ATOM     14  C   UNL     1      10.189  12.981  21.251  0.00  0.00    +0.000 C 
ATOM     15  C   UNL     1       9.839  12.067  20.133  0.00  0.00    +0.000 A 
ATOM     16  C   UNL     1       9.784  12.399  18.792  0.00  0.00    +0.000 A 
ATOM     17  S   UNL     1       9.268  11.048  17.879  0.00  0.00    +0.000 S 
ATOM     18  C   UNL     1       9.161  10.125  19.308  0.00  0.00    +0.000 A 
ATOM     19  N   UNL     1       8.787   8.803  19.311  0.00  0.00    +0.000 N 
ATOM     20  C   UNL     1       8.208   8.104  18.270  0.00  0.00    +0.000 C 
ATOM     21  O   UNL     1       7.813   8.581  17.207  0.00  0.00    +0.000 OA
ATOM     22  N   UNL     1       9.518  10.744  20.413  0.00  0.00    +0.000 NA
ATOM     23  H   UNL     1       8.935   8.344  20.199  0.00  0.00    +0.000 HD
ENDBRANCH  13  20
ENDBRANCH   1  13
TORSDOF 4
ENDMDL
MODEL 2
REMARK VINA RESULT:      -7.3      5.168      7.347
REMARK  Name = 
REMARK  5 active torsions:
REMARK  status: ('A' for Active; 'I' for Inactive)
REMARK    1  A    between atoms: C_1  and  C_2
REMARK    2  A    between atoms: C_7  and  C_9
REMARK    3  A    between atoms: C_9  and  S_10
REMARK    4  A    between atoms: S_10  and  C_11
REMARK    5  A    between atoms: N_14  and  C_15
REMARK                            x       y       z     vdW  Elec       q    Type
REMARK                         _______ _______ _______ _____ _____    ______ ____
ROOT
ATOM      1  S   UNL     1       3.197   4.116  18.431  0.00  0.00    +0.000 S 
ENDROOT
BRANCH   1   2
ATOM      2  C   UNL     1       4.673   4.357  17.546  0.00  0.00    +0.000 A 
ATOM      3  N   UNL     1       5.900   4.588  18.096  0.00  0.00    +0.000 NA
ATOM      4  C   UNL     1       6.677   4.680  17.036  0.00  0.00    +0.000 A 
ATOM      5  N   UNL     1       5.945   4.499  15.885  0.00  0.00    +0.000 N 
ATOM      6  N   UNL     1       4.645   4.334  16.214  0.00  0.00    +0.000 NA
BRANCH   5   7
ATOM      7  C   UNL     1       6.376   4.450  14.532  0.00  0.00    +0.000 A 
ATOM      8  C   UNL     1       7.432   5.243  14.068  0.00  0.00    +0.000 A 
ATOM      9  C   UNL     1       7.851   5.134  12.736  0.00  0.00    +0.000 A 
ATOM     10  C   UNL     1       7.219   4.248  11.866  0.00  0.00    +0.000 A 
ATOM     11  C   UNL     1       6.162   3.466  12.319  0.00  0.00    +0.000 A 
ATOM     12  C   UNL     1       5.740   3.562  13.647  0.00  0.00    +0.000 A 
ENDBRANCH   5   7
ENDBRANCH   1   2
BRANCH   1  13
ATOM     13  C   UNL     1       3.381   5.253  19.826  0.00  0.00    +0.000 C 
BRANCH  13  20
ATOM     14  C   UNL     1      -0.645  10.431  22.901  0.00  0.00    +0.000 C 
ATOM     15  C   UNL     1       0.133   9.854  21.775  0.00  0.00    +0.000 A 
ATOM     16  C   UNL     1       0.267  10.398  20.511  0.00  0.00    +0.000 A 
ATOM     17  S   UNL     1       1.195   9.354  19.524  0.00  0.00    +0.000 S 
ATOM     18  C   UNL     1       1.359   8.269  20.828  0.00  0.00    +0.000 A 
ATOM     19  N   UNL     1       2.076   7.101  20.735  0.00  0.00    +0.000 N 
ATOM     20  C   UNL     1       2.533   6.500  19.579  0.00  0.00    +0.000 C 
ATOM     21  O   UNL     1       2.266   6.843  18.428  0.00  0.00    +0.000 OA
ATOM     22  N   UNL     1       0.800   8.649  21.957  0.00  0.00    +0.000 NA
ATOM     23  H   UNL     1       2.229   6.650  21.627  0.00  0.00    +0.000 HD
ENDBRANCH  13  20
ENDBRANCH   1  13
TORSDOF 4
ENDMDL
MODEL 3
REMARK VINA RESULT:      -7.3      5.060      6.700
REMARK  Name = 
REMARK  5 active torsions:
REMARK  status: ('A' for Active; 'I' for Inactive)
REMARK    1  A    between atoms: C_1  and  C_2
REMARK    2  A    between atoms: C_7  and  C_9
REMARK    3  A    between atoms: C_9  and  S_10
REMARK    4  A    between atoms: S_10  and  C_11
REMARK    5  A    between atoms: N_14  and  C_15
REMARK                            x       y       z     vdW  Elec       q    Type
REMARK                         _______ _______ _______ _____ _____    ______ ____
ROOT
ATOM      1  S   UNL     1       2.520   3.720  19.016  0.00  0.00    +0.000 S 
ENDROOT
BRANCH   1   2
ATOM      2  C   UNL     1       2.466   5.454  18.920  0.00  0.00    +0.000 A 
ATOM      3  N   UNL     1       2.972   6.209  17.903  0.00  0.00    +0.000 NA
ATOM      4  C   UNL     1       2.671   7.436  18.279  0.00  0.00    +0.000 A 
ATOM      5  N   UNL     1       1.994   7.420  19.477  0.00  0.00    +0.000 N 
ATOM      6  N   UNL     1       1.902   6.143  19.911  0.00  0.00    +0.000 NA
BRANCH   5   7
ATOM      7  C   UNL     1       1.425   8.493  20.214  0.00  0.00    +0.000 A 
ATOM      8  C   UNL     1       1.015   9.677  19.590  0.00  0.00    +0.000 A 
ATOM      9  C   UNL     1       0.420  10.694  20.347  0.00  0.00    +0.000 A 
ATOM     10  C   UNL     1       0.242  10.539  21.721  0.00  0.00    +0.000 A 
ATOM     11  C   UNL     1       0.658   9.370  22.348  0.00  0.00    +0.000 A 
ATOM     12  C   UNL     1       1.246   8.347  21.600  0.00  0.00    +0.000 A 
ENDBRANCH   5   7
ENDBRANCH   1   2
BRANCH   1  13
ATOM     13  C   UNL     1       4.171   3.410  19.686  0.00  0.00    +0.000 C 
BRANCH  13  20
ATOM     14  C   UNL     1       6.279   3.591  12.758  0.00  0.00    +0.000 C 
ATOM     15  C   UNL     1       6.304   4.078  14.162  0.00  0.00    +0.000 A 
ATOM     16  C   UNL     1       7.132   5.060  14.672  0.00  0.00    +0.000 A 
ATOM     17  S   UNL     1       6.856   5.239  16.351  0.00  0.00    +0.000 S 
ATOM     18  C   UNL     1       5.667   4.021  16.284  0.00  0.00    +0.000 A 
ATOM     19  N   UNL     1       4.947   3.626  17.385  0.00  0.00    +0.000 N 
ATOM     20  C   UNL     1       5.222   3.926  18.705  0.00  0.00    +0.000 C 
ATOM     21  O   UNL     1       6.230   4.492  19.125  0.00  0.00    +0.000 OA
ATOM     22  N   UNL     1       5.436   3.516  15.091  0.00  0.00    +0.000 NA
ATOM     23  H   UNL     1       4.166   3.025  17.162  0.00  0.00    +0.000 HD
ENDBRANCH  13  20
ENDBRANCH   1  13
TORSDOF 4
ENDMDL
MODEL 4
REMARK VINA RESULT:      -7.2      5.780      8.449
REMARK  Name = 
REMARK  5 active torsions:
REMARK  status: ('A' for Active; 'I' for Inactive)
REMARK    1  A    between atoms: C_1  and  C_2
REMARK    2  A    between atoms: C_7  and  C_9
REMARK    3  A    between atoms: C_9  and  S_10
REMARK    4  A    between atoms: S_10  and  C_11
REMARK    5  A    between atoms: N_14  and  C_15
REMARK                            x       y       z     vdW  Elec       q    Type
REMARK                         _______ _______ _______ _____ _____    ______ ____
ROOT
ATOM      1  S   UNL     1       1.969   9.875  18.425  0.00  0.00    +0.000 S 
ENDROOT
BRANCH   1   2
ATOM      2  C   UNL     1       2.406   8.194  18.349  0.00  0.00    +0.000 A 
ATOM      3  N   UNL     1       3.342   7.654  17.517  0.00  0.00    +0.000 NA
ATOM      4  C   UNL     1       3.319   6.379  17.849  0.00  0.00    +0.000 A 
ATOM      5  N   UNL     1       2.408   6.159  18.857  0.00  0.00    +0.000 N 
ATOM      6  N   UNL     1       1.788   7.325  19.148  0.00  0.00    +0.000 NA
BRANCH   5   7
ATOM      7  C   UNL     1       2.102   4.964  19.561  0.00  0.00    +0.000 A 
ATOM      8  C   UNL     1       2.425   4.805  20.913  0.00  0.00    +0.000 A 
ATOM      9  C   UNL     1       2.068   3.626  21.580  0.00  0.00    +0.000 A 
ATOM     10  C   UNL     1       1.401   2.606  20.904  0.00  0.00    +0.000 A 
ATOM     11  C   UNL     1       1.088   2.754  19.558  0.00  0.00    +0.000 A 
ATOM     12  C   UNL     1       1.433   3.929  18.885  0.00  0.00    +0.000 A 
ENDBRANCH   5   7
ENDBRANCH   1   2
BRANCH   1  13
ATOM     13  C   UNL     1       0.611   9.878  19.620  0.00  0.00    +0.000 C 
BRANCH  13  20
ATOM     14  C   UNL     1      -3.775  10.050  13.858  0.00  0.00    +0.000 C 
ATOM     15  C   UNL     1      -3.434  10.360  15.270  0.00  0.00    +0.000 A 
ATOM     16  C   UNL     1      -4.185  11.122  16.145  0.00  0.00    +0.000 A 
ATOM     17  S   UNL     1      -3.367  11.268  17.640  0.00  0.00    +0.000 S 
ATOM     18  C   UNL     1      -2.091  10.316  17.033  0.00  0.00    +0.000 A 
ATOM     19  N   UNL     1      -0.992   9.982  17.786  0.00  0.00    +0.000 N 
ATOM     20  C   UNL     1      -0.615  10.539  18.993  0.00  0.00    +0.000 C 
ATOM     21  O   UNL     1      -1.130  11.516  19.533  0.00  0.00    +0.000 OA
ATOM     22  N   UNL     1      -2.250   9.868  15.806  0.00  0.00    +0.000 NA
ATOM     23  H   UNL     1      -0.408   9.278  17.357  0.00  0.00    +0.000 HD
ENDBRANCH  13  20
ENDBRANCH   1  13
TORSDOF 4
ENDMDL
MODEL 5
REMARK VINA RESULT:      -7.2      5.043      6.759
REMARK  Name = 
REMARK  5 active torsions:
REMARK  status: ('A' for Active; 'I' for Inactive)
REMARK    1  A    between atoms: C_1  and  C_2
REMARK    2  A    between atoms: C_7  and  C_9
REMARK    3  A    between atoms: C_9  and  S_10
REMARK    4  A    between atoms: S_10  and  C_11
REMARK    5  A    between atoms: N_14  and  C_15
REMARK                            x       y       z     vdW  Elec       q    Type
REMARK                         _______ _______ _______ _____ _____    ______ ____
ROOT
ATOM      1  S   UNL     1       2.507   3.788  19.029  0.00  0.00    +0.000 S 
ENDROOT
BRANCH   1   2
ATOM      2  C   UNL     1       2.439   5.525  18.996  0.00  0.00    +0.000 A 
ATOM      3  N   UNL     1       2.968   6.322  18.023  0.00  0.00    +0.000 NA
ATOM      4  C   UNL     1       2.644   7.530  18.435  0.00  0.00    +0.000 A 
ATOM      5  N   UNL     1       1.931   7.464  19.610  0.00  0.00    +0.000 N 
ATOM      6  N   UNL     1       1.838   6.171  19.993  0.00  0.00    +0.000 NA
BRANCH   5   7
ATOM      7  C   UNL     1       1.328   8.504  20.368  0.00  0.00    +0.000 A 
ATOM      8  C   UNL     1       1.140   8.392  21.750  0.00  0.00    +0.000 A 
ATOM      9  C   UNL     1       0.580   9.458  22.465  0.00  0.00    +0.000 A 
ATOM     10  C   UNL     1       0.199  10.627  21.808  0.00  0.00    +0.000 A 
ATOM     11  C   UNL     1       0.373  10.739  20.434  0.00  0.00    +0.000 A 
ATOM     12  C   UNL     1       0.938   9.685  19.712  0.00  0.00    +0.000 A 
ENDBRANCH   5   7
ENDBRANCH   1   2
BRANCH   1  13
ATOM     13  C   UNL     1       4.147   3.469  19.722  0.00  0.00    +0.000 C 
BRANCH  13  20
ATOM     14  C   UNL     1       6.242   3.609  12.790  0.00  0.00    +0.000 C 
ATOM     15  C   UNL     1       6.290   4.086  14.196  0.00  0.00    +0.000 A 
ATOM     16  C   UNL     1       7.158   5.031  14.710  0.00  0.00    +0.000 A 
ATOM     17  S   UNL     1       6.895   5.210  16.390  0.00  0.00    +0.000 S 
ATOM     18  C   UNL     1       5.657   4.040  16.319  0.00  0.00    +0.000 A 
ATOM     19  N   UNL     1       4.925   3.668  17.420  0.00  0.00    +0.000 N 
ATOM     20  C   UNL     1       5.215   3.949  18.741  0.00  0.00    +0.000 C 
ATOM     21  O   UNL     1       6.246   4.471  19.162  0.00  0.00    +0.000 OA
ATOM     22  N   UNL     1       5.403   3.553  15.124  0.00  0.00    +0.000 NA
ATOM     23  H   UNL     1       4.120   3.100  17.195  0.00  0.00    +0.000 HD
ENDBRANCH  13  20
ENDBRANCH   1  13
TORSDOF 4
ENDMDL
MODEL 6
REMARK VINA RESULT:      -7.2      1.951      2.421
REMARK  Name = 
REMARK  5 active torsions:
REMARK  status: ('A' for Active; 'I' for Inactive)
REMARK    1  A    between atoms: C_1  and  C_2
REMARK    2  A    between atoms: C_7  and  C_9
REMARK    3  A    between atoms: C_9  and  S_10
REMARK    4  A    between atoms: S_10  and  C_11
REMARK    5  A    between atoms: N_14  and  C_15
REMARK                            x       y       z     vdW  Elec       q    Type
REMARK                         _______ _______ _______ _____ _____    ______ ____
ROOT
ATOM      1  S   UNL     1       7.857   7.213  18.245  0.00  0.00    +0.000 S 
ENDROOT
BRANCH   1   2
ATOM      2  C   UNL     1       6.545   6.420  17.427  0.00  0.00    +0.000 A 
ATOM      3  N   UNL     1       6.327   6.429  16.081  0.00  0.00    +0.000 NA
ATOM      4  C   UNL     1       5.245   5.687  15.960  0.00  0.00    +0.000 A 
ATOM      5  N   UNL     1       4.831   5.234  17.191  0.00  0.00    +0.000 N 
ATOM      6  N   UNL     1       5.646   5.744  18.142  0.00  0.00    +0.000 NA
BRANCH   5   7
ATOM      7  C   UNL     1       3.762   4.360  17.526  0.00  0.00    +0.000 A 
ATOM      8  C   UNL     1       3.930   2.971  17.556  0.00  0.00    +0.000 A 
ATOM      9  C   UNL     1       2.861   2.148  17.931  0.00  0.00    +0.000 A 
ATOM     10  C   UNL     1       1.627   2.702  18.268  0.00  0.00    +0.000 A 
ATOM     11  C   UNL     1       1.452   4.081  18.229  0.00  0.00    +0.000 A 
ATOM     12  C   UNL     1       2.514   4.911  17.862  0.00  0.00    +0.000 A 
ENDBRANCH   5   7
ENDBRANCH   1   2
BRANCH   1  13
ATOM     13  C   UNL     1       7.720   8.917  17.655  0.00  0.00    +0.000 C 
BRANCH  13  20
ATOM     14  C   UNL     1      11.487  15.104  17.573  0.00  0.00    +0.000 C 
ATOM     15  C   UNL     1      10.902  13.921  18.254  0.00  0.00    +0.000 A 
ATOM     16  C   UNL     1      11.070  13.575  19.582  0.00  0.00    +0.000 A 
ATOM     17  S   UNL     1      10.270  12.098  19.905  0.00  0.00    +0.000 S 
ATOM     18  C   UNL     1       9.756  12.024  18.282  0.00  0.00    +0.000 A 
ATOM     19  N   UNL     1       8.973  11.004  17.798  0.00  0.00    +0.000 N 
ATOM     20  C   UNL     1       8.705   9.800  18.420  0.00  0.00    +0.000 C 
ATOM     21  O   UNL     1       9.225   9.386  19.455  0.00  0.00    +0.000 OA
ATOM     22  N   UNL     1      10.109  13.041  17.526  0.00  0.00    +0.000 NA
ATOM     23  H   UNL     1       8.607  11.181  16.873  0.00  0.00    +0.000 HD
ENDBRANCH  13  20
ENDBRANCH   1  13
TORSDOF 4
ENDMDL
MODEL 7
REMARK VINA RESULT:      -7.2      2.297      8.980
REMARK  Name = 
REMARK  5 active torsions:
REMARK  status: ('A' for Active; 'I' for Inactive)
REMARK    1  A    between atoms: C_1  and  C_2
REMARK    2  A    between atoms: C_7  and  C_9
REMARK    3  A    between atoms: C_9  and  S_10
REMARK    4  A    between atoms: S_10  and  C_11
REMARK    5  A    between atoms: N_14  and  C_15
REMARK                            x       y       z     vdW  Elec       q    Type
REMARK                         _______ _______ _______ _____ _____    ______ ____
ROOT
ATOM      1  S   UNL     1       7.510   5.860  18.379  0.00  0.00    +0.000 S 
ENDROOT
BRANCH   1   2
ATOM      2  C   UNL     1       7.833   7.552  18.148  0.00  0.00    +0.000 A 
ATOM      3  N   UNL     1       7.231   8.356  17.225  0.00  0.00    +0.000 NA
ATOM      4  C   UNL     1       7.790   9.526  17.457  0.00  0.00    +0.000 A 
ATOM      5  N   UNL     1       8.689   9.435  18.494  0.00  0.00    +0.000 N 
ATOM      6  N   UNL     1       8.748   8.150  18.910  0.00  0.00    +0.000 NA
BRANCH   5   7
ATOM      7  C   UNL     1       9.463  10.449  19.120  0.00  0.00    +0.000 A 
ATOM      8  C   UNL     1       9.281  10.787  20.465  0.00  0.00    +0.000 A 
ATOM      9  C   UNL     1      10.093  11.765  21.053  0.00  0.00    +0.000 A 
ATOM     10  C   UNL     1      11.076  12.411  20.305  0.00  0.00    +0.000 A 
ATOM     11  C   UNL     1      11.253  12.086  18.965  0.00  0.00    +0.000 A 
ATOM     12  C   UNL     1      10.453  11.108  18.371  0.00  0.00    +0.000 A 
ENDBRANCH   5   7
ENDBRANCH   1   2
BRANCH   1  13
ATOM     13  C   UNL     1       6.811   5.368  16.785  0.00  0.00    +0.000 C 
BRANCH  13  20
ATOM     14  C   UNL     1       1.973   2.780  21.515  0.00  0.00    +0.000 C 
ATOM     15  C   UNL     1       2.524   2.952  20.145  0.00  0.00    +0.000 A 
ATOM     16  C   UNL     1       2.053   2.350  18.994  0.00  0.00    +0.000 A 
ATOM     17  S   UNL     1       3.038   2.785  17.665  0.00  0.00    +0.000 S 
ATOM     18  C   UNL     1       4.006   3.736  18.696  0.00  0.00    +0.000 A 
ATOM     19  N   UNL     1       5.081   4.461  18.243  0.00  0.00    +0.000 N 
ATOM     20  C   UNL     1       5.697   4.348  17.012  0.00  0.00    +0.000 C 
ATOM     21  O   UNL     1       5.466   3.491  16.162  0.00  0.00    +0.000 OA
ATOM     22  N   UNL     1       3.623   3.779  19.954  0.00  0.00    +0.000 NA
ATOM     23  H   UNL     1       5.449   5.106  18.929  0.00  0.00    +0.000 HD
ENDBRANCH  13  20
ENDBRANCH   1  13
TORSDOF 4
ENDMDL
MODEL 8
REMARK VINA RESULT:      -7.1      2.091      8.785
REMARK  Name = 
REMARK  5 active torsions:
REMARK  status: ('A' for Active; 'I' for Inactive)
REMARK    1  A    between atoms: C_1  and  C_2
REMARK    2  A    between atoms: C_7  and  C_9
REMARK    3  A    between atoms: C_9  and  S_10
REMARK    4  A    between atoms: S_10  and  C_11
REMARK    5  A    between atoms: N_14  and  C_15
REMARK                            x       y       z     vdW  Elec       q    Type
REMARK                         _______ _______ _______ _____ _____    ______ ____
ROOT
ATOM      1  S   UNL     1       7.714   5.781  18.725  0.00  0.00    +0.000 S 
ENDROOT
BRANCH   1   2
ATOM      2  C   UNL     1       7.967   7.455  18.334  0.00  0.00    +0.000 A 
ATOM      3  N   UNL     1       7.351   8.138  17.326  0.00  0.00    +0.000 NA
ATOM      4  C   UNL     1       7.854   9.349  17.451  0.00  0.00    +0.000 A 
ATOM      5  N   UNL     1       8.734   9.400  18.507  0.00  0.00    +0.000 N 
ATOM      6  N   UNL     1       8.840   8.165  19.048  0.00  0.00    +0.000 NA
BRANCH   5   7
ATOM      7  C   UNL     1       9.450  10.504  19.042  0.00  0.00    +0.000 A 
ATOM      8  C   UNL     1      10.213  11.349  18.229  0.00  0.00    +0.000 A 
ATOM      9  C   UNL     1      10.870  12.451  18.792  0.00  0.00    +0.000 A 
ATOM     10  C   UNL     1      10.776  12.707  20.158  0.00  0.00    +0.000 A 
ATOM     11  C   UNL     1      10.029  11.864  20.973  0.00  0.00    +0.000 A 
ATOM     12  C   UNL     1       9.364  10.766  20.421  0.00  0.00    +0.000 A 
ENDBRANCH   5   7
ENDBRANCH   1   2
BRANCH   1  13
ATOM     13  C   UNL     1       6.573   5.240  17.430  0.00  0.00    +0.000 C 
BRANCH  13  20
ATOM     14  C   UNL     1       1.391   2.554  21.720  0.00  0.00    +0.000 C 
ATOM     15  C   UNL     1       1.995   3.626  20.888  0.00  0.00    +0.000 A 
ATOM     16  C   UNL     1       1.423   4.847  20.585  0.00  0.00    +0.000 A 
ATOM     17  S   UNL     1       2.451   5.729  19.541  0.00  0.00    +0.000 S 
ATOM     18  C   UNL     1       3.575   4.449  19.569  0.00  0.00    +0.000 A 
ATOM     19  N   UNL     1       4.770   4.496  18.893  0.00  0.00    +0.000 N 
ATOM     20  C   UNL     1       5.135   5.405  17.919  0.00  0.00    +0.000 C 
ATOM     21  O   UNL     1       4.403   6.247  17.402  0.00  0.00    +0.000 OA
ATOM     22  N   UNL     1       3.253   3.426  20.331  0.00  0.00    +0.000 NA
ATOM     23  H   UNL     1       5.402   3.747  19.140  0.00  0.00    +0.000 HD
ENDBRANCH  13  20
ENDBRANCH   1  13
TORSDOF 4
ENDMDL
MODEL 9
REMARK VINA RESULT:      -7.1      4.829      7.010
REMARK  Name = 
REMARK  5 active torsions:
REMARK  status: ('A' for Active; 'I' for Inactive)
REMARK    1  A    between atoms: C_1  and  C_2
REMARK    2  A    between atoms: C_7  and  C_9
REMARK    3  A    between atoms: C_9  and  S_10
REMARK    4  A    between atoms: S_10  and  C_11
REMARK    5  A    between atoms: N_14  and  C_15
REMARK                            x       y       z     vdW  Elec       q    Type
REMARK                         _______ _______ _______ _____ _____    ______ ____
ROOT
ATOM      1  S   UNL     1       4.951   3.828  18.726  0.00  0.00    +0.000 S 
ENDROOT
BRANCH   1   2
ATOM      2  C   UNL     1       3.673   4.809  19.378  0.00  0.00    +0.000 A 
ATOM      3  N   UNL     1       2.847   4.457  20.405  0.00  0.00    +0.000 NA
ATOM      4  C   UNL     1       2.080   5.521  20.534  0.00  0.00    +0.000 A 
ATOM      5  N   UNL     1       2.441   6.488  19.624  0.00  0.00    +0.000 N 
ATOM      6  N   UNL     1       3.440   6.010  18.849  0.00  0.00    +0.000 NA
BRANCH   5   7
ATOM      7  C   UNL     1       1.938   7.806  19.450  0.00  0.00    +0.000 A 
ATOM      8  C   UNL     1       1.306   8.495  20.491  0.00  0.00    +0.000 A 
ATOM      9  C   UNL     1       0.861   9.807  20.289  0.00  0.00    +0.000 A 
ATOM     10  C   UNL     1       1.035  10.430  19.054  0.00  0.00    +0.000 A 
ATOM     11  C   UNL     1       1.652   9.745  18.013  0.00  0.00    +0.000 A 
ATOM     12  C   UNL     1       2.106   8.439  18.206  0.00  0.00    +0.000 A 
ENDBRANCH   5   7
ENDBRANCH   1   2
BRANCH   1  13
ATOM     13  C   UNL     1       6.195   5.055  18.261  0.00  0.00    +0.000 C 
BRANCH  13  20
ATOM     14  C   UNL     1       4.480   3.154  11.485  0.00  0.00    +0.000 C 
ATOM     15  C   UNL     1       5.411   3.685  12.515  0.00  0.00    +0.000 A 
ATOM     16  C   UNL     1       6.735   4.027  12.321  0.00  0.00    +0.000 A 
ATOM     17  S   UNL     1       7.430   4.524  13.803  0.00  0.00    +0.000 S 
ATOM     18  C   UNL     1       5.941   4.260  14.588  0.00  0.00    +0.000 A 
ATOM     19  N   UNL     1       5.756   4.502  15.928  0.00  0.00    +0.000 N 
ATOM     20  C   UNL     1       6.739   4.726  16.872  0.00  0.00    +0.000 C 
ATOM     21  O   UNL     1       7.952   4.620  16.696  0.00  0.00    +0.000 OA
ATOM     22  N   UNL     1       4.954   3.862  13.815  0.00  0.00    +0.000 NA
ATOM     23  H   UNL     1       4.787   4.466  16.213  0.00  0.00    +0.000 HD
ENDBRANCH  13  20
ENDBRANCH   1  13
TORSDOF 4
ENDMDL
