MODEL 1
REMARK VINA RESULT:      -8.3      0.000      0.000
REMARK  Name = 
REMARK  4 active torsions:
REMARK  status: ('A' for Active; 'I' for Inactive)
REMARK    1  A    between atoms: C_4  and  C_5
REMARK    2  A    between atoms: N_8  and  C_9
REMARK    3  A    between atoms: C_9  and  C_10
REMARK    4  A    between atoms: C_10  and  C_11
REMARK                            x       y       z     vdW  Elec       q    Type
REMARK                         _______ _______ _______ _____ _____    ______ ____
ROOT
ATOM      1  C   UNL     1       1.251   4.234  20.831  0.00  0.00    +0.000 C 
ATOM      2  C   UNL     1       2.399   3.447  21.474  0.00  0.00    +0.000 C 
ATOM      3  C   UNL     1       3.389   2.899  20.445  0.00  0.00    +0.000 C 
ATOM      4  N   UNL     1       2.752   2.062  19.416  0.00  0.00    +0.000 NA
ATOM      5  C   UNL     1       1.659   2.797  18.752  0.00  0.00    +0.000 C 
ATOM      6  C   UNL     1       0.624   3.331  19.751  0.00  0.00    +0.000 C 
ENDROOT
BRANCH   1  10
ATOM      7  C   UNL     1       2.160   8.216  19.313  0.00  0.00    +0.000 A 
ATOM      8  C   UNL     1       1.483   8.082  20.520  0.00  0.00    +0.000 A 
ATOM      9  C   UNL     1       1.189   6.811  21.023  0.00  0.00    +0.000 A 
ATOM     10  C   UNL     1       1.584   5.646  20.346  0.00  0.00    +0.000 A 
ATOM     11  C   UNL     1       2.250   5.808  19.117  0.00  0.00    +0.000 A 
ATOM     12  C   UNL     1       2.537   7.078  18.608  0.00  0.00    +0.000 A 
ENDBRANCH   1  10
BRANCH   4  13
ATOM     13  C   UNL     1       3.755   1.614  18.412  0.00  0.00    +0.000 C 
BRANCH  13  14
ATOM     14  C   UNL     1       3.774   2.507  17.155  0.00  0.00    +0.000 C 
BRANCH  14  15
ATOM     15  C   UNL     1       4.764   3.627  17.202  0.00  0.00    +0.000 A 
ATOM     16  C   UNL     1       4.786   4.809  16.487  0.00  0.00    +0.000 A 
ATOM     17  C   UNL     1       5.798   5.639  17.036  0.00  0.00    +0.000 A 
ATOM     18  C   UNL     1       6.218   6.961  16.788  0.00  0.00    +0.000 A 
ATOM     19  C   UNL     1       7.268   7.499  17.540  0.00  0.00    +0.000 A 
ATOM     20  C   UNL     1       7.895   6.739  18.525  0.00  0.00    +0.000 A 
ATOM     21  C   UNL     1       7.484   5.430  18.799  0.00  0.00    +0.000 A 
ATOM     22  C   UNL     1       6.424   4.910  18.046  0.00  0.00    +0.000 A 
ATOM     23  N   UNL     1       5.786   3.689  18.117  0.00  0.00    +0.000 N 
ATOM     24  H   UNL     1       5.996   2.981  18.808  0.00  0.00    +0.000 HD
ENDBRANCH  14  15
ENDBRANCH  13  14
ENDBRANCH   4  13
TORSDOF 4
ENDMDL
MODEL 2
REMARK VINA RESULT:      -8.3      0.081      1.004
REMARK  Name = 
REMARK  4 active torsions:
REMARK  status: ('A' for Active; 'I' for Inactive)
REMARK    1  A    between atoms: C_4  and  C_5
REMARK    2  A    between atoms: N_8  and  C_9
REMARK    3  A    between atoms: C_9  and  C_10
REMARK    4  A    between atoms: C_10  and  C_11
REMARK                            x       y       z     vdW  Elec       q    Type
REMARK                         _______ _______ _______ _____ _____    ______ ____
ROOT
ATOM      1  C   UNL     1       1.285   4.221  20.878  0.00  0.00    +0.000 C 
ATOM      2  C   UNL     1       2.476   3.484  21.500  0.00  0.00    +0.000 C 
ATOM      3  C   UNL     1       3.443   2.932  20.451  0.00  0.00    +0.000 C 
ATOM      4  N   UNL     1       2.791   2.047  19.473  0.00  0.00    +0.000 NA
ATOM      5  C   UNL     1       1.655   2.732  18.828  0.00  0.00    +0.000 C 
ATOM      6  C   UNL     1       0.643   3.269  19.849  0.00  0.00    +0.000 C 
ENDROOT
BRANCH   1  10
ATOM      7  C   UNL     1       2.111   8.264  19.477  0.00  0.00    +0.000 A 
ATOM      8  C   UNL     1       2.531   7.178  18.718  0.00  0.00    +0.000 A 
ATOM      9  C   UNL     1       2.269   5.875  19.152  0.00  0.00    +0.000 A 
ATOM     10  C   UNL     1       1.561   5.626  20.338  0.00  0.00    +0.000 A 
ATOM     11  C   UNL     1       1.162   6.741  21.098  0.00  0.00    +0.000 A 
ATOM     12  C   UNL     1       1.432   8.045  20.671  0.00  0.00    +0.000 A 
ENDBRANCH   1  10
BRANCH   4  13
ATOM     13  C   UNL     1       3.768   1.594  18.445  0.00  0.00    +0.000 C 
BRANCH  13  14
ATOM     14  C   UNL     1       3.769   2.494  17.193  0.00  0.00    +0.000 C 
BRANCH  14  15
ATOM     15  C   UNL     1       4.761   3.612  17.230  0.00  0.00    +0.000 A 
ATOM     16  C   UNL     1       4.781   4.792  16.510  0.00  0.00    +0.000 A 
ATOM     17  C   UNL     1       5.798   5.621  17.050  0.00  0.00    +0.000 A 
ATOM     18  C   UNL     1       6.219   6.942  16.795  0.00  0.00    +0.000 A 
ATOM     19  C   UNL     1       7.275   7.480  17.538  0.00  0.00    +0.000 A 
ATOM     20  C   UNL     1       7.906   6.723  18.522  0.00  0.00    +0.000 A 
ATOM     21  C   UNL     1       7.494   5.415  18.803  0.00  0.00    +0.000 A 
ATOM     22  C   UNL     1       6.429   4.895  18.059  0.00  0.00    +0.000 A 
ATOM     23  N   UNL     1       5.789   3.675  18.138  0.00  0.00    +0.000 N 
ATOM     24  H   UNL     1       6.002   2.969  18.830  0.00  0.00    +0.000 HD
ENDBRANCH  14  15
ENDBRANCH  13  14
ENDBRANCH   4  13
TORSDOF 4
ENDMDL
MODEL 3
REMARK VINA RESULT:      -8.0      1.682      5.084
REMARK  Name = 
REMARK  4 active torsions:
REMARK  status: ('A' for Active; 'I' for Inactive)
REMARK    1  A    between atoms: C_4  and  C_5
REMARK    2  A    between atoms: N_8  and  C_9
REMARK    3  A    between atoms: C_9  and  C_10
REMARK    4  A    between atoms: C_10  and  C_11
REMARK                            x       y       z     vdW  Elec       q    Type
REMARK                         _______ _______ _______ _____ _____    ______ ____
ROOT
ATOM      1  C   UNL     1       4.074   3.163  17.389  0.00  0.00    +0.000 C 
ATOM      2  C   UNL     1       2.598   3.293  16.994  0.00  0.00    +0.000 C 
ATOM      3  C   UNL     1       1.744   3.919  18.098  0.00  0.00    +0.000 C 
ATOM      4  N   UNL     1       1.836   3.200  19.379  0.00  0.00    +0.000 NA
ATOM      5  C   UNL     1       3.242   3.081  19.809  0.00  0.00    +0.000 C 
ATOM      6  C   UNL     1       4.124   2.422  18.740  0.00  0.00    +0.000 C 
ENDROOT
BRANCH   1  10
ATOM      7  C   UNL     1       6.557   6.742  17.283  0.00  0.00    +0.000 A 
ATOM      8  C   UNL     1       5.426   6.669  16.477  0.00  0.00    +0.000 A 
ATOM      9  C   UNL     1       4.617   5.530  16.503  0.00  0.00    +0.000 A 
ATOM     10  C   UNL     1       4.903   4.448  17.352  0.00  0.00    +0.000 A 
ATOM     11  C   UNL     1       6.062   4.537  18.144  0.00  0.00    +0.000 A 
ATOM     12  C   UNL     1       6.878   5.672  18.112  0.00  0.00    +0.000 A 
ENDBRANCH   1  10
BRANCH   4  13
ATOM     13  C   UNL     1       1.035   3.893  20.425  0.00  0.00    +0.000 C 
BRANCH  13  14
ATOM     14  C   UNL     1       1.858   4.940  21.203  0.00  0.00    +0.000 C 
BRANCH  14  15
ATOM     15  C   UNL     1       1.948   6.278  20.542  0.00  0.00    +0.000 A 
ATOM     16  C   UNL     1       2.569   6.633  19.360  0.00  0.00    +0.000 A 
ATOM     17  C   UNL     1       2.196   7.966  19.047  0.00  0.00    +0.000 A 
ATOM     18  C   UNL     1       2.437   8.816  17.949  0.00  0.00    +0.000 A 
ATOM     19  C   UNL     1       1.894  10.105  17.948  0.00  0.00    +0.000 A 
ATOM     20  C   UNL     1       1.120  10.547  19.018  0.00  0.00    +0.000 A 
ATOM     21  C   UNL     1       0.854   9.715  20.111  0.00  0.00    +0.000 A 
ATOM     22  C   UNL     1       1.395   8.425  20.092  0.00  0.00    +0.000 A 
ATOM     23  N   UNL     1       1.272   7.385  20.992  0.00  0.00    +0.000 N 
ATOM     24  H   UNL     1       0.693   7.420  21.819  0.00  0.00    +0.000 HD
ENDBRANCH  14  15
ENDBRANCH  13  14
ENDBRANCH   4  13
TORSDOF 4
ENDMDL
MODEL 4
REMARK VINA RESULT:      -7.9      1.738      5.140
REMARK  Name = 
REMARK  4 active torsions:
REMARK  status: ('A' for Active; 'I' for Inactive)
REMARK    1  A    between atoms: C_4  and  C_5
REMARK    2  A    between atoms: N_8  and  C_9
REMARK    3  A    between atoms: C_9  and  C_10
REMARK    4  A    between atoms: C_10  and  C_11
REMARK                            x       y       z     vdW  Elec       q    Type
REMARK                         _______ _______ _______ _____ _____    ______ ____
ROOT
ATOM      1  C   UNL     1       4.415   3.156  17.573  0.00  0.00    +0.000 C 
ATOM      2  C   UNL     1       2.970   3.167  17.060  0.00  0.00    +0.000 C 
ATOM      3  C   UNL     1       2.004   3.851  18.029  0.00  0.00    +0.000 C 
ATOM      4  N   UNL     1       2.028   3.266  19.379  0.00  0.00    +0.000 NA
ATOM      5  C   UNL     1       3.400   3.265  19.921  0.00  0.00    +0.000 C 
ATOM      6  C   UNL     1       4.393   2.555  18.992  0.00  0.00    +0.000 C 
ENDROOT
BRANCH   1  10
ATOM      7  C   UNL     1       6.477   6.984  17.287  0.00  0.00    +0.000 A 
ATOM      8  C   UNL     1       7.029   5.966  18.056  0.00  0.00    +0.000 A 
ATOM      9  C   UNL     1       6.382   4.730  18.153  0.00  0.00    +0.000 A 
ATOM     10  C   UNL     1       5.183   4.475  17.467  0.00  0.00    +0.000 A 
ATOM     11  C   UNL     1       4.635   5.527  16.711  0.00  0.00    +0.000 A 
ATOM     12  C   UNL     1       5.276   6.767  16.620  0.00  0.00    +0.000 A 
ENDBRANCH   1  10
BRANCH   4  13
ATOM     13  C   UNL     1       1.117   4.013  20.288  0.00  0.00    +0.000 C 
BRANCH  13  14
ATOM     14  C   UNL     1       1.855   5.083  21.118  0.00  0.00    +0.000 C 
BRANCH  14  15
ATOM     15  C   UNL     1       1.923   6.432  20.477  0.00  0.00    +0.000 A 
ATOM     16  C   UNL     1       2.438   6.794  19.247  0.00  0.00    +0.000 A 
ATOM     17  C   UNL     1       2.077   8.144  18.997  0.00  0.00    +0.000 A 
ATOM     18  C   UNL     1       2.238   9.010  17.897  0.00  0.00    +0.000 A 
ATOM     19  C   UNL     1       1.737  10.314  17.973  0.00  0.00    +0.000 A 
ATOM     20  C   UNL     1       1.084  10.756  19.121  0.00  0.00    +0.000 A 
ATOM     21  C   UNL     1       0.899   9.908  20.219  0.00  0.00    +0.000 A 
ATOM     22  C   UNL     1       1.396   8.603  20.123  0.00  0.00    +0.000 A 
ATOM     23  N   UNL     1       1.327   7.548  21.010  0.00  0.00    +0.000 N 
ATOM     24  H   UNL     1       0.832   7.582  21.891  0.00  0.00    +0.000 HD
ENDBRANCH  14  15
ENDBRANCH  13  14
ENDBRANCH   4  13
TORSDOF 4
ENDMDL
MODEL 5
REMARK VINA RESULT:      -7.7      2.555      6.590
REMARK  Name = 
REMARK  4 active torsions:
REMARK  status: ('A' for Active; 'I' for Inactive)
REMARK    1  A    between atoms: C_4  and  C_5
REMARK    2  A    between atoms: N_8  and  C_9
REMARK    3  A    between atoms: C_9  and  C_10
REMARK    4  A    between atoms: C_10  and  C_11
REMARK                            x       y       z     vdW  Elec       q    Type
REMARK                         _______ _______ _______ _____ _____    ______ ____
ROOT
ATOM      1  C   UNL     1       3.747   3.054  17.556  0.00  0.00    +0.000 C 
ATOM      2  C   UNL     1       2.357   3.645  17.294  0.00  0.00    +0.000 C 
ATOM      3  C   UNL     1       2.007   4.781  18.257  0.00  0.00    +0.000 C 
ATOM      4  N   UNL     1       2.103   4.390  19.672  0.00  0.00    +0.000 NA
ATOM      5  C   UNL     1       3.439   3.843  19.972  0.00  0.00    +0.000 C 
ATOM      6  C   UNL     1       3.812   2.675  19.048  0.00  0.00    +0.000 C 
ENDROOT
BRANCH   1  10
ATOM      7  C   UNL     1       7.052   5.485  16.087  0.00  0.00    +0.000 A 
ATOM      8  C   UNL     1       6.949   5.221  17.448  0.00  0.00    +0.000 A 
ATOM      9  C   UNL     1       5.898   4.438  17.934  0.00  0.00    +0.000 A 
ATOM     10  C   UNL     1       4.939   3.882  17.071  0.00  0.00    +0.000 A 
ATOM     11  C   UNL     1       5.054   4.178  15.701  0.00  0.00    +0.000 A 
ATOM     12  C   UNL     1       6.100   4.969  15.214  0.00  0.00    +0.000 A 
ENDBRANCH   1  10
BRANCH   4  13
ATOM     13  C   UNL     1       1.813   5.552  20.556  0.00  0.00    +0.000 C 
BRANCH  13  14
ATOM     14  C   UNL     1       2.234   6.894  19.926  0.00  0.00    +0.000 C 
BRANCH  14  15
ATOM     15  C   UNL     1       1.542   8.093  20.491  0.00  0.00    +0.000 A 
ATOM     16  C   UNL     1       1.054   9.212  19.844  0.00  0.00    +0.000 A 
ATOM     17  C   UNL     1       0.294   9.965  20.776  0.00  0.00    +0.000 A 
ATOM     18  C   UNL     1      -0.498  11.127  20.678  0.00  0.00    +0.000 A 
ATOM     19  C   UNL     1      -1.145  11.614  21.818  0.00  0.00    +0.000 A 
ATOM     20  C   UNL     1      -1.011  10.960  23.041  0.00  0.00    +0.000 A 
ATOM     21  C   UNL     1      -0.242   9.796  23.158  0.00  0.00    +0.000 A 
ATOM     22  C   UNL     1       0.389   9.315  22.005  0.00  0.00    +0.000 A 
ATOM     23  N   UNL     1       1.162   8.190  21.807  0.00  0.00    +0.000 N 
ATOM     24  H   UNL     1       1.345   7.497  22.521  0.00  0.00    +0.000 HD
ENDBRANCH  14  15
ENDBRANCH  13  14
ENDBRANCH   4  13
TORSDOF 4
ENDMDL
MODEL 6
REMARK VINA RESULT:      -7.7      4.191      6.718
REMARK  Name = 
REMARK  4 active torsions:
REMARK  status: ('A' for Active; 'I' for Inactive)
REMARK    1  A    between atoms: C_4  and  C_5
REMARK    2  A    between atoms: N_8  and  C_9
REMARK    3  A    between atoms: C_9  and  C_10
REMARK    4  A    between atoms: C_10  and  C_11
REMARK                            x       y       z     vdW  Elec       q    Type
REMARK                         _______ _______ _______ _____ _____    ______ ____
ROOT
ATOM      1  C   UNL     1       5.632   4.616  16.854  0.00  0.00    +0.000 C 
ATOM      2  C   UNL     1       7.030   4.298  17.399  0.00  0.00    +0.000 C 
ATOM      3  C   UNL     1       7.621   5.449  18.215  0.00  0.00    +0.000 C 
ATOM      4  N   UNL     1       7.674   6.718  17.473  0.00  0.00    +0.000 NA
ATOM      5  C   UNL     1       6.339   7.074  16.956  0.00  0.00    +0.000 C 
ATOM      6  C   UNL     1       5.728   5.957  16.101  0.00  0.00    +0.000 C 
ENDROOT
BRANCH   1  10
ATOM      7  C   UNL     1       2.255   4.407  19.600  0.00  0.00    +0.000 A 
ATOM      8  C   UNL     1       3.402   3.668  19.869  0.00  0.00    +0.000 A 
ATOM      9  C   UNL     1       4.496   3.729  19.000  0.00  0.00    +0.000 A 
ATOM     10  C   UNL     1       4.480   4.545  17.858  0.00  0.00    +0.000 A 
ATOM     11  C   UNL     1       3.302   5.269  17.597  0.00  0.00    +0.000 A 
ATOM     12  C   UNL     1       2.203   5.202  18.460  0.00  0.00    +0.000 A 
ENDBRANCH   1  10
BRANCH   4  13
ATOM     13  C   UNL     1       8.198   7.809  18.339  0.00  0.00    +0.000 C 
BRANCH  13  14
ATOM     14  C   UNL     1       7.924   9.210  17.757  0.00  0.00    +0.000 C 
BRANCH  14  15
ATOM     15  C   UNL     1       8.778  10.299  18.323  0.00  0.00    +0.000 A 
ATOM     16  C   UNL     1       9.796  10.221  19.254  0.00  0.00    +0.000 A 
ATOM     17  C   UNL     1      10.445  11.482  19.306  0.00  0.00    +0.000 A 
ATOM     18  C   UNL     1      11.579  11.970  19.986  0.00  0.00    +0.000 A 
ATOM     19  C   UNL     1      11.971  13.300  19.800  0.00  0.00    +0.000 A 
ATOM     20  C   UNL     1      11.251  14.137  18.950  0.00  0.00    +0.000 A 
ATOM     21  C   UNL     1      10.131  13.669  18.253  0.00  0.00    +0.000 A 
ATOM     22  C   UNL     1       9.759  12.334  18.441  0.00  0.00    +0.000 A 
ATOM     23  N   UNL     1       8.745  11.594  17.868  0.00  0.00    +0.000 N 
ATOM     24  H   UNL     1       8.124  11.946  17.151  0.00  0.00    +0.000 HD
ENDBRANCH  14  15
ENDBRANCH  13  14
ENDBRANCH   4  13
TORSDOF 4
ENDMDL
MODEL 7
REMARK VINA RESULT:      -7.6      3.844      6.001
REMARK  Name = 
REMARK  4 active torsions:
REMARK  status: ('A' for Active; 'I' for Inactive)
REMARK    1  A    between atoms: C_4  and  C_5
REMARK    2  A    between atoms: N_8  and  C_9
REMARK    3  A    between atoms: C_9  and  C_10
REMARK    4  A    between atoms: C_10  and  C_11
REMARK                            x       y       z     vdW  Elec       q    Type
REMARK                         _______ _______ _______ _____ _____    ______ ____
ROOT
ATOM      1  C   UNL     1       4.458   5.058  17.956  0.00  0.00    +0.000 C 
ATOM      2  C   UNL     1       5.624   4.503  18.783  0.00  0.00    +0.000 C 
ATOM      3  C   UNL     1       6.662   5.571  19.132  0.00  0.00    +0.000 C 
ATOM      4  N   UNL     1       7.201   6.262  17.950  0.00  0.00    +0.000 NA
ATOM      5  C   UNL     1       6.109   6.837  17.141  0.00  0.00    +0.000 C 
ATOM      6  C   UNL     1       5.065   5.787  16.741  0.00  0.00    +0.000 C 
ENDROOT
BRANCH   1  10
ATOM      7  C   UNL     1       1.548   7.351  20.249  0.00  0.00    +0.000 A 
ATOM      8  C   UNL     1       2.112   7.909  19.108  0.00  0.00    +0.000 A 
ATOM      9  C   UNL     1       3.043   7.183  18.358  0.00  0.00    +0.000 A 
ATOM     10  C   UNL     1       3.414   5.877  18.717  0.00  0.00    +0.000 A 
ATOM     11  C   UNL     1       2.844   5.342  19.886  0.00  0.00    +0.000 A 
ATOM     12  C   UNL     1       1.919   6.069  20.642  0.00  0.00    +0.000 A 
ENDBRANCH   1  10
BRANCH   4  13
ATOM     13  C   UNL     1       8.155   7.329  18.358  0.00  0.00    +0.000 C 
BRANCH  13  14
ATOM     14  C   UNL     1       7.871   8.675  17.662  0.00  0.00    +0.000 C 
BRANCH  14  15
ATOM     15  C   UNL     1       8.545   9.854  18.288  0.00  0.00    +0.000 A 
ATOM     16  C   UNL     1       9.323   9.918  19.427  0.00  0.00    +0.000 A 
ATOM     17  C   UNL     1       9.911  11.208  19.490  0.00  0.00    +0.000 A 
ATOM     18  C   UNL     1      10.846  11.815  20.353  0.00  0.00    +0.000 A 
ATOM     19  C   UNL     1      11.237  13.137  20.119  0.00  0.00    +0.000 A 
ATOM     20  C   UNL     1      10.712  13.851  19.044  0.00  0.00    +0.000 A 
ATOM     21  C   UNL     1       9.794  13.263  18.165  0.00  0.00    +0.000 A 
ATOM     22  C   UNL     1       9.422  11.936  18.406  0.00  0.00    +0.000 A 
ATOM     23  N   UNL     1       8.586  11.095  17.701  0.00  0.00    +0.000 N 
ATOM     24  H   UNL     1       8.138  11.344  16.829  0.00  0.00    +0.000 HD
ENDBRANCH  14  15
ENDBRANCH  13  14
ENDBRANCH   4  13
TORSDOF 4
ENDMDL
MODEL 8
REMARK VINA RESULT:      -7.6      0.573      1.234
REMARK  Name = 
REMARK  4 active torsions:
REMARK  status: ('A' for Active; 'I' for Inactive)
REMARK    1  A    between atoms: C_4  and  C_5
REMARK    2  A    between atoms: N_8  and  C_9
REMARK    3  A    between atoms: C_9  and  C_10
REMARK    4  A    between atoms: C_10  and  C_11
REMARK                            x       y       z     vdW  Elec       q    Type
REMARK                         _______ _______ _______ _____ _____    ______ ____
ROOT
ATOM      1  C   UNL     1       1.194   4.101  20.787  0.00  0.00    +0.000 C 
ATOM      2  C   UNL     1       2.330   3.270  21.396  0.00  0.00    +0.000 C 
ATOM      3  C   UNL     1       3.339   2.793  20.349  0.00  0.00    +0.000 C 
ATOM      4  N   UNL     1       2.720   2.029  19.254  0.00  0.00    +0.000 NA
ATOM      5  C   UNL     1       1.639   2.809  18.622  0.00  0.00    +0.000 C 
ATOM      6  C   UNL     1       0.587   3.274  19.637  0.00  0.00    +0.000 C 
ENDROOT
BRANCH   1  10
ATOM      7  C   UNL     1       2.133   8.176  19.562  0.00  0.00    +0.000 A 
ATOM      8  C   UNL     1       1.415   7.962  20.733  0.00  0.00    +0.000 A 
ATOM      9  C   UNL     1       1.111   6.660  21.142  0.00  0.00    +0.000 A 
ATOM     10  C   UNL     1       1.536   5.542  20.406  0.00  0.00    +0.000 A 
ATOM     11  C   UNL     1       2.244   5.785  19.215  0.00  0.00    +0.000 A 
ATOM     12  C   UNL     1       2.542   7.087  18.800  0.00  0.00    +0.000 A 
ENDBRANCH   1  10
BRANCH   4  13
ATOM     13  C   UNL     1       3.741   1.649  18.240  0.00  0.00    +0.000 C 
BRANCH  13  14
ATOM     14  C   UNL     1       3.913   2.720  17.144  0.00  0.00    +0.000 C 
BRANCH  14  15
ATOM     15  C   UNL     1       4.794   3.867  17.526  0.00  0.00    +0.000 A 
ATOM     16  C   UNL     1       5.725   3.957  18.542  0.00  0.00    +0.000 A 
ATOM     17  C   UNL     1       6.456   5.161  18.366  0.00  0.00    +0.000 A 
ATOM     18  C   UNL     1       7.563   5.737  19.022  0.00  0.00    +0.000 A 
ATOM     19  C   UNL     1       8.062   6.965  18.575  0.00  0.00    +0.000 A 
ATOM     20  C   UNL     1       7.474   7.615  17.492  0.00  0.00    +0.000 A 
ATOM     21  C   UNL     1       6.384   7.055  16.817  0.00  0.00    +0.000 A 
ATOM     22  C   UNL     1       5.904   5.821  17.269  0.00  0.00    +0.000 A 
ATOM     23  N   UNL     1       4.890   5.019  16.786  0.00  0.00    +0.000 N 
ATOM     24  H   UNL     1       4.356   5.225  15.952  0.00  0.00    +0.000 HD
ENDBRANCH  14  15
ENDBRANCH  13  14
ENDBRANCH   4  13
TORSDOF 4
ENDMDL
MODEL 9
REMARK VINA RESULT:      -7.6      3.961      6.406
REMARK  Name = 
REMARK  4 active torsions:
REMARK  status: ('A' for Active; 'I' for Inactive)
REMARK    1  A    between atoms: C_4  and  C_5
REMARK    2  A    between atoms: N_8  and  C_9
REMARK    3  A    between atoms: C_9  and  C_10
REMARK    4  A    between atoms: C_10  and  C_11
REMARK                            x       y       z     vdW  Elec       q    Type
REMARK                         _______ _______ _______ _____ _____    ______ ____
ROOT
ATOM      1  C   UNL     1       5.621   4.273  16.982  0.00  0.00    +0.000 C 
ATOM      2  C   UNL     1       6.993   4.447  17.644  0.00  0.00    +0.000 C 
ATOM      3  C   UNL     1       7.278   5.896  18.043  0.00  0.00    +0.000 C 
ATOM      4  N   UNL     1       7.167   6.838  16.919  0.00  0.00    +0.000 NA
ATOM      5  C   UNL     1       5.846   6.723  16.272  0.00  0.00    +0.000 C 
ATOM      6  C   UNL     1       5.540   5.288  15.824  0.00  0.00    +0.000 C 
ENDROOT
BRANCH   1  10
ATOM      7  C   UNL     1       2.260   4.333  19.753  0.00  0.00    +0.000 A 
ATOM      8  C   UNL     1       2.228   5.140  18.622  0.00  0.00    +0.000 A 
ATOM      9  C   UNL     1       3.297   5.128  17.721  0.00  0.00    +0.000 A 
ATOM     10  C   UNL     1       4.409   4.294  17.915  0.00  0.00    +0.000 A 
ATOM     11  C   UNL     1       4.427   3.499  19.076  0.00  0.00    +0.000 A 
ATOM     12  C   UNL     1       3.363   3.517  19.983  0.00  0.00    +0.000 A 
ENDBRANCH   1  10
BRANCH   4  13
ATOM     13  C   UNL     1       7.392   8.235  17.383  0.00  0.00    +0.000 C 
BRANCH  13  14
ATOM     14  C   UNL     1       8.430   8.320  18.520  0.00  0.00    +0.000 C 
BRANCH  14  15
ATOM     15  C   UNL     1       8.967   9.692  18.771  0.00  0.00    +0.000 A 
ATOM     16  C   UNL     1       8.908  10.818  17.973  0.00  0.00    +0.000 A 
ATOM     17  C   UNL     1       9.366  11.925  18.734  0.00  0.00    +0.000 A 
ATOM     18  C   UNL     1       9.448  13.311  18.491  0.00  0.00    +0.000 A 
ATOM     19  C   UNL     1       9.949  14.153  19.489  0.00  0.00    +0.000 A 
ATOM     20  C   UNL     1      10.363  13.632  20.712  0.00  0.00    +0.000 A 
ATOM     21  C   UNL     1      10.276  12.261  20.981  0.00  0.00    +0.000 A 
ATOM     22  C   UNL     1       9.761  11.434  19.977  0.00  0.00    +0.000 A 
ATOM     23  N   UNL     1       9.521  10.075  19.968  0.00  0.00    +0.000 N 
ATOM     24  H   UNL     1       9.659   9.471  20.768  0.00  0.00    +0.000 HD
ENDBRANCH  14  15
ENDBRANCH  13  14
ENDBRANCH   4  13
TORSDOF 4
ENDMDL
