MODEL 1
REMARK VINA RESULT:      -6.0      0.000      0.000
REMARK  Name = 
REMARK  4 active torsions:
REMARK  status: ('A' for Active; 'I' for Inactive)
REMARK    1  A    between atoms: N_1  and  C_2
REMARK    2  A    between atoms: C_2  and  C_3
REMARK    3  A    between atoms: C_3  and  C_4
REMARK    4  A    between atoms: C_7  and  C_8
REMARK                            x       y       z     vdW  Elec       q    Type
REMARK                         _______ _______ _______ _____ _____    ______ ____
ROOT
ATOM      1  C   UNL     1       4.127   5.267  17.072  0.00  0.00    +0.000 A 
ATOM      2  C   UNL     1       3.262   5.921  17.962  0.00  0.00    +0.000 A 
ATOM      3  C   UNL     1       2.321   5.197  18.700  0.00  0.00    +0.000 A 
ATOM      4  C   UNL     1       2.216   3.807  18.561  0.00  0.00    +0.000 A 
ATOM      5  C   UNL     1       3.073   3.154  17.663  0.00  0.00    +0.000 A 
ATOM      6  C   UNL     1       4.018   3.878  16.929  0.00  0.00    +0.000 A 
ENDROOT
BRANCH   4   7
ATOM      7  C   UNL     1       1.199   3.018  19.348  0.00  0.00    +0.000 C 
ATOM      8  F   UNL     1       0.423   3.788  20.162  0.00  0.00    +0.000 F 
ATOM      9  F   UNL     1       0.332   2.334  18.549  0.00  0.00    +0.000 F 
ATOM     10  F   UNL     1       1.772   2.086  20.159  0.00  0.00    +0.000 F 
ENDBRANCH   4   7
BRANCH   1  11
ATOM     11  C   UNL     1       5.129   6.041  16.244  0.00  0.00    +0.000 C 
BRANCH  11  12
ATOM     12  C   UNL     1       5.892   5.176  15.233  0.00  0.00    +0.000 C 
BRANCH  12  13
ATOM     13  N   UNL     1       7.334   5.401  15.334  0.00  0.00    +0.000 NA
ATOM     14  H   UNL     1       7.821   4.755  14.714  0.00  0.00    +0.000 HD
ATOM     15  H   UNL     1       7.652   5.181  16.279  0.00  0.00    +0.000 HD
ENDBRANCH  12  13
ENDBRANCH  11  12
ENDBRANCH   1  11
TORSDOF 4
ENDMDL
MODEL 2
REMARK VINA RESULT:      -6.0      0.783      1.313
REMARK  Name = 
REMARK  4 active torsions:
REMARK  status: ('A' for Active; 'I' for Inactive)
REMARK    1  A    between atoms: N_1  and  C_2
REMARK    2  A    between atoms: C_2  and  C_3
REMARK    3  A    between atoms: C_3  and  C_4
REMARK    4  A    between atoms: C_7  and  C_8
REMARK                            x       y       z     vdW  Elec       q    Type
REMARK                         _______ _______ _______ _____ _____    ______ ____
ROOT
ATOM      1  C   UNL     1       4.334   4.724  17.099  0.00  0.00    +0.000 A 
ATOM      2  C   UNL     1       3.482   5.554  17.841  0.00  0.00    +0.000 A 
ATOM      3  C   UNL     1       2.447   5.008  18.606  0.00  0.00    +0.000 A 
ATOM      4  C   UNL     1       2.234   3.624  18.640  0.00  0.00    +0.000 A 
ATOM      5  C   UNL     1       3.079   2.794  17.888  0.00  0.00    +0.000 A 
ATOM      6  C   UNL     1       4.118   3.340  17.128  0.00  0.00    +0.000 A 
ENDROOT
BRANCH   4   7
ATOM      7  C   UNL     1       1.115   3.026  19.457  0.00  0.00    +0.000 C 
ATOM      8  F   UNL     1       0.202   2.341  18.713  0.00  0.00    +0.000 F 
ATOM      9  F   UNL     1       1.563   2.145  20.395  0.00  0.00    +0.000 F 
ATOM     10  F   UNL     1       0.404   3.967  20.139  0.00  0.00    +0.000 F 
ENDBRANCH   4   7
BRANCH   1  11
ATOM     11  C   UNL     1       5.439   5.302  16.242  0.00  0.00    +0.000 C 
BRANCH  11  12
ATOM     12  C   UNL     1       6.613   4.341  16.017  0.00  0.00    +0.000 C 
BRANCH  12  13
ATOM     13  N   UNL     1       7.582   4.431  17.109  0.00  0.00    +0.000 NA
ATOM     14  H   UNL     1       8.007   5.358  17.107  0.00  0.00    +0.000 HD
ATOM     15  H   UNL     1       8.342   3.770  16.952  0.00  0.00    +0.000 HD
ENDBRANCH  12  13
ENDBRANCH  11  12
ENDBRANCH   1  11
TORSDOF 4
ENDMDL
MODEL 3
REMARK VINA RESULT:      -5.9      0.647      1.890
REMARK  Name = 
REMARK  4 active torsions:
REMARK  status: ('A' for Active; 'I' for Inactive)
REMARK    1  A    between atoms: N_1  and  C_2
REMARK    2  A    between atoms: C_2  and  C_3
REMARK    3  A    between atoms: C_3  and  C_4
REMARK    4  A    between atoms: C_7  and  C_8
REMARK                            x       y       z     vdW  Elec       q    Type
REMARK                         _______ _______ _______ _____ _____    ______ ____
ROOT
ATOM      1  C   UNL     1       4.127   5.081  17.003  0.00  0.00    +0.000 A 
ATOM      2  C   UNL     1       4.017   3.685  16.947  0.00  0.00    +0.000 A 
ATOM      3  C   UNL     1       3.050   3.016  17.705  0.00  0.00    +0.000 A 
ATOM      4  C   UNL     1       2.179   3.726  18.541  0.00  0.00    +0.000 A 
ATOM      5  C   UNL     1       2.297   5.122  18.607  0.00  0.00    +0.000 A 
ATOM      6  C   UNL     1       3.259   5.790  17.845  0.00  0.00    +0.000 A 
ENDROOT
BRANCH   4   7
ATOM      7  C   UNL     1       1.138   3.012  19.369  0.00  0.00    +0.000 C 
ATOM      8  F   UNL     1       1.659   2.086  20.221  0.00  0.00    +0.000 F 
ATOM      9  F   UNL     1       0.412   3.864  20.147  0.00  0.00    +0.000 F 
ATOM     10  F   UNL     1       0.231   2.342  18.605  0.00  0.00    +0.000 F 
ENDBRANCH   4   7
BRANCH   1  11
ATOM     11  C   UNL     1       5.187   5.815  16.213  0.00  0.00    +0.000 C 
BRANCH  11  12
ATOM     12  C   UNL     1       6.110   6.686  17.076  0.00  0.00    +0.000 C 
BRANCH  12  13
ATOM     13  N   UNL     1       7.487   6.638  16.585  0.00  0.00    +0.000 NA
ATOM     14  H   UNL     1       7.493   6.804  15.580  0.00  0.00    +0.000 HD
ATOM     15  H   UNL     1       7.869   5.701  16.720  0.00  0.00    +0.000 HD
ENDBRANCH  12  13
ENDBRANCH  11  12
ENDBRANCH   1  11
TORSDOF 4
ENDMDL
MODEL 4
REMARK VINA RESULT:      -5.9      1.592      2.050
REMARK  Name = 
REMARK  4 active torsions:
REMARK  status: ('A' for Active; 'I' for Inactive)
REMARK    1  A    between atoms: N_1  and  C_2
REMARK    2  A    between atoms: C_2  and  C_3
REMARK    3  A    between atoms: C_3  and  C_4
REMARK    4  A    between atoms: C_7  and  C_8
REMARK                            x       y       z     vdW  Elec       q    Type
REMARK                         _______ _______ _______ _____ _____    ______ ____
ROOT
ATOM      1  C   UNL     1       4.660   4.482  17.894  0.00  0.00    +0.000 A 
ATOM      2  C   UNL     1       4.747   3.761  19.093  0.00  0.00    +0.000 A 
ATOM      3  C   UNL     1       3.591   3.321  19.745  0.00  0.00    +0.000 A 
ATOM      4  C   UNL     1       2.323   3.598  19.219  0.00  0.00    +0.000 A 
ATOM      5  C   UNL     1       2.234   4.329  18.026  0.00  0.00    +0.000 A 
ATOM      6  C   UNL     1       3.391   4.764  17.371  0.00  0.00    +0.000 A 
ENDROOT
BRANCH   4   7
ATOM      7  C   UNL     1       1.069   3.133  19.919  0.00  0.00    +0.000 C 
ATOM      8  F   UNL     1       1.310   2.314  20.981  0.00  0.00    +0.000 F 
ATOM      9  F   UNL     1       0.328   4.167  20.410  0.00  0.00    +0.000 F 
ATOM     10  F   UNL     1       0.237   2.436  19.096  0.00  0.00    +0.000 F 
ENDBRANCH   4   7
BRANCH   1  11
ATOM     11  C   UNL     1       5.900   4.991  17.195  0.00  0.00    +0.000 C 
BRANCH  11  12
ATOM     12  C   UNL     1       7.137   5.056  18.101  0.00  0.00    +0.000 C 
BRANCH  12  13
ATOM     13  N   UNL     1       8.158   4.103  17.664  0.00  0.00    +0.000 NA
ATOM     14  H   UNL     1       9.073   4.418  17.984  0.00  0.00    +0.000 HD
ATOM     15  H   UNL     1       8.203   4.090  16.645  0.00  0.00    +0.000 HD
ENDBRANCH  12  13
ENDBRANCH  11  12
ENDBRANCH   1  11
TORSDOF 4
ENDMDL
MODEL 5
REMARK VINA RESULT:      -5.9      2.441      3.037
REMARK  Name = 
REMARK  4 active torsions:
REMARK  status: ('A' for Active; 'I' for Inactive)
REMARK    1  A    between atoms: N_1  and  C_2
REMARK    2  A    between atoms: C_2  and  C_3
REMARK    3  A    between atoms: C_3  and  C_4
REMARK    4  A    between atoms: C_7  and  C_8
REMARK                            x       y       z     vdW  Elec       q    Type
REMARK                         _______ _______ _______ _____ _____    ______ ____
ROOT
ATOM      1  C   UNL     1       5.890   4.727  18.109  0.00  0.00    +0.000 A 
ATOM      2  C   UNL     1       5.253   4.118  17.019  0.00  0.00    +0.000 A 
ATOM      3  C   UNL     1       3.876   3.876  17.043  0.00  0.00    +0.000 A 
ATOM      4  C   UNL     1       3.106   4.229  18.159  0.00  0.00    +0.000 A 
ATOM      5  C   UNL     1       3.745   4.828  19.255  0.00  0.00    +0.000 A 
ATOM      6  C   UNL     1       5.120   5.075  19.228  0.00  0.00    +0.000 A 
ENDROOT
BRANCH   4   7
ATOM      7  C   UNL     1       1.621   3.966  18.198  0.00  0.00    +0.000 C 
ATOM      8  F   UNL     1       1.296   2.651  18.040  0.00  0.00    +0.000 F 
ATOM      9  F   UNL     1       1.050   4.349  19.375  0.00  0.00    +0.000 F 
ATOM     10  F   UNL     1       0.945   4.633  17.221  0.00  0.00    +0.000 F 
ENDBRANCH   4   7
BRANCH   1  11
ATOM     11  C   UNL     1       7.383   4.967  18.109  0.00  0.00    +0.000 C 
BRANCH  11  12
ATOM     12  C   UNL     1       7.837   6.034  19.113  0.00  0.00    +0.000 C 
BRANCH  12  13
ATOM     13  N   UNL     1       8.254   5.423  20.375  0.00  0.00    +0.000 NA
ATOM     14  H   UNL     1       9.210   5.706  20.588  0.00  0.00    +0.000 HD
ATOM     15  H   UNL     1       8.274   4.408  20.277  0.00  0.00    +0.000 HD
ENDBRANCH  12  13
ENDBRANCH  11  12
ENDBRANCH   1  11
TORSDOF 4
ENDMDL
MODEL 6
REMARK VINA RESULT:      -5.9      1.466      2.065
REMARK  Name = 
REMARK  4 active torsions:
REMARK  status: ('A' for Active; 'I' for Inactive)
REMARK    1  A    between atoms: N_1  and  C_2
REMARK    2  A    between atoms: C_2  and  C_3
REMARK    3  A    between atoms: C_3  and  C_4
REMARK    4  A    between atoms: C_7  and  C_8
REMARK                            x       y       z     vdW  Elec       q    Type
REMARK                         _______ _______ _______ _____ _____    ______ ____
ROOT
ATOM      1  C   UNL     1       4.431   4.338  17.219  0.00  0.00    +0.000 A 
ATOM      2  C   UNL     1       4.768   5.151  18.310  0.00  0.00    +0.000 A 
ATOM      3  C   UNL     1       3.902   5.272  19.401  0.00  0.00    +0.000 A 
ATOM      4  C   UNL     1       2.678   4.591  19.423  0.00  0.00    +0.000 A 
ATOM      5  C   UNL     1       2.335   3.787  18.326  0.00  0.00    +0.000 A 
ATOM      6  C   UNL     1       3.204   3.662  17.238  0.00  0.00    +0.000 A 
ENDROOT
BRANCH   4   7
ATOM      7  C   UNL     1       1.733   4.721  20.593  0.00  0.00    +0.000 C 
ATOM      8  F   UNL     1       0.581   4.007  20.445  0.00  0.00    +0.000 F 
ATOM      9  F   UNL     1       2.285   4.293  21.763  0.00  0.00    +0.000 F 
ATOM     10  F   UNL     1       1.344   6.007  20.812  0.00  0.00    +0.000 F 
ENDBRANCH   4   7
BRANCH   1  11
ATOM     11  C   UNL     1       5.344   4.222  16.018  0.00  0.00    +0.000 C 
BRANCH  11  12
ATOM     12  C   UNL     1       6.807   4.574  16.319  0.00  0.00    +0.000 C 
BRANCH  12  13
ATOM     13  N   UNL     1       7.440   5.215  15.166  0.00  0.00    +0.000 NA
ATOM     14  H   UNL     1       8.453   5.147  15.255  0.00  0.00    +0.000 HD
ATOM     15  H   UNL     1       7.221   6.212  15.163  0.00  0.00    +0.000 HD
ENDBRANCH  12  13
ENDBRANCH  11  12
ENDBRANCH   1  11
TORSDOF 4
ENDMDL
MODEL 7
REMARK VINA RESULT:      -5.9      1.454      1.807
REMARK  Name = 
REMARK  4 active torsions:
REMARK  status: ('A' for Active; 'I' for Inactive)
REMARK    1  A    between atoms: N_1  and  C_2
REMARK    2  A    between atoms: C_2  and  C_3
REMARK    3  A    between atoms: C_3  and  C_4
REMARK    4  A    between atoms: C_7  and  C_8
REMARK                            x       y       z     vdW  Elec       q    Type
REMARK                         _______ _______ _______ _____ _____    ______ ____
ROOT
ATOM      1  C   UNL     1       4.391   4.376  17.165  0.00  0.00    +0.000 A 
ATOM      2  C   UNL     1       4.740   5.213  18.234  0.00  0.00    +0.000 A 
ATOM      3  C   UNL     1       3.890   5.352  19.336  0.00  0.00    +0.000 A 
ATOM      4  C   UNL     1       2.670   4.665  19.390  0.00  0.00    +0.000 A 
ATOM      5  C   UNL     1       2.316   3.836  18.316  0.00  0.00    +0.000 A 
ATOM      6  C   UNL     1       3.168   3.694  17.217  0.00  0.00    +0.000 A 
ENDROOT
BRANCH   4   7
ATOM      7  C   UNL     1       1.743   4.814  20.572  0.00  0.00    +0.000 C 
ATOM      8  F   UNL     1       1.413   6.108  20.846  0.00  0.00    +0.000 F 
ATOM      9  F   UNL     1       0.560   4.159  20.396  0.00  0.00    +0.000 F 
ATOM     10  F   UNL     1       2.277   4.318  21.722  0.00  0.00    +0.000 F 
ENDBRANCH   4   7
BRANCH   1  11
ATOM     11  C   UNL     1       5.286   4.240  15.953  0.00  0.00    +0.000 C 
BRANCH  11  12
ATOM     12  C   UNL     1       6.773   4.476  16.254  0.00  0.00    +0.000 C 
BRANCH  12  13
ATOM     13  N   UNL     1       7.352   5.433  15.311  0.00  0.00    +0.000 NA
ATOM     14  H   UNL     1       8.294   5.134  15.062  0.00  0.00    +0.000 HD
ATOM     15  H   UNL     1       7.453   6.343  15.761  0.00  0.00    +0.000 HD
ENDBRANCH  12  13
ENDBRANCH  11  12
ENDBRANCH   1  11
TORSDOF 4
ENDMDL
MODEL 8
REMARK VINA RESULT:      -5.9      0.592      1.262
REMARK  Name = 
REMARK  4 active torsions:
REMARK  status: ('A' for Active; 'I' for Inactive)
REMARK    1  A    between atoms: N_1  and  C_2
REMARK    2  A    between atoms: C_2  and  C_3
REMARK    3  A    between atoms: C_3  and  C_4
REMARK    4  A    between atoms: C_7  and  C_8
REMARK                            x       y       z     vdW  Elec       q    Type
REMARK                         _______ _______ _______ _____ _____    ______ ____
ROOT
ATOM      1  C   UNL     1       4.201   5.113  17.065  0.00  0.00    +0.000 A 
ATOM      2  C   UNL     1       3.326   5.809  17.912  0.00  0.00    +0.000 A 
ATOM      3  C   UNL     1       2.346   5.126  18.638  0.00  0.00    +0.000 A 
ATOM      4  C   UNL     1       2.212   3.736  18.529  0.00  0.00    +0.000 A 
ATOM      5  C   UNL     1       3.079   3.041  17.673  0.00  0.00    +0.000 A 
ATOM      6  C   UNL     1       4.062   3.723  16.951  0.00  0.00    +0.000 A 
ENDROOT
BRANCH   4   7
ATOM      7  C   UNL     1       1.153   2.991  19.304  0.00  0.00    +0.000 C 
ATOM      8  F   UNL     1       1.647   1.967  20.057  0.00  0.00    +0.000 F 
ATOM      9  F   UNL     1       0.475   3.794  20.171  0.00  0.00    +0.000 F 
ATOM     10  F   UNL     1       0.209   2.432  18.497  0.00  0.00    +0.000 F 
ENDBRANCH   4   7
BRANCH   1  11
ATOM     11  C   UNL     1       5.245   5.842  16.249  0.00  0.00    +0.000 C 
BRANCH  11  12
ATOM     12  C   UNL     1       6.616   5.926  16.934  0.00  0.00    +0.000 C 
BRANCH  12  13
ATOM     13  N   UNL     1       7.498   4.853  16.474  0.00  0.00    +0.000 NA
ATOM     14  H   UNL     1       7.086   4.404  15.658  0.00  0.00    +0.000 HD
ATOM     15  H   UNL     1       7.566   4.131  17.192  0.00  0.00    +0.000 HD
ENDBRANCH  12  13
ENDBRANCH  11  12
ENDBRANCH   1  11
TORSDOF 4
ENDMDL
MODEL 9
REMARK VINA RESULT:      -5.9      0.620      1.465
REMARK  Name = 
REMARK  4 active torsions:
REMARK  status: ('A' for Active; 'I' for Inactive)
REMARK    1  A    between atoms: N_1  and  C_2
REMARK    2  A    between atoms: C_2  and  C_3
REMARK    3  A    between atoms: C_3  and  C_4
REMARK    4  A    between atoms: C_7  and  C_8
REMARK                            x       y       z     vdW  Elec       q    Type
REMARK                         _______ _______ _______ _____ _____    ______ ____
ROOT
ATOM      1  C   UNL     1       4.293   4.987  17.093  0.00  0.00    +0.000 A 
ATOM      2  C   UNL     1       3.970   3.640  16.880  0.00  0.00    +0.000 A 
ATOM      3  C   UNL     1       2.957   3.025  17.623  0.00  0.00    +0.000 A 
ATOM      4  C   UNL     1       2.252   3.738  18.600  0.00  0.00    +0.000 A 
ATOM      5  C   UNL     1       2.583   5.083  18.823  0.00  0.00    +0.000 A 
ATOM      6  C   UNL     1       3.592   5.699  18.076  0.00  0.00    +0.000 A 
ENDROOT
BRANCH   4   7
ATOM      7  C   UNL     1       1.163   3.081  19.412  0.00  0.00    +0.000 C 
ATOM      8  F   UNL     1       0.385   3.966  20.099  0.00  0.00    +0.000 F 
ATOM      9  F   UNL     1       0.304   2.352  18.645  0.00  0.00    +0.000 F 
ATOM     10  F   UNL     1       1.652   2.219  20.346  0.00  0.00    +0.000 F 
ENDBRANCH   4   7
BRANCH   1  11
ATOM     11  C   UNL     1       5.407   5.657  16.319  0.00  0.00    +0.000 C 
BRANCH  11  12
ATOM     12  C   UNL     1       6.527   4.698  15.894  0.00  0.00    +0.000 C 
BRANCH  12  13
ATOM     13  N   UNL     1       7.583   4.644  16.906  0.00  0.00    +0.000 NA
ATOM     14  H   UNL     1       7.165   4.716  17.833  0.00  0.00    +0.000 HD
ATOM     15  H   UNL     1       8.196   5.453  16.807  0.00  0.00    +0.000 HD
ENDBRANCH  12  13
ENDBRANCH  11  12
ENDBRANCH   1  11
TORSDOF 4
ENDMDL
