MODEL 1
REMARK VINA RESULT:      -8.6      0.000      0.000
REMARK  Name = 
REMARK  4 active torsions:
REMARK  status: ('A' for Active; 'I' for Inactive)
REMARK    1  A    between atoms: C_1  and  O_2
REMARK    2  A    between atoms: O_2  and  C_3
REMARK    3  A    between atoms: C_8  and  C_9
REMARK    4  A    between atoms: C_19  and  N_20
REMARK                            x       y       z     vdW  Elec       q    Type
REMARK                         _______ _______ _______ _____ _____    ______ ____
ROOT
ATOM      1  C   UNL     1       3.696   5.336  17.301  0.00  0.00    +0.000 C 
ATOM      2  O   UNL     1       4.357   6.647  17.250  0.00  0.00    +0.000 OA
ATOM      3  C   UNL     1       5.661   6.694  17.700  0.00  0.00    +0.000 A 
ATOM      4  C   UNL     1       6.531   7.679  17.238  0.00  0.00    +0.000 A 
ATOM      5  C   UNL     1       7.850   7.719  17.726  0.00  0.00    +0.000 A 
ATOM      6  C   UNL     1       8.257   6.872  18.763  0.00  0.00    +0.000 A 
ATOM      7  C   UNL     1       7.403   5.871  19.202  0.00  0.00    +0.000 A 
ATOM      8  C   UNL     1       6.175   5.727  18.560  0.00  0.00    +0.000 A 
ATOM      9  C   UNL     1       5.542   4.406  18.486  0.00  0.00    +0.000 C 
ATOM     10  O   UNL     1       5.682   3.586  19.385  0.00  0.00    +0.000 OA
ATOM     11  C   UNL     1       4.716   4.192  17.242  0.00  0.00    +0.000 C 
ENDROOT
BRANCH   1  17
ATOM     12  C   UNL     1       1.875   3.947  18.491  0.00  0.00    +0.000 A 
ATOM     13  C   UNL     1       1.062   3.680  19.605  0.00  0.00    +0.000 A 
ATOM     14  C   UNL     1       0.996   4.584  20.657  0.00  0.00    +0.000 A 
ATOM     15  C   UNL     1       1.730   5.764  20.599  0.00  0.00    +0.000 A 
ATOM     16  C   UNL     1       2.562   6.036  19.504  0.00  0.00    +0.000 A 
ATOM     17  C   UNL     1       2.671   5.126  18.441  0.00  0.00    +0.000 A 
BRANCH  12  19
ATOM     18  C   UNL     1       2.480   1.804  17.647  0.00  0.00    +0.000 C 
ATOM     19  O   UNL     1       1.946   3.109  17.408  0.00  0.00    +0.000 OA
ENDBRANCH  12  19
ENDBRANCH   1  17
BRANCH  11  20
ATOM     20  N   UNL     1       5.508   4.202  16.007  0.00  0.00    +0.000 N 
ATOM     21  C   UNL     1       6.866   4.175  15.853  0.00  0.00    +0.000 A 
ATOM     22  N   UNL     1       7.175   4.311  14.577  0.00  0.00    +0.000 NA
ATOM     23  C   UNL     1       5.957   4.427  13.984  0.00  0.00    +0.000 A 
ATOM     24  N   UNL     1       4.909   4.350  14.809  0.00  0.00    +0.000 NA
ENDBRANCH  11  20
TORSDOF 3
ENDMDL
MODEL 2
REMARK VINA RESULT:      -7.6      0.963      1.886
REMARK  Name = 
REMARK  4 active torsions:
REMARK  status: ('A' for Active; 'I' for Inactive)
REMARK    1  A    between atoms: C_1  and  O_2
REMARK    2  A    between atoms: O_2  and  C_3
REMARK    3  A    between atoms: C_8  and  C_9
REMARK    4  A    between atoms: C_19  and  N_20
REMARK                            x       y       z     vdW  Elec       q    Type
REMARK                         _______ _______ _______ _____ _____    ______ ____
ROOT
ATOM      1  C   UNL     1       3.641   4.901  17.296  0.00  0.00    +0.000 C 
ATOM      2  O   UNL     1       4.149   6.279  17.266  0.00  0.00    +0.000 OA
ATOM      3  C   UNL     1       5.461   6.457  17.660  0.00  0.00    +0.000 A 
ATOM      4  C   UNL     1       6.192   7.548  17.199  0.00  0.00    +0.000 A 
ATOM      5  C   UNL     1       7.521   7.720  17.630  0.00  0.00    +0.000 A 
ATOM      6  C   UNL     1       8.068   6.890  18.614  0.00  0.00    +0.000 A 
ATOM      7  C   UNL     1       7.352   5.785  19.052  0.00  0.00    +0.000 A 
ATOM      8  C   UNL     1       6.119   5.526  18.458  0.00  0.00    +0.000 A 
ATOM      9  C   UNL     1       5.633   4.145  18.361  0.00  0.00    +0.000 C 
ATOM     10  O   UNL     1       5.906   3.316  19.221  0.00  0.00    +0.000 OA
ATOM     11  C   UNL     1       4.778   3.882  17.148  0.00  0.00    +0.000 C 
ENDROOT
BRANCH   1  17
ATOM     12  C   UNL     1       2.273   5.538  19.389  0.00  0.00    +0.000 A 
ATOM     13  C   UNL     1       1.297   5.248  20.358  0.00  0.00    +0.000 A 
ATOM     14  C   UNL     1       0.765   3.969  20.455  0.00  0.00    +0.000 A 
ATOM     15  C   UNL     1       1.211   2.969  19.596  0.00  0.00    +0.000 A 
ATOM     16  C   UNL     1       2.169   3.247  18.612  0.00  0.00    +0.000 A 
ATOM     17  C   UNL     1       2.701   4.539  18.471  0.00  0.00    +0.000 A 
BRANCH  12  19
ATOM     18  C   UNL     1       2.027   7.901  19.552  0.00  0.00    +0.000 C 
ATOM     19  O   UNL     1       2.860   6.772  19.276  0.00  0.00    +0.000 OA
ENDBRANCH  12  19
ENDBRANCH   1  17
BRANCH  11  20
ATOM     20  N   UNL     1       5.503   4.022  15.880  0.00  0.00    +0.000 N 
ATOM     21  C   UNL     1       6.850   4.077  15.660  0.00  0.00    +0.000 A 
ATOM     22  N   UNL     1       7.086   4.321  14.385  0.00  0.00    +0.000 NA
ATOM     23  C   UNL     1       5.835   4.415  13.860  0.00  0.00    +0.000 A 
ATOM     24  N   UNL     1       4.836   4.224  14.727  0.00  0.00    +0.000 NA
ENDBRANCH  11  20
TORSDOF 3
ENDMDL
MODEL 3
REMARK VINA RESULT:      -7.0      2.450      6.044
REMARK  Name = 
REMARK  4 active torsions:
REMARK  status: ('A' for Active; 'I' for Inactive)
REMARK    1  A    between atoms: C_1  and  O_2
REMARK    2  A    between atoms: O_2  and  C_3
REMARK    3  A    between atoms: C_8  and  C_9
REMARK    4  A    between atoms: C_19  and  N_20
REMARK                            x       y       z     vdW  Elec       q    Type
REMARK                         _______ _______ _______ _____ _____    ______ ____
ROOT
ATOM      1  C   UNL     1       3.766   5.667  17.322  0.00  0.00    +0.000 C 
ATOM      2  O   UNL     1       2.542   4.894  17.069  0.00  0.00    +0.000 OA
ATOM      3  C   UNL     1       2.257   3.887  17.970  0.00  0.00    +0.000 A 
ATOM      4  C   UNL     1       0.944   3.459  18.155  0.00  0.00    +0.000 A 
ATOM      5  C   UNL     1       0.680   2.417  19.064  0.00  0.00    +0.000 A 
ATOM      6  C   UNL     1       1.725   1.720  19.679  0.00  0.00    +0.000 A 
ATOM      7  C   UNL     1       3.030   2.164  19.519  0.00  0.00    +0.000 A 
ATOM      8  C   UNL     1       3.242   3.322  18.775  0.00  0.00    +0.000 A 
ATOM      9  C   UNL     1       4.389   4.184  19.080  0.00  0.00    +0.000 C 
ATOM     10  O   UNL     1       5.440   3.715  19.497  0.00  0.00    +0.000 OA
ATOM     11  C   UNL     1       4.143   5.647  18.808  0.00  0.00    +0.000 C 
ENDROOT
BRANCH   1  17
ATOM     12  C   UNL     1       6.180   6.106  16.523  0.00  0.00    +0.000 A 
ATOM     13  C   UNL     1       7.335   5.717  15.823  0.00  0.00    +0.000 A 
ATOM     14  C   UNL     1       7.312   4.604  14.994  0.00  0.00    +0.000 A 
ATOM     15  C   UNL     1       6.133   3.879  14.847  0.00  0.00    +0.000 A 
ATOM     16  C   UNL     1       4.977   4.242  15.552  0.00  0.00    +0.000 A 
ATOM     17  C   UNL     1       4.982   5.344  16.421  0.00  0.00    +0.000 A 
BRANCH  12  19
ATOM     18  C   UNL     1       7.387   7.862  17.584  0.00  0.00    +0.000 C 
ATOM     19  O   UNL     1       6.137   7.219  17.322  0.00  0.00    +0.000 OA
ENDBRANCH  12  19
ENDBRANCH   1  17
BRANCH  11  20
ATOM     20  N   UNL     1       3.106   6.234  19.664  0.00  0.00    +0.000 N 
ATOM     21  C   UNL     1       2.468   5.687  20.742  0.00  0.00    +0.000 A 
ATOM     22  N   UNL     1       1.521   6.504  21.163  0.00  0.00    +0.000 NA
ATOM     23  C   UNL     1       1.616   7.547  20.295  0.00  0.00    +0.000 A 
ATOM     24  N   UNL     1       2.577   7.438  19.373  0.00  0.00    +0.000 NA
ENDBRANCH  11  20
TORSDOF 3
ENDMDL
MODEL 4
REMARK VINA RESULT:      -6.9      2.595      6.009
REMARK  Name = 
REMARK  4 active torsions:
REMARK  status: ('A' for Active; 'I' for Inactive)
REMARK    1  A    between atoms: C_1  and  O_2
REMARK    2  A    between atoms: O_2  and  C_3
REMARK    3  A    between atoms: C_8  and  C_9
REMARK    4  A    between atoms: C_19  and  N_20
REMARK                            x       y       z     vdW  Elec       q    Type
REMARK                         _______ _______ _______ _____ _____    ______ ____
ROOT
ATOM      1  C   UNL     1       3.517   5.785  17.358  0.00  0.00    +0.000 C 
ATOM      2  O   UNL     1       2.387   4.847  17.412  0.00  0.00    +0.000 OA
ATOM      3  C   UNL     1       2.205   4.175  18.605  0.00  0.00    +0.000 A 
ATOM      4  C   UNL     1       0.946   3.697  18.958  0.00  0.00    +0.000 A 
ATOM      5  C   UNL     1       0.788   2.997  20.169  0.00  0.00    +0.000 A 
ATOM      6  C   UNL     1       1.898   2.661  20.952  0.00  0.00    +0.000 A 
ATOM      7  C   UNL     1       3.148   3.162  20.617  0.00  0.00    +0.000 A 
ATOM      8  C   UNL     1       3.239   4.020  19.524  0.00  0.00    +0.000 A 
ATOM      9  C   UNL     1       4.282   5.051  19.491  0.00  0.00    +0.000 C 
ATOM     10  O   UNL     1       5.374   4.863  20.011  0.00  0.00    +0.000 OA
ATOM     11  C   UNL     1       3.880   6.304  18.755  0.00  0.00    +0.000 C 
ENDROOT
BRANCH   1  17
ATOM     12  C   UNL     1       5.973   6.068  16.621  0.00  0.00    +0.000 A 
ATOM     13  C   UNL     1       7.154   5.562  16.052  0.00  0.00    +0.000 A 
ATOM     14  C   UNL     1       7.151   4.330  15.411  0.00  0.00    +0.000 A 
ATOM     15  C   UNL     1       5.969   3.602  15.322  0.00  0.00    +0.000 A 
ATOM     16  C   UNL     1       4.787   4.084  15.902  0.00  0.00    +0.000 A 
ATOM     17  C   UNL     1       4.769   5.311  16.583  0.00  0.00    +0.000 A 
BRANCH  12  19
ATOM     18  C   UNL     1       7.162   7.921  17.528  0.00  0.00    +0.000 C 
ATOM     19  O   UNL     1       5.911   7.295  17.230  0.00  0.00    +0.000 OA
ENDBRANCH  12  19
ENDBRANCH   1  17
BRANCH  11  20
ATOM     20  N   UNL     1       2.777   7.029  19.395  0.00  0.00    +0.000 N 
ATOM     21  C   UNL     1       2.092   8.124  18.948  0.00  0.00    +0.000 A 
ATOM     22  N   UNL     1       1.249   8.535  19.878  0.00  0.00    +0.000 NA
ATOM     23  C   UNL     1       1.463   7.651  20.889  0.00  0.00    +0.000 A 
ATOM     24  N   UNL     1       2.373   6.704  20.638  0.00  0.00    +0.000 NA
ENDBRANCH  11  20
TORSDOF 3
ENDMDL
MODEL 5
REMARK VINA RESULT:      -6.9      2.332      5.756
REMARK  Name = 
REMARK  4 active torsions:
REMARK  status: ('A' for Active; 'I' for Inactive)
REMARK    1  A    between atoms: C_1  and  O_2
REMARK    2  A    between atoms: O_2  and  C_3
REMARK    3  A    between atoms: C_8  and  C_9
REMARK    4  A    between atoms: C_19  and  N_20
REMARK                            x       y       z     vdW  Elec       q    Type
REMARK                         _______ _______ _______ _____ _____    ______ ____
ROOT
ATOM      1  C   UNL     1       6.408   5.421  15.544  0.00  0.00    +0.000 C 
ATOM      2  O   UNL     1       5.504   6.533  15.872  0.00  0.00    +0.000 OA
ATOM      3  C   UNL     1       4.497   6.257  16.775  0.00  0.00    +0.000 A 
ATOM      4  C   UNL     1       3.938   7.278  17.540  0.00  0.00    +0.000 A 
ATOM      5  C   UNL     1       2.899   6.977  18.440  0.00  0.00    +0.000 A 
ATOM      6  C   UNL     1       2.332   5.699  18.477  0.00  0.00    +0.000 A 
ATOM      7  C   UNL     1       2.906   4.674  17.739  0.00  0.00    +0.000 A 
ATOM      8  C   UNL     1       4.060   4.957  17.012  0.00  0.00    +0.000 A 
ATOM      9  C   UNL     1       5.046   3.898  16.769  0.00  0.00    +0.000 C 
ATOM     10  O   UNL     1       4.701   2.731  16.635  0.00  0.00    +0.000 OA
ATOM     11  C   UNL     1       6.467   4.395  16.682  0.00  0.00    +0.000 C 
ENDROOT
BRANCH   1  17
ATOM     12  C   UNL     1       7.238   4.708  13.208  0.00  0.00    +0.000 A 
ATOM     13  C   UNL     1       7.100   3.955  12.029  0.00  0.00    +0.000 A 
ATOM     14  C   UNL     1       5.924   3.261  11.773  0.00  0.00    +0.000 A 
ATOM     15  C   UNL     1       4.875   3.325  12.685  0.00  0.00    +0.000 A 
ATOM     16  C   UNL     1       5.003   4.055  13.874  0.00  0.00    +0.000 A 
ATOM     17  C   UNL     1       6.192   4.740  14.172  0.00  0.00    +0.000 A 
BRANCH  12  19
ATOM     18  C   UNL     1       8.905   6.212  12.414  0.00  0.00    +0.000 C 
ATOM     19  O   UNL     1       8.360   5.443  13.490  0.00  0.00    +0.000 OA
ENDBRANCH  12  19
ENDBRANCH   1  17
BRANCH  11  20
ATOM     20  N   UNL     1       6.963   4.968  17.938  0.00  0.00    +0.000 N 
ATOM     21  C   UNL     1       6.542   4.735  19.217  0.00  0.00    +0.000 A 
ATOM     22  N   UNL     1       7.177   5.538  20.051  0.00  0.00    +0.000 NA
ATOM     23  C   UNL     1       7.981   6.256  19.222  0.00  0.00    +0.000 A 
ATOM     24  N   UNL     1       7.901   5.935  17.927  0.00  0.00    +0.000 NA
ENDBRANCH  11  20
TORSDOF 3
ENDMDL
MODEL 6
REMARK VINA RESULT:      -6.6      2.833      5.436
REMARK  Name = 
REMARK  4 active torsions:
REMARK  status: ('A' for Active; 'I' for Inactive)
REMARK    1  A    between atoms: C_1  and  O_2
REMARK    2  A    between atoms: O_2  and  C_3
REMARK    3  A    between atoms: C_8  and  C_9
REMARK    4  A    between atoms: C_19  and  N_20
REMARK                            x       y       z     vdW  Elec       q    Type
REMARK                         _______ _______ _______ _____ _____    ______ ____
ROOT
ATOM      1  C   UNL     1       2.879   6.989  19.479  0.00  0.00    +0.000 C 
ATOM      2  O   UNL     1       2.670   6.239  20.725  0.00  0.00    +0.000 OA
ATOM      3  C   UNL     1       2.181   4.954  20.591  0.00  0.00    +0.000 A 
ATOM      4  C   UNL     1       2.429   4.001  21.575  0.00  0.00    +0.000 A 
ATOM      5  C   UNL     1       1.903   2.703  21.428  0.00  0.00    +0.000 A 
ATOM      6  C   UNL     1       1.029   2.400  20.378  0.00  0.00    +0.000 A 
ATOM      7  C   UNL     1       0.806   3.339  19.381  0.00  0.00    +0.000 A 
ATOM      8  C   UNL     1       1.499   4.544  19.449  0.00  0.00    +0.000 A 
ATOM      9  C   UNL     1       1.833   5.263  18.214  0.00  0.00    +0.000 C 
ATOM     10  O   UNL     1       1.097   5.218  17.237  0.00  0.00    +0.000 OA
ATOM     11  C   UNL     1       3.119   6.048  18.292  0.00  0.00    +0.000 C 
ENDROOT
BRANCH   1  17
ATOM     12  C   UNL     1       1.112   8.733  20.182  0.00  0.00    +0.000 A 
ATOM     13  C   UNL     1       0.276   9.825  19.892  0.00  0.00    +0.000 A 
ATOM     14  C   UNL     1       0.110  10.252  18.580  0.00  0.00    +0.000 A 
ATOM     15  C   UNL     1       0.765   9.585  17.550  0.00  0.00    +0.000 A 
ATOM     16  C   UNL     1       1.618   8.506  17.825  0.00  0.00    +0.000 A 
ATOM     17  C   UNL     1       1.828   8.074  19.144  0.00  0.00    +0.000 A 
BRANCH  12  19
ATOM     18  C   UNL     1       1.082   9.175  22.522  0.00  0.00    +0.000 C 
ATOM     19  O   UNL     1       1.280   8.246  21.452  0.00  0.00    +0.000 OA
ENDBRANCH  12  19
ENDBRANCH   1  17
BRANCH  11  20
ATOM     20  N   UNL     1       4.307   5.207  18.467  0.00  0.00    +0.000 N 
ATOM     21  C   UNL     1       5.473   5.487  19.124  0.00  0.00    +0.000 A 
ATOM     22  N   UNL     1       6.333   4.502  18.949  0.00  0.00    +0.000 NA
ATOM     23  C   UNL     1       5.642   3.635  18.162  0.00  0.00    +0.000 A 
ATOM     24  N   UNL     1       4.397   4.010  17.854  0.00  0.00    +0.000 NA
ENDBRANCH  11  20
TORSDOF 3
ENDMDL
MODEL 7
REMARK VINA RESULT:      -6.5      2.009      3.872
REMARK  Name = 
REMARK  4 active torsions:
REMARK  status: ('A' for Active; 'I' for Inactive)
REMARK    1  A    between atoms: C_1  and  O_2
REMARK    2  A    between atoms: O_2  and  C_3
REMARK    3  A    between atoms: C_8  and  C_9
REMARK    4  A    between atoms: C_19  and  N_20
REMARK                            x       y       z     vdW  Elec       q    Type
REMARK                         _______ _______ _______ _____ _____    ______ ____
ROOT
ATOM      1  C   UNL     1       4.667   3.861  18.921  0.00  0.00    +0.000 C 
ATOM      2  O   UNL     1       5.409   3.218  17.828  0.00  0.00    +0.000 OA
ATOM      3  C   UNL     1       5.611   3.981  16.694  0.00  0.00    +0.000 A 
ATOM      4  C   UNL     1       6.687   3.717  15.851  0.00  0.00    +0.000 A 
ATOM      5  C   UNL     1       6.862   4.494  14.690  0.00  0.00    +0.000 A 
ATOM      6  C   UNL     1       5.898   5.432  14.305  0.00  0.00    +0.000 A 
ATOM      7  C   UNL     1       4.841   5.717  15.158  0.00  0.00    +0.000 A 
ATOM      8  C   UNL     1       4.805   5.076  16.394  0.00  0.00    +0.000 A 
ATOM      9  C   UNL     1       4.178   5.741  17.542  0.00  0.00    +0.000 C 
ATOM     10  O   UNL     1       3.223   6.492  17.394  0.00  0.00    +0.000 OA
ATOM     11  C   UNL     1       4.803   5.387  18.869  0.00  0.00    +0.000 C 
ENDROOT
BRANCH   1  17
ATOM     12  C   UNL     1       2.307   4.190  19.912  0.00  0.00    +0.000 A 
ATOM     13  C   UNL     1       0.935   3.889  19.951  0.00  0.00    +0.000 A 
ATOM     14  C   UNL     1       0.431   2.816  19.226  0.00  0.00    +0.000 A 
ATOM     15  C   UNL     1       1.295   2.031  18.469  0.00  0.00    +0.000 A 
ATOM     16  C   UNL     1       2.663   2.329  18.404  0.00  0.00    +0.000 A 
ATOM     17  C   UNL     1       3.193   3.425  19.102  0.00  0.00    +0.000 A 
BRANCH  12  19
ATOM     18  C   UNL     1       2.065   6.389  20.793  0.00  0.00    +0.000 C 
ATOM     19  O   UNL     1       2.862   5.211  20.639  0.00  0.00    +0.000 OA
ENDBRANCH  12  19
ENDBRANCH   1  17
BRANCH  11  20
ATOM     20  N   UNL     1       6.192   5.838  18.999  0.00  0.00    +0.000 N 
ATOM     21  C   UNL     1       6.872   6.760  18.254  0.00  0.00    +0.000 A 
ATOM     22  N   UNL     1       8.138   6.791  18.626  0.00  0.00    +0.000 NA
ATOM     23  C   UNL     1       8.185   5.853  19.610  0.00  0.00    +0.000 A 
ATOM     24  N   UNL     1       7.022   5.256  19.886  0.00  0.00    +0.000 NA
ENDBRANCH  11  20
TORSDOF 3
ENDMDL
MODEL 8
REMARK VINA RESULT:      -6.4      1.972      3.457
REMARK  Name = 
REMARK  4 active torsions:
REMARK  status: ('A' for Active; 'I' for Inactive)
REMARK    1  A    between atoms: C_1  and  O_2
REMARK    2  A    between atoms: O_2  and  C_3
REMARK    3  A    between atoms: C_8  and  C_9
REMARK    4  A    between atoms: C_19  and  N_20
REMARK                            x       y       z     vdW  Elec       q    Type
REMARK                         _______ _______ _______ _____ _____    ______ ____
ROOT
ATOM      1  C   UNL     1       4.608   4.177  19.087  0.00  0.00    +0.000 C 
ATOM      2  O   UNL     1       5.230   3.455  17.969  0.00  0.00    +0.000 OA
ATOM      3  C   UNL     1       5.477   4.191  16.827  0.00  0.00    +0.000 A 
ATOM      4  C   UNL     1       6.484   3.805  15.945  0.00  0.00    +0.000 A 
ATOM      5  C   UNL     1       6.704   4.558  14.777  0.00  0.00    +0.000 A 
ATOM      6  C   UNL     1       5.843   5.603  14.425  0.00  0.00    +0.000 A 
ATOM      7  C   UNL     1       4.859   6.007  15.315  0.00  0.00    +0.000 A 
ATOM      8  C   UNL     1       4.794   5.372  16.553  0.00  0.00    +0.000 A 
ATOM      9  C   UNL     1       4.291   6.104  17.722  0.00  0.00    +0.000 C 
ATOM     10  O   UNL     1       3.426   6.962  17.607  0.00  0.00    +0.000 OA
ATOM     11  C   UNL     1       4.919   5.678  19.026  0.00  0.00    +0.000 C 
ENDROOT
BRANCH   1  17
ATOM     12  C   UNL     1       2.483   2.739  18.817  0.00  0.00    +0.000 A 
ATOM     13  C   UNL     1       1.158   2.421  19.164  0.00  0.00    +0.000 A 
ATOM     14  C   UNL     1       0.423   3.274  19.977  0.00  0.00    +0.000 A 
ATOM     15  C   UNL     1       1.000   4.454  20.438  0.00  0.00    +0.000 A 
ATOM     16  C   UNL     1       2.326   4.775  20.118  0.00  0.00    +0.000 A 
ATOM     17  C   UNL     1       3.102   3.916  19.323  0.00  0.00    +0.000 A 
BRANCH  12  19
ATOM     18  C   UNL     1       3.875   0.820  18.584  0.00  0.00    +0.000 C 
ATOM     19  O   UNL     1       3.239   1.954  17.986  0.00  0.00    +0.000 OA
ENDBRANCH  12  19
ENDBRANCH   1  17
BRANCH  11  20
ATOM     20  N   UNL     1       6.355   5.963  19.103  0.00  0.00    +0.000 N 
ATOM     21  C   UNL     1       7.109   6.805  18.335  0.00  0.00    +0.000 A 
ATOM     22  N   UNL     1       8.384   6.687  18.659  0.00  0.00    +0.000 NA
ATOM     23  C   UNL     1       8.358   5.743  19.637  0.00  0.00    +0.000 A 
ATOM     24  N   UNL     1       7.145   5.283  19.957  0.00  0.00    +0.000 NA
ENDBRANCH  11  20
TORSDOF 3
ENDMDL
MODEL 9
REMARK VINA RESULT:      -6.2      2.224      3.721
REMARK  Name = 
REMARK  4 active torsions:
REMARK  status: ('A' for Active; 'I' for Inactive)
REMARK    1  A    between atoms: C_1  and  O_2
REMARK    2  A    between atoms: O_2  and  C_3
REMARK    3  A    between atoms: C_8  and  C_9
REMARK    4  A    between atoms: C_19  and  N_20
REMARK                            x       y       z     vdW  Elec       q    Type
REMARK                         _______ _______ _______ _____ _____    ______ ____
ROOT
ATOM      1  C   UNL     1       4.777   3.840  18.882  0.00  0.00    +0.000 C 
ATOM      2  O   UNL     1       5.474   3.292  17.710  0.00  0.00    +0.000 OA
ATOM      3  C   UNL     1       5.655   4.155  16.647  0.00  0.00    +0.000 A 
ATOM      4  C   UNL     1       6.701   3.955  15.749  0.00  0.00    +0.000 A 
ATOM      5  C   UNL     1       6.854   4.835  14.661  0.00  0.00    +0.000 A 
ATOM      6  C   UNL     1       5.897   5.820  14.396  0.00  0.00    +0.000 A 
ATOM      7  C   UNL     1       4.872   6.039  15.305  0.00  0.00    +0.000 A 
ATOM      8  C   UNL     1       4.862   5.285  16.476  0.00  0.00    +0.000 A 
ATOM      9  C   UNL     1       4.282   5.849  17.701  0.00  0.00    +0.000 C 
ATOM     10  O   UNL     1       3.337   6.625  17.654  0.00  0.00    +0.000 OA
ATOM     11  C   UNL     1       4.939   5.363  18.968  0.00  0.00    +0.000 C 
ENDROOT
BRANCH   1  17
ATOM     12  C   UNL     1       2.857   2.867  20.305  0.00  0.00    +0.000 A 
ATOM     13  C   UNL     1       1.491   2.627  20.530  0.00  0.00    +0.000 A 
ATOM     14  C   UNL     1       0.560   2.886  19.532  0.00  0.00    +0.000 A 
ATOM     15  C   UNL     1       0.987   3.372  18.301  0.00  0.00    +0.000 A 
ATOM     16  C   UNL     1       2.344   3.635  18.067  0.00  0.00    +0.000 A 
ATOM     17  C   UNL     1       3.302   3.413  19.068  0.00  0.00    +0.000 A 
BRANCH  12  19
ATOM     18  C   UNL     1       4.685   1.487  20.958  0.00  0.00    +0.000 C 
ATOM     19  O   UNL     1       3.821   2.592  21.240  0.00  0.00    +0.000 OA
ENDBRANCH  12  19
ENDBRANCH   1  17
BRANCH  11  20
ATOM     20  N   UNL     1       6.340   5.777  19.095  0.00  0.00    +0.000 N 
ATOM     21  C   UNL     1       7.034   6.704  18.369  0.00  0.00    +0.000 A 
ATOM     22  N   UNL     1       8.304   6.696  18.728  0.00  0.00    +0.000 NA
ATOM     23  C   UNL     1       8.339   5.730  19.685  0.00  0.00    +0.000 A 
ATOM     24  N   UNL     1       7.166   5.152  19.957  0.00  0.00    +0.000 NA
ENDBRANCH  11  20
TORSDOF 3
ENDMDL
