MODEL 1
REMARK VINA RESULT:      -8.3      0.000      0.000
REMARK  Name = 
REMARK  6 active torsions:
REMARK  status: ('A' for Active; 'I' for Inactive)
REMARK    1  A    between atoms: C_1  and  O_2
REMARK    2  A    between atoms: O_2  and  C_3
REMARK    3  A    between atoms: C_5  and  N_6
REMARK    4  A    between atoms: C_14  and  C_15
REMARK    5  A    between atoms: C_28  and  O_29
REMARK    6  A    between atoms: O_29  and  C_30
REMARK                            x       y       z     vdW  Elec       q    Type
REMARK                         _______ _______ _______ _____ _____    ______ ____
ROOT
ATOM      1  N   UNL     1       4.168   3.607  16.728  0.00  0.00    +0.000 N 
ATOM      2  C   UNL     1       3.355   4.337  17.554  0.00  0.00    +0.000 C 
ATOM      3  O   UNL     1       3.299   5.563  17.549  0.00  0.00    +0.000 OA
ATOM      4  N   UNL     1       2.583   3.604  18.418  0.00  0.00    +0.000 N 
ATOM      5  C   UNL     1       2.395   2.167  18.480  0.00  0.00    +0.000 C 
ATOM      6  C   UNL     1       1.518   1.968  19.704  0.00  0.00    +0.000 C 
ATOM      7  F   UNL     1       2.298   2.012  20.818  0.00  0.00    +0.000 F 
ATOM      8  C   UNL     1       0.614   3.182  19.687  0.00  0.00    +0.000 C 
ATOM      9  C   UNL     1       1.504   4.287  19.097  0.00  0.00    +0.000 C 
ATOM     10  H   UNL     1       3.751   2.780  16.330  0.00  0.00    +0.000 HD
ENDROOT
BRANCH   9  11
ATOM     11  C   UNL     1       1.735   5.398  20.138  0.00  0.00    +0.000 C 
ATOM     12  O   UNL     1       2.015   4.955  21.271  0.00  0.00    +0.000 OA
ATOM     13  N   UNL     1       1.840   6.764  19.895  0.00  0.00    +0.000 N 
ATOM     14  C   UNL     1       2.288   7.539  21.039  0.00  0.00    +0.000 C 
ATOM     15  C   UNL     1       1.256   8.572  21.452  0.00  0.00    +0.000 C 
ATOM     16  C   UNL     1       0.937   9.460  20.286  0.00  0.00    +0.000 A 
ATOM     17  C   UNL     1       0.501  10.758  20.578  0.00  0.00    +0.000 A 
ATOM     18  C   UNL     1       0.803  11.778  19.684  0.00  0.00    +0.000 A 
ATOM     19  C   UNL     1       1.450  11.474  18.498  0.00  0.00    +0.000 A 
ATOM     20  C   UNL     1       1.662  10.132  18.114  0.00  0.00    +0.000 A 
ATOM     21  C   UNL     1       1.376   9.082  19.003  0.00  0.00    +0.000 A 
ATOM     22  C   UNL     1       1.563   7.576  18.677  0.00  0.00    +0.000 C 
ENDBRANCH   9  11
BRANCH   1  25
ATOM     23  C   UNL     1       6.630   4.424  14.059  0.00  0.00    +0.000 A 
ATOM     24  C   UNL     1       5.573   3.817  14.733  0.00  0.00    +0.000 A 
ATOM     25  C   UNL     1       5.257   4.177  16.046  0.00  0.00    +0.000 A 
ATOM     26  C   UNL     1       6.012   5.161  16.689  0.00  0.00    +0.000 A 
ATOM     27  C   UNL     1       7.094   5.751  16.037  0.00  0.00    +0.000 A 
ATOM     28  C   UNL     1       7.403   5.379  14.725  0.00  0.00    +0.000 A 
BRANCH  23  30
ATOM     29  C   UNL     1       5.758   3.223  12.202  0.00  0.00    +0.000 C 
ATOM     30  O   UNL     1       6.800   4.008  12.765  0.00  0.00    +0.000 OA
ENDBRANCH  23  30
BRANCH  27  31
ATOM     31  O   UNL     1       7.775   6.671  16.789  0.00  0.00    +0.000 OA
ATOM     32  C   UNL     1       7.621   6.581  18.199  0.00  0.00    +0.000 C 
ENDBRANCH  27  31
ENDBRANCH   1  25
TORSDOF 4
ENDMDL
MODEL 2
REMARK VINA RESULT:      -8.2      0.073      2.365
REMARK  Name = 
REMARK  6 active torsions:
REMARK  status: ('A' for Active; 'I' for Inactive)
REMARK    1  A    between atoms: C_1  and  O_2
REMARK    2  A    between atoms: O_2  and  C_3
REMARK    3  A    between atoms: C_5  and  N_6
REMARK    4  A    between atoms: C_14  and  C_15
REMARK    5  A    between atoms: C_28  and  O_29
REMARK    6  A    between atoms: O_29  and  C_30
REMARK                            x       y       z     vdW  Elec       q    Type
REMARK                         _______ _______ _______ _____ _____    ______ ____
ROOT
ATOM      1  N   UNL     1       4.184   3.664  16.694  0.00  0.00    +0.000 N 
ATOM      2  C   UNL     1       3.354   4.364  17.529  0.00  0.00    +0.000 C 
ATOM      3  O   UNL     1       3.268   5.588  17.540  0.00  0.00    +0.000 OA
ATOM      4  N   UNL     1       2.597   3.602  18.381  0.00  0.00    +0.000 N 
ATOM      5  C   UNL     1       2.443   2.160  18.424  0.00  0.00    +0.000 C 
ATOM      6  C   UNL     1       1.569   1.925  19.644  0.00  0.00    +0.000 C 
ATOM      7  F   UNL     1       2.346   1.972  20.760  0.00  0.00    +0.000 F 
ATOM      8  C   UNL     1       0.637   3.117  19.641  0.00  0.00    +0.000 C 
ATOM      9  C   UNL     1       1.502   4.251  19.068  0.00  0.00    +0.000 C 
ATOM     10  H   UNL     1       3.787   2.833  16.285  0.00  0.00    +0.000 HD
ENDROOT
BRANCH   9  11
ATOM     11  C   UNL     1       1.706   5.353  20.124  0.00  0.00    +0.000 C 
ATOM     12  O   UNL     1       1.950   4.899  21.261  0.00  0.00    +0.000 OA
ATOM     13  N   UNL     1       1.822   6.720  19.895  0.00  0.00    +0.000 N 
ATOM     14  C   UNL     1       2.238   7.485  21.058  0.00  0.00    +0.000 C 
ATOM     15  C   UNL     1       1.198   8.518  21.447  0.00  0.00    +0.000 C 
ATOM     16  C   UNL     1       0.917   9.416  20.280  0.00  0.00    +0.000 A 
ATOM     17  C   UNL     1       0.476  10.713  20.568  0.00  0.00    +0.000 A 
ATOM     18  C   UNL     1       0.809  11.739  19.691  0.00  0.00    +0.000 A 
ATOM     19  C   UNL     1       1.490  11.442  18.523  0.00  0.00    +0.000 A 
ATOM     20  C   UNL     1       1.709  10.102  18.136  0.00  0.00    +0.000 A 
ATOM     21  C   UNL     1       1.392   9.047  19.008  0.00  0.00    +0.000 A 
ATOM     22  C   UNL     1       1.584   7.542  18.675  0.00  0.00    +0.000 C 
ENDBRANCH   9  11
BRANCH   1  25
ATOM     23  C   UNL     1       7.149   5.793  15.967  0.00  0.00    +0.000 A 
ATOM     24  C   UNL     1       6.061   5.236  16.635  0.00  0.00    +0.000 A 
ATOM     25  C   UNL     1       5.261   4.268  16.022  0.00  0.00    +0.000 A 
ATOM     26  C   UNL     1       5.559   3.852  14.723  0.00  0.00    +0.000 A 
ATOM     27  C   UNL     1       6.626   4.427  14.032  0.00  0.00    +0.000 A 
ATOM     28  C   UNL     1       7.417   5.399  14.654  0.00  0.00    +0.000 A 
BRANCH  23  30
ATOM     29  C   UNL     1       7.670   6.687  18.108  0.00  0.00    +0.000 C 
ATOM     30  O   UNL     1       7.872   6.697  16.702  0.00  0.00    +0.000 OA
ENDBRANCH  23  30
BRANCH  27  31
ATOM     31  O   UNL     1       6.789   3.962  12.754  0.00  0.00    +0.000 OA
ATOM     32  C   UNL     1       5.731   3.176  12.222  0.00  0.00    +0.000 C 
ENDBRANCH  27  31
ENDBRANCH   1  25
TORSDOF 4
ENDMDL
MODEL 3
REMARK VINA RESULT:      -8.0      4.544      8.944
REMARK  Name = 
REMARK  6 active torsions:
REMARK  status: ('A' for Active; 'I' for Inactive)
REMARK    1  A    between atoms: C_1  and  O_2
REMARK    2  A    between atoms: O_2  and  C_3
REMARK    3  A    between atoms: C_5  and  N_6
REMARK    4  A    between atoms: C_14  and  C_15
REMARK    5  A    between atoms: C_28  and  O_29
REMARK    6  A    between atoms: O_29  and  C_30
REMARK                            x       y       z     vdW  Elec       q    Type
REMARK                         _______ _______ _______ _____ _____    ______ ____
ROOT
ATOM      1  N   UNL     1      -1.938  10.724  18.953  0.00  0.00    +0.000 N 
ATOM      2  C   UNL     1      -0.662  10.238  18.844  0.00  0.00    +0.000 C 
ATOM      3  O   UNL     1      -0.021  10.226  17.797  0.00  0.00    +0.000 OA
ATOM      4  N   UNL     1      -0.118   9.748  20.003  0.00  0.00    +0.000 N 
ATOM      5  C   UNL     1      -0.643   9.804  21.354  0.00  0.00    +0.000 C 
ATOM      6  C   UNL     1       0.357   9.002  22.167  0.00  0.00    +0.000 C 
ATOM      7  F   UNL     1       0.089   7.677  22.015  0.00  0.00    +0.000 F 
ATOM      8  C   UNL     1       1.680   9.318  21.502  0.00  0.00    +0.000 C 
ATOM      9  C   UNL     1       1.306   9.498  20.022  0.00  0.00    +0.000 C 
ATOM     10  H   UNL     1      -2.124  11.274  19.776  0.00  0.00    +0.000 HD
ENDROOT
BRANCH   9  11
ATOM     11  C   UNL     1       1.982   8.412  19.165  0.00  0.00    +0.000 C 
ATOM     12  O   UNL     1       2.569   8.876  18.165  0.00  0.00    +0.000 OA
ATOM     13  N   UNL     1       2.146   7.070  19.491  0.00  0.00    +0.000 N 
ATOM     14  C   UNL     1       3.024   6.343  18.591  0.00  0.00    +0.000 C 
ATOM     15  C   UNL     1       2.300   5.194  17.913  0.00  0.00    +0.000 C 
ATOM     16  C   UNL     1       1.714   4.285  18.952  0.00  0.00    +0.000 A 
ATOM     17  C   UNL     1       1.537   2.943  18.594  0.00  0.00    +0.000 A 
ATOM     18  C   UNL     1       1.637   1.972  19.583  0.00  0.00    +0.000 A 
ATOM     19  C   UNL     1       1.824   2.359  20.900  0.00  0.00    +0.000 A 
ATOM     20  C   UNL     1       1.754   3.719  21.269  0.00  0.00    +0.000 A 
ATOM     21  C   UNL     1       1.665   4.721  20.289  0.00  0.00    +0.000 A 
ATOM     22  C   UNL     1       1.573   6.242  20.589  0.00  0.00    +0.000 C 
ENDBRANCH   9  11
BRANCH   1  25
ATOM     23  C   UNL     1      -3.220  10.724  15.459  0.00  0.00    +0.000 A 
ATOM     24  C   UNL     1      -2.371  10.548  16.549  0.00  0.00    +0.000 A 
ATOM     25  C   UNL     1      -2.763  10.933  17.834  0.00  0.00    +0.000 A 
ATOM     26  C   UNL     1      -4.025  11.500  18.026  0.00  0.00    +0.000 A 
ATOM     27  C   UNL     1      -4.869  11.713  16.937  0.00  0.00    +0.000 A 
ATOM     28  C   UNL     1      -4.464  11.328  15.655  0.00  0.00    +0.000 A 
BRANCH  23  30
ATOM     29  C   UNL     1      -3.676   9.817  13.308  0.00  0.00    +0.000 C 
ATOM     30  O   UNL     1      -2.726  10.262  14.267  0.00  0.00    +0.000 OA
ENDBRANCH  23  30
BRANCH  27  31
ATOM     31  O   UNL     1      -6.060  12.312  17.253  0.00  0.00    +0.000 OA
ATOM     32  C   UNL     1      -6.716  11.848  18.425  0.00  0.00    +0.000 C 
ENDBRANCH  27  31
ENDBRANCH   1  25
TORSDOF 4
ENDMDL
MODEL 4
REMARK VINA RESULT:      -8.0      4.568      9.166
REMARK  Name = 
REMARK  6 active torsions:
REMARK  status: ('A' for Active; 'I' for Inactive)
REMARK    1  A    between atoms: C_1  and  O_2
REMARK    2  A    between atoms: O_2  and  C_3
REMARK    3  A    between atoms: C_5  and  N_6
REMARK    4  A    between atoms: C_14  and  C_15
REMARK    5  A    between atoms: C_28  and  O_29
REMARK    6  A    between atoms: O_29  and  C_30
REMARK                            x       y       z     vdW  Elec       q    Type
REMARK                         _______ _______ _______ _____ _____    ______ ____
ROOT
ATOM      1  N   UNL     1      -1.972  10.788  19.071  0.00  0.00    +0.000 N 
ATOM      2  C   UNL     1      -0.697  10.307  18.931  0.00  0.00    +0.000 C 
ATOM      3  O   UNL     1      -0.085  10.289  17.867  0.00  0.00    +0.000 OA
ATOM      4  N   UNL     1      -0.120   9.826  20.078  0.00  0.00    +0.000 N 
ATOM      5  C   UNL     1      -0.608   9.890  21.442  0.00  0.00    +0.000 C 
ATOM      6  C   UNL     1       0.417   9.098  22.234  0.00  0.00    +0.000 C 
ATOM      7  F   UNL     1       0.150   7.771  22.098  0.00  0.00    +0.000 F 
ATOM      8  C   UNL     1       1.720   9.414  21.531  0.00  0.00    +0.000 C 
ATOM      9  C   UNL     1       1.306   9.583  20.061  0.00  0.00    +0.000 C 
ATOM     10  H   UNL     1      -2.137  11.343  19.895  0.00  0.00    +0.000 HD
ENDROOT
BRANCH   9  11
ATOM     11  C   UNL     1       1.963   8.494  19.193  0.00  0.00    +0.000 C 
ATOM     12  O   UNL     1       2.539   8.955  18.186  0.00  0.00    +0.000 OA
ATOM     13  N   UNL     1       2.122   7.149  19.515  0.00  0.00    +0.000 N 
ATOM     14  C   UNL     1       2.983   6.418  18.602  0.00  0.00    +0.000 C 
ATOM     15  C   UNL     1       2.243   5.274  17.933  0.00  0.00    +0.000 C 
ATOM     16  C   UNL     1       1.665   4.368  18.978  0.00  0.00    +0.000 A 
ATOM     17  C   UNL     1       1.475   3.028  18.621  0.00  0.00    +0.000 A 
ATOM     18  C   UNL     1       1.582   2.055  19.609  0.00  0.00    +0.000 A 
ATOM     19  C   UNL     1       1.789   2.439  20.923  0.00  0.00    +0.000 A 
ATOM     20  C   UNL     1       1.734   3.799  21.295  0.00  0.00    +0.000 A 
ATOM     21  C   UNL     1       1.637   4.803  20.317  0.00  0.00    +0.000 A 
ATOM     22  C   UNL     1       1.559   6.324  20.620  0.00  0.00    +0.000 C 
ENDBRANCH   9  11
BRANCH   1  25
ATOM     23  C   UNL     1      -4.881  11.843  17.003  0.00  0.00    +0.000 A 
ATOM     24  C   UNL     1      -4.065  11.618  18.110  0.00  0.00    +0.000 A 
ATOM     25  C   UNL     1      -2.827  10.986  17.973  0.00  0.00    +0.000 A 
ATOM     26  C   UNL     1      -2.401  10.575  16.708  0.00  0.00    +0.000 A 
ATOM     27  C   UNL     1      -3.224  10.764  15.597  0.00  0.00    +0.000 A 
ATOM     28  C   UNL     1      -4.463  11.394  15.748  0.00  0.00    +0.000 A 
BRANCH  23  30
ATOM     29  C   UNL     1      -6.971  11.863  18.137  0.00  0.00    +0.000 C 
ATOM     30  O   UNL     1      -6.046  12.511  17.275  0.00  0.00    +0.000 OA
ENDBRANCH  23  30
BRANCH  27  31
ATOM     31  O   UNL     1      -2.708  10.283  14.423  0.00  0.00    +0.000 OA
ATOM     32  C   UNL     1      -3.645   9.904  13.424  0.00  0.00    +0.000 C 
ENDBRANCH  27  31
ENDBRANCH   1  25
TORSDOF 4
ENDMDL
MODEL 5
REMARK VINA RESULT:      -7.9      4.467      8.762
REMARK  Name = 
REMARK  6 active torsions:
REMARK  status: ('A' for Active; 'I' for Inactive)
REMARK    1  A    between atoms: C_1  and  O_2
REMARK    2  A    between atoms: O_2  and  C_3
REMARK    3  A    between atoms: C_5  and  N_6
REMARK    4  A    between atoms: C_14  and  C_15
REMARK    5  A    between atoms: C_28  and  O_29
REMARK    6  A    between atoms: O_29  and  C_30
REMARK                            x       y       z     vdW  Elec       q    Type
REMARK                         _______ _______ _______ _____ _____    ______ ____
ROOT
ATOM      1  N   UNL     1      -1.567  10.999  19.326  0.00  0.00    +0.000 N 
ATOM      2  C   UNL     1      -0.545  10.089  19.381  0.00  0.00    +0.000 C 
ATOM      3  O   UNL     1      -0.108   9.490  18.403  0.00  0.00    +0.000 OA
ATOM      4  N   UNL     1      -0.017   9.872  20.628  0.00  0.00    +0.000 N 
ATOM      5  C   UNL     1      -0.285  10.574  21.868  0.00  0.00    +0.000 C 
ATOM      6  C   UNL     1       0.518   9.806  22.903  0.00  0.00    +0.000 C 
ATOM      7  F   UNL     1      -0.178   8.696  23.267  0.00  0.00    +0.000 F 
ATOM      8  C   UNL     1       1.756   9.384  22.139  0.00  0.00    +0.000 C 
ATOM      9  C   UNL     1       1.239   9.160  20.709  0.00  0.00    +0.000 C 
ATOM     10  H   UNL     1      -1.440  11.827  19.885  0.00  0.00    +0.000 HD
ENDROOT
BRANCH   9  11
ATOM     11  C   UNL     1       1.395   7.680  20.311  0.00  0.00    +0.000 C 
ATOM     12  O   UNL     1       0.637   6.921  20.949  0.00  0.00    +0.000 OA
ATOM     13  N   UNL     1       2.124   7.175  19.239  0.00  0.00    +0.000 N 
ATOM     14  C   UNL     1       1.896   5.764  18.978  0.00  0.00    +0.000 C 
ATOM     15  C   UNL     1       3.176   4.960  19.104  0.00  0.00    +0.000 C 
ATOM     16  C   UNL     1       4.217   5.521  18.182  0.00  0.00    +0.000 A 
ATOM     17  C   UNL     1       5.200   4.637  17.723  0.00  0.00    +0.000 A 
ATOM     18  C   UNL     1       5.749   4.850  16.464  0.00  0.00    +0.000 A 
ATOM     19  C   UNL     1       5.374   5.968  15.737  0.00  0.00    +0.000 A 
ATOM     20  C   UNL     1       4.569   6.970  16.320  0.00  0.00    +0.000 A 
ATOM     21  C   UNL     1       3.993   6.776  17.586  0.00  0.00    +0.000 A 
ATOM     22  C   UNL     1       3.103   7.817  18.318  0.00  0.00    +0.000 C 
ENDBRANCH   9  11
BRANCH   1  25
ATOM     23  C   UNL     1      -2.962  10.705  15.888  0.00  0.00    +0.000 A 
ATOM     24  C   UNL     1      -2.067  10.652  16.954  0.00  0.00    +0.000 A 
ATOM     25  C   UNL     1      -2.442  11.083  18.229  0.00  0.00    +0.000 A 
ATOM     26  C   UNL     1      -3.734  11.572  18.437  0.00  0.00    +0.000 A 
ATOM     27  C   UNL     1      -4.628  11.661  17.370  0.00  0.00    +0.000 A 
ATOM     28  C   UNL     1      -4.240  11.231  16.097  0.00  0.00    +0.000 A 
BRANCH  23  30
ATOM     29  C   UNL     1      -3.425   9.962  13.677  0.00  0.00    +0.000 C 
ATOM     30  O   UNL     1      -2.477  10.210  14.706  0.00  0.00    +0.000 OA
ENDBRANCH  23  30
BRANCH  27  31
ATOM     31  O   UNL     1      -5.848  12.192  17.697  0.00  0.00    +0.000 OA
ATOM     32  C   UNL     1      -6.833  11.284  18.170  0.00  0.00    +0.000 C 
ENDBRANCH  27  31
ENDBRANCH   1  25
TORSDOF 4
ENDMDL
MODEL 6
REMARK VINA RESULT:      -7.8      2.160      7.676
REMARK  Name = 
REMARK  6 active torsions:
REMARK  status: ('A' for Active; 'I' for Inactive)
REMARK    1  A    between atoms: C_1  and  O_2
REMARK    2  A    between atoms: O_2  and  C_3
REMARK    3  A    between atoms: C_5  and  N_6
REMARK    4  A    between atoms: C_14  and  C_15
REMARK    5  A    between atoms: C_28  and  O_29
REMARK    6  A    between atoms: O_29  and  C_30
REMARK                            x       y       z     vdW  Elec       q    Type
REMARK                         _______ _______ _______ _____ _____    ______ ____
ROOT
ATOM      1  N   UNL     1       1.590   6.519  19.583  0.00  0.00    +0.000 N 
ATOM      2  C   UNL     1       2.814   5.908  19.515  0.00  0.00    +0.000 C 
ATOM      3  O   UNL     1       3.842   6.380  19.991  0.00  0.00    +0.000 OA
ATOM      4  N   UNL     1       2.834   4.701  18.863  0.00  0.00    +0.000 N 
ATOM      5  C   UNL     1       1.722   3.913  18.368  0.00  0.00    +0.000 C 
ATOM      6  C   UNL     1       2.390   2.748  17.658  0.00  0.00    +0.000 C 
ATOM      7  F   UNL     1       2.782   3.152  16.419  0.00  0.00    +0.000 F 
ATOM      8  C   UNL     1       3.618   2.483  18.502  0.00  0.00    +0.000 C 
ATOM      9  C   UNL     1       4.013   3.878  19.012  0.00  0.00    +0.000 C 
ATOM     10  H   UNL     1       0.813   5.911  19.789  0.00  0.00    +0.000 HD
ENDROOT
BRANCH   9  11
ATOM     11  C   UNL     1       5.394   4.277  18.458  0.00  0.00    +0.000 C 
ATOM     12  O   UNL     1       6.183   4.658  19.347  0.00  0.00    +0.000 OA
ATOM     13  N   UNL     1       5.865   4.081  17.164  0.00  0.00    +0.000 N 
ATOM     14  C   UNL     1       7.283   4.349  17.001  0.00  0.00    +0.000 C 
ATOM     15  C   UNL     1       7.529   5.457  15.993  0.00  0.00    +0.000 C 
ATOM     16  C   UNL     1       6.890   5.098  14.684  0.00  0.00    +0.000 A 
ATOM     17  C   UNL     1       7.460   5.646  13.529  0.00  0.00    +0.000 A 
ATOM     18  C   UNL     1       7.393   4.920  12.346  0.00  0.00    +0.000 A 
ATOM     19  C   UNL     1       6.698   3.723  12.321  0.00  0.00    +0.000 A 
ATOM     20  C   UNL     1       5.928   3.311  13.430  0.00  0.00    +0.000 A 
ATOM     21  C   UNL     1       5.987   4.020  14.641  0.00  0.00    +0.000 A 
ATOM     22  C   UNL     1       5.174   3.657  15.914  0.00  0.00    +0.000 C 
ENDBRANCH   9  11
BRANCH   1  25
ATOM     23  C   UNL     1       1.410  10.220  19.230  0.00  0.00    +0.000 A 
ATOM     24  C   UNL     1       1.599   8.875  18.917  0.00  0.00    +0.000 A 
ATOM     25  C   UNL     1       1.445   7.883  19.889  0.00  0.00    +0.000 A 
ATOM     26  C   UNL     1       1.096   8.246  21.192  0.00  0.00    +0.000 A 
ATOM     27  C   UNL     1       0.937   9.591  21.525  0.00  0.00    +0.000 A 
ATOM     28  C   UNL     1       1.098  10.575  20.545  0.00  0.00    +0.000 A 
BRANCH  23  30
ATOM     29  C   UNL     1       2.191  12.320  18.434  0.00  0.00    +0.000 C 
ATOM     30  O   UNL     1       1.548  11.080  18.173  0.00  0.00    +0.000 OA
ENDBRANCH  23  30
BRANCH  27  31
ATOM     31  O   UNL     1       0.634   9.816  22.842  0.00  0.00    +0.000 OA
ATOM     32  C   UNL     1      -0.653  10.350  23.118  0.00  0.00    +0.000 C 
ENDBRANCH  27  31
ENDBRANCH   1  25
TORSDOF 4
ENDMDL
MODEL 7
REMARK VINA RESULT:      -7.7      4.418      8.869
REMARK  Name = 
REMARK  6 active torsions:
REMARK  status: ('A' for Active; 'I' for Inactive)
REMARK    1  A    between atoms: C_1  and  O_2
REMARK    2  A    between atoms: O_2  and  C_3
REMARK    3  A    between atoms: C_5  and  N_6
REMARK    4  A    between atoms: C_14  and  C_15
REMARK    5  A    between atoms: C_28  and  O_29
REMARK    6  A    between atoms: O_29  and  C_30
REMARK                            x       y       z     vdW  Elec       q    Type
REMARK                         _______ _______ _______ _____ _____    ______ ____
ROOT
ATOM      1  N   UNL     1      -1.547  10.880  19.297  0.00  0.00    +0.000 N 
ATOM      2  C   UNL     1      -0.514   9.983  19.347  0.00  0.00    +0.000 C 
ATOM      3  O   UNL     1      -0.083   9.380  18.368  0.00  0.00    +0.000 OA
ATOM      4  N   UNL     1       0.035   9.784  20.588  0.00  0.00    +0.000 N 
ATOM      5  C   UNL     1      -0.225  10.495  21.826  0.00  0.00    +0.000 C 
ATOM      6  C   UNL     1       0.601   9.746  22.856  0.00  0.00    +0.000 C 
ATOM      7  F   UNL     1      -0.077   8.631  23.241  0.00  0.00    +0.000 F 
ATOM      8  C   UNL     1       1.833   9.331  22.080  0.00  0.00    +0.000 C 
ATOM      9  C   UNL     1       1.300   9.087  20.659  0.00  0.00    +0.000 C 
ATOM     10  H   UNL     1      -1.422  11.716  19.847  0.00  0.00    +0.000 HD
ENDROOT
BRANCH   9  11
ATOM     11  C   UNL     1       1.468   7.606  20.272  0.00  0.00    +0.000 C 
ATOM     12  O   UNL     1       0.721   6.845  20.922  0.00  0.00    +0.000 OA
ATOM     13  N   UNL     1       2.194   7.099  19.199  0.00  0.00    +0.000 N 
ATOM     14  C   UNL     1       1.978   5.684  18.952  0.00  0.00    +0.000 C 
ATOM     15  C   UNL     1       3.268   4.893  19.077  0.00  0.00    +0.000 C 
ATOM     16  C   UNL     1       4.297   5.457  18.143  0.00  0.00    +0.000 A 
ATOM     17  C   UNL     1       5.285   4.579  17.684  0.00  0.00    +0.000 A 
ATOM     18  C   UNL     1       5.824   4.786  16.420  0.00  0.00    +0.000 A 
ATOM     19  C   UNL     1       5.433   5.894  15.687  0.00  0.00    +0.000 A 
ATOM     20  C   UNL     1       4.622   6.893  16.266  0.00  0.00    +0.000 A 
ATOM     21  C   UNL     1       4.056   6.704  17.538  0.00  0.00    +0.000 A 
ATOM     22  C   UNL     1       3.161   7.743  18.266  0.00  0.00    +0.000 C 
ENDBRANCH   9  11
BRANCH   1  25
ATOM     23  C   UNL     1      -4.559  11.610  17.236  0.00  0.00    +0.000 A 
ATOM     24  C   UNL     1      -3.706  11.517  18.334  0.00  0.00    +0.000 A 
ATOM     25  C   UNL     1      -2.437  10.944  18.212  0.00  0.00    +0.000 A 
ATOM     26  C   UNL     1      -2.019  10.460  16.970  0.00  0.00    +0.000 A 
ATOM     27  C   UNL     1      -2.877  10.517  15.872  0.00  0.00    +0.000 A 
ATOM     28  C   UNL     1      -4.146  11.088  16.008  0.00  0.00    +0.000 A 
BRANCH  23  30
ATOM     29  C   UNL     1      -6.779  11.441  18.072  0.00  0.00    +0.000 C 
ATOM     30  O   UNL     1      -5.753  12.233  17.488  0.00  0.00    +0.000 OA
ENDBRANCH  23  30
BRANCH  27  31
ATOM     31  O   UNL     1      -2.362   9.974  14.724  0.00  0.00    +0.000 OA
ATOM     32  C   UNL     1      -3.224   9.936  13.595  0.00  0.00    +0.000 C 
ENDBRANCH  27  31
ENDBRANCH   1  25
TORSDOF 4
ENDMDL
MODEL 8
REMARK VINA RESULT:      -7.7      3.753      6.445
REMARK  Name = 
REMARK  6 active torsions:
REMARK  status: ('A' for Active; 'I' for Inactive)
REMARK    1  A    between atoms: C_1  and  O_2
REMARK    2  A    between atoms: O_2  and  C_3
REMARK    3  A    between atoms: C_5  and  N_6
REMARK    4  A    between atoms: C_14  and  C_15
REMARK    5  A    between atoms: C_28  and  O_29
REMARK    6  A    between atoms: O_29  and  C_30
REMARK                            x       y       z     vdW  Elec       q    Type
REMARK                         _______ _______ _______ _____ _____    ______ ____
ROOT
ATOM      1  N   UNL     1       2.274   7.271  18.764  0.00  0.00    +0.000 N 
ATOM      2  C   UNL     1       1.772   8.187  19.649  0.00  0.00    +0.000 C 
ATOM      3  O   UNL     1       1.961   8.143  20.862  0.00  0.00    +0.000 OA
ATOM      4  N   UNL     1       1.019   9.190  19.095  0.00  0.00    +0.000 N 
ATOM      5  C   UNL     1       0.802   9.502  17.696  0.00  0.00    +0.000 C 
ATOM      6  C   UNL     1      -0.199  10.644  17.728  0.00  0.00    +0.000 C 
ATOM      7  F   UNL     1      -1.447  10.133  17.908  0.00  0.00    +0.000 F 
ATOM      8  C   UNL     1       0.199  11.421  18.965  0.00  0.00    +0.000 C 
ATOM      9  C   UNL     1       0.713  10.335  19.924  0.00  0.00    +0.000 C 
ATOM     10  H   UNL     1       2.639   7.653  17.906  0.00  0.00    +0.000 HD
ENDROOT
BRANCH   9  11
ATOM     11  C   UNL     1      -0.187  10.255  21.171  0.00  0.00    +0.000 C 
ATOM     12  O   UNL     1      -0.526   9.087  21.453  0.00  0.00    +0.000 OA
ATOM     13  N   UNL     1      -0.479  11.285  22.060  0.00  0.00    +0.000 N 
ATOM     14  C   UNL     1      -1.166  10.853  23.265  0.00  0.00    +0.000 C 
ATOM     15  C   UNL     1      -2.522  11.519  23.403  0.00  0.00    +0.000 C 
ATOM     16  C   UNL     1      -2.357  13.009  23.377  0.00  0.00    +0.000 A 
ATOM     17  C   UNL     1      -3.326  13.766  24.044  0.00  0.00    +0.000 A 
ATOM     18  C   UNL     1      -2.948  14.977  24.613  0.00  0.00    +0.000 A 
ATOM     19  C   UNL     1      -1.655  15.439  24.436  0.00  0.00    +0.000 A 
ATOM     20  C   UNL     1      -0.768  14.780  23.557  0.00  0.00    +0.000 A 
ATOM     21  C   UNL     1      -1.120  13.549  22.978  0.00  0.00    +0.000 A 
ATOM     22  C   UNL     1      -0.223  12.751  21.994  0.00  0.00    +0.000 C 
ENDBRANCH   9  11
BRANCH   1  25
ATOM     23  C   UNL     1       2.391   3.770  20.020  0.00  0.00    +0.000 A 
ATOM     24  C   UNL     1       1.901   5.024  19.661  0.00  0.00    +0.000 A 
ATOM     25  C   UNL     1       2.755   6.015  19.171  0.00  0.00    +0.000 A 
ATOM     26  C   UNL     1       4.119   5.742  19.038  0.00  0.00    +0.000 A 
ATOM     27  C   UNL     1       4.626   4.502  19.426  0.00  0.00    +0.000 A 
ATOM     28  C   UNL     1       3.762   3.520  19.919  0.00  0.00    +0.000 A 
BRANCH  23  30
ATOM     29  C   UNL     1       1.473   2.505  21.812  0.00  0.00    +0.000 C 
ATOM     30  O   UNL     1       1.437   2.881  20.442  0.00  0.00    +0.000 OA
ENDBRANCH  23  30
BRANCH  27  31
ATOM     31  O   UNL     1       5.982   4.376  19.282  0.00  0.00    +0.000 OA
ATOM     32  C   UNL     1       6.702   5.556  18.954  0.00  0.00    +0.000 C 
ENDBRANCH  27  31
ENDBRANCH   1  25
TORSDOF 4
ENDMDL
MODEL 9
REMARK VINA RESULT:      -7.7      7.434     11.001
REMARK  Name = 
REMARK  6 active torsions:
REMARK  status: ('A' for Active; 'I' for Inactive)
REMARK    1  A    between atoms: C_1  and  O_2
REMARK    2  A    between atoms: O_2  and  C_3
REMARK    3  A    between atoms: C_5  and  N_6
REMARK    4  A    between atoms: C_14  and  C_15
REMARK    5  A    between atoms: C_28  and  O_29
REMARK    6  A    between atoms: O_29  and  C_30
REMARK                            x       y       z     vdW  Elec       q    Type
REMARK                         _______ _______ _______ _____ _____    ______ ____
ROOT
ATOM      1  N   UNL     1       0.190  14.731  19.742  0.00  0.00    +0.000 N 
ATOM      2  C   UNL     1      -0.126  13.580  19.071  0.00  0.00    +0.000 C 
ATOM      3  O   UNL     1      -0.380  13.535  17.871  0.00  0.00    +0.000 OA
ATOM      4  N   UNL     1      -0.145  12.440  19.833  0.00  0.00    +0.000 N 
ATOM      5  C   UNL     1       0.263  12.258  21.213  0.00  0.00    +0.000 C 
ATOM      6  C   UNL     1      -0.097  10.813  21.511  0.00  0.00    +0.000 C 
ATOM      7  F   UNL     1      -1.425  10.736  21.792  0.00  0.00    +0.000 F 
ATOM      8  C   UNL     1       0.171  10.110  20.197  0.00  0.00    +0.000 C 
ATOM      9  C   UNL     1      -0.178  11.171  19.142  0.00  0.00    +0.000 C 
ATOM     10  H   UNL     1       0.941  14.652  20.409  0.00  0.00    +0.000 HD
ENDROOT
BRANCH   9  11
ATOM     11  C   UNL     1      -1.376  10.706  18.293  0.00  0.00    +0.000 C 
ATOM     12  O   UNL     1      -1.064   9.854  17.435  0.00  0.00    +0.000 OA
ATOM     13  N   UNL     1      -2.720  10.993  18.512  0.00  0.00    +0.000 N 
ATOM     14  C   UNL     1      -3.634  10.227  17.684  0.00  0.00    +0.000 C 
ATOM     15  C   UNL     1      -4.480  11.130  16.806  0.00  0.00    +0.000 C 
ATOM     16  C   UNL     1      -5.219  12.116  17.660  0.00  0.00    +0.000 A 
ATOM     17  C   UNL     1      -6.427  12.611  17.157  0.00  0.00    +0.000 A 
ATOM     18  C   UNL     1      -7.428  12.961  18.056  0.00  0.00    +0.000 A 
ATOM     19  C   UNL     1      -7.177  12.890  19.416  0.00  0.00    +0.000 A 
ATOM     20  C   UNL     1      -5.877  12.623  19.897  0.00  0.00    +0.000 A 
ATOM     21  C   UNL     1      -4.850  12.256  19.011  0.00  0.00    +0.000 A 
ATOM     22  C   UNL     1      -3.387  11.953  19.435  0.00  0.00    +0.000 C 
ENDBRANCH   9  11
BRANCH   1  25
ATOM     23  C   UNL     1       0.547  17.937  17.886  0.00  0.00    +0.000 A 
ATOM     24  C   UNL     1       0.850  16.692  18.432  0.00  0.00    +0.000 A 
ATOM     25  C   UNL     1      -0.080  16.007  19.218  0.00  0.00    +0.000 A 
ATOM     26  C   UNL     1      -1.332  16.580  19.458  0.00  0.00    +0.000 A 
ATOM     27  C   UNL     1      -1.633  17.841  18.945  0.00  0.00    +0.000 A 
ATOM     28  C   UNL     1      -0.693  18.519  18.163  0.00  0.00    +0.000 A 
BRANCH  23  30
ATOM     29  C   UNL     1       2.467  17.566  16.533  0.00  0.00    +0.000 C 
ATOM     30  O   UNL     1       1.533  18.474  17.100  0.00  0.00    +0.000 OA
ENDBRANCH  23  30
BRANCH  27  31
ATOM     31  O   UNL     1      -2.876  18.307  19.284  0.00  0.00    +0.000 OA
ATOM     32  C   UNL     1      -3.657  17.480  20.136  0.00  0.00    +0.000 C 
ENDBRANCH  27  31
ENDBRANCH   1  25
TORSDOF 4
ENDMDL
