MODEL 1
REMARK VINA RESULT:      -8.8      0.000      0.000
REMARK  Name = 
REMARK  4 active torsions:
REMARK  status: ('A' for Active; 'I' for Inactive)
REMARK    1  A    between atoms: C_2  and  C_11
REMARK    2  A    between atoms: N_3  and  C_4
REMARK    3  A    between atoms: C_14  and  N_15
REMARK    4  A    between atoms: N_15  and  C_16
REMARK                            x       y       z     vdW  Elec       q    Type
REMARK                         _______ _______ _______ _____ _____    ______ ____
ROOT
ATOM      1  C   UNL     1       8.489   8.780  18.514  0.00  0.00    +0.000 A 
ATOM      2  C   UNL     1       8.671   7.601  19.238  0.00  0.00    +0.000 A 
ATOM      3  C   UNL     1       7.922   6.459  18.913  0.00  0.00    +0.000 A 
ATOM      4  C   UNL     1       6.963   6.466  17.884  0.00  0.00    +0.000 A 
ATOM      5  C   UNL     1       6.872   7.617  17.098  0.00  0.00    +0.000 A 
ATOM      6  C   UNL     1       7.628   8.757  17.403  0.00  0.00    +0.000 A 
ENDROOT
BRANCH   1   8
ATOM      7  O   UNL     1       9.426  10.276  20.041  0.00  0.00    +0.000 OA
ATOM      8  C   UNL     1       9.159  10.082  18.865  0.00  0.00    +0.000 C 
ATOM      9  N   UNL     1       9.436  10.944  17.811  0.00  0.00    +0.000 N 
ATOM     10  H   UNL     1       9.139  10.674  16.883  0.00  0.00    +0.000 HD
BRANCH   9  11
ATOM     11  C   UNL     1      10.116  12.186  17.893  0.00  0.00    +0.000 A 
ATOM     12  C   UNL     1      11.505  12.314  18.007  0.00  0.00    +0.000 A 
ATOM     13  C   UNL     1      12.107  13.576  18.099  0.00  0.00    +0.000 A 
ATOM     14  C   UNL     1      11.325  14.728  18.085  0.00  0.00    +0.000 A 
ATOM     15  C   UNL     1       9.944  14.608  17.961  0.00  0.00    +0.000 A 
ATOM     16 CL   UNL     1       8.967  16.027  17.961  0.00  0.00    +0.000 Cl
ATOM     17  C   UNL     1       9.340  13.352  17.849  0.00  0.00    +0.000 A 
ENDBRANCH   9  11
ENDBRANCH   1   8
BRANCH   4  18
ATOM     18  N   UNL     1       5.972   5.467  17.754  0.00  0.00    +0.000 N 
ATOM     19  H   UNL     1       6.091   4.775  17.014  0.00  0.00    +0.000 HD
BRANCH  18  20
ATOM     20  C   UNL     1       4.833   5.316  18.540  0.00  0.00    +0.000 C 
ATOM     21  C   UNL     1       3.763   6.130  18.605  0.00  0.00    +0.000 C 
ATOM     22 CL   UNL     1       3.196   7.046  17.245  0.00  0.00    +0.000 Cl
ATOM     23  C   UNL     1       2.799   6.022  19.713  0.00  0.00    +0.000 C 
ATOM     24  O   UNL     1       2.368   6.991  20.326  0.00  0.00    +0.000 OA
ATOM     25  C   UNL     1       2.345   4.667  19.940  0.00  0.00    +0.000 A 
ATOM     26  C   UNL     1       1.019   4.459  20.319  0.00  0.00    +0.000 A 
ATOM     27  C   UNL     1       0.495   3.180  20.204  0.00  0.00    +0.000 A 
ATOM     28  C   UNL     1       1.304   2.135  19.745  0.00  0.00    +0.000 A 
ATOM     29  C   UNL     1       2.663   2.345  19.458  0.00  0.00    +0.000 A 
ATOM     30  C   UNL     1       3.194   3.629  19.565  0.00  0.00    +0.000 A 
ATOM     31  C   UNL     1       4.601   3.955  19.183  0.00  0.00    +0.000 C 
ATOM     32  O   UNL     1       5.494   3.116  19.255  0.00  0.00    +0.000 OA
ENDBRANCH  18  20
ENDBRANCH   4  18
TORSDOF 4
ENDMDL
MODEL 2
REMARK VINA RESULT:      -8.6      6.005      8.915
REMARK  Name = 
REMARK  4 active torsions:
REMARK  status: ('A' for Active; 'I' for Inactive)
REMARK    1  A    between atoms: C_2  and  C_11
REMARK    2  A    between atoms: N_3  and  C_4
REMARK    3  A    between atoms: C_14  and  N_15
REMARK    4  A    between atoms: N_15  and  C_16
REMARK                            x       y       z     vdW  Elec       q    Type
REMARK                         _______ _______ _______ _____ _____    ______ ____
ROOT
ATOM      1  C   UNL     1       0.403  10.107  20.616  0.00  0.00    +0.000 A 
ATOM      2  C   UNL     1       0.806   9.080  21.470  0.00  0.00    +0.000 A 
ATOM      3  C   UNL     1       1.527   7.988  20.958  0.00  0.00    +0.000 A 
ATOM      4  C   UNL     1       1.843   7.880  19.591  0.00  0.00    +0.000 A 
ATOM      5  C   UNL     1       1.531   8.967  18.772  0.00  0.00    +0.000 A 
ATOM      6  C   UNL     1       0.827  10.069  19.276  0.00  0.00    +0.000 A 
ENDROOT
BRANCH   1   8
ATOM      7  O   UNL     1      -0.896  11.996  20.179  0.00  0.00    +0.000 OA
ATOM      8  C   UNL     1      -0.471  11.253  21.051  0.00  0.00    +0.000 C 
ATOM      9  N   UNL     1      -0.737  11.354  22.411  0.00  0.00    +0.000 N 
ATOM     10  H   UNL     1      -0.300  10.686  23.032  0.00  0.00    +0.000 HD
BRANCH   9  11
ATOM     11  C   UNL     1      -1.582  12.305  23.037  0.00  0.00    +0.000 A 
ATOM     12  C   UNL     1      -2.911  12.056  23.397  0.00  0.00    +0.000 A 
ATOM     13  C   UNL     1      -3.692  13.051  24.001  0.00  0.00    +0.000 A 
ATOM     14  C   UNL     1      -3.153  14.312  24.246  0.00  0.00    +0.000 A 
ATOM     15  C   UNL     1      -1.829  14.562  23.900  0.00  0.00    +0.000 A 
ATOM     16 CL   UNL     1      -1.160  16.124  24.183  0.00  0.00    +0.000 Cl
ATOM     17  C   UNL     1      -1.040  13.566  23.316  0.00  0.00    +0.000 A 
ENDBRANCH   9  11
ENDBRANCH   1   8
BRANCH   4  18
ATOM     18  N   UNL     1       2.257   6.668  18.995  0.00  0.00    +0.000 N 
ATOM     19  H   UNL     1       1.540   5.975  18.783  0.00  0.00    +0.000 HD
BRANCH  18  20
ATOM     20  C   UNL     1       3.558   6.310  18.653  0.00  0.00    +0.000 C 
ATOM     21  C   UNL     1       4.329   5.364  19.222  0.00  0.00    +0.000 C 
ATOM     22 CL   UNL     1       3.678   3.911  19.910  0.00  0.00    +0.000 Cl
ATOM     23  C   UNL     1       5.781   5.328  18.979  0.00  0.00    +0.000 C 
ATOM     24  O   UNL     1       6.608   5.174  19.870  0.00  0.00    +0.000 OA
ATOM     25  C   UNL     1       6.123   5.399  17.575  0.00  0.00    +0.000 A 
ATOM     26  C   UNL     1       7.212   4.661  17.112  0.00  0.00    +0.000 A 
ATOM     27  C   UNL     1       7.334   4.454  15.746  0.00  0.00    +0.000 A 
ATOM     28  C   UNL     1       6.392   5.006  14.872  0.00  0.00    +0.000 A 
ATOM     29  C   UNL     1       5.355   5.825  15.350  0.00  0.00    +0.000 A 
ATOM     30  C   UNL     1       5.224   6.032  16.722  0.00  0.00    +0.000 A 
ATOM     31  C   UNL     1       4.092   6.806  17.316  0.00  0.00    +0.000 C 
ATOM     32  O   UNL     1       3.535   7.705  16.694  0.00  0.00    +0.000 OA
ENDBRANCH  18  20
ENDBRANCH   4  18
TORSDOF 4
ENDMDL
MODEL 3
REMARK VINA RESULT:      -8.5      6.048      9.083
REMARK  Name = 
REMARK  4 active torsions:
REMARK  status: ('A' for Active; 'I' for Inactive)
REMARK    1  A    between atoms: C_2  and  C_11
REMARK    2  A    between atoms: N_3  and  C_4
REMARK    3  A    between atoms: C_14  and  N_15
REMARK    4  A    between atoms: N_15  and  C_16
REMARK                            x       y       z     vdW  Elec       q    Type
REMARK                         _______ _______ _______ _____ _____    ______ ____
ROOT
ATOM      1  C   UNL     1       0.555   9.671  21.422  0.00  0.00    +0.000 A 
ATOM      2  C   UNL     1       1.062   8.385  21.611  0.00  0.00    +0.000 A 
ATOM      3  C   UNL     1       1.607   7.683  20.524  0.00  0.00    +0.000 A 
ATOM      4  C   UNL     1       1.641   8.227  19.227  0.00  0.00    +0.000 A 
ATOM      5  C   UNL     1       1.233   9.554  19.077  0.00  0.00    +0.000 A 
ATOM      6  C   UNL     1       0.702  10.271  20.159  0.00  0.00    +0.000 A 
ENDROOT
BRANCH   1   8
ATOM      7  O   UNL     1       0.024  10.099  23.654  0.00  0.00    +0.000 OA
ATOM      8  C   UNL     1      -0.153  10.451  22.498  0.00  0.00    +0.000 C 
ATOM      9  N   UNL     1      -0.933  11.523  22.080  0.00  0.00    +0.000 N 
ATOM     10  H   UNL     1      -1.017  11.693  21.088  0.00  0.00    +0.000 HD
BRANCH   9  11
ATOM     11  C   UNL     1      -1.633  12.432  22.914  0.00  0.00    +0.000 A 
ATOM     12  C   UNL     1      -1.132  13.677  23.310  0.00  0.00    +0.000 A 
ATOM     13  C   UNL     1      -1.875  14.519  24.148  0.00  0.00    +0.000 A 
ATOM     14  C   UNL     1      -3.127  14.121  24.609  0.00  0.00    +0.000 A 
ATOM     15  C   UNL     1      -3.636  12.888  24.211  0.00  0.00    +0.000 A 
ATOM     16 CL   UNL     1      -5.176  12.379  24.790  0.00  0.00    +0.000 Cl
ATOM     17  C   UNL     1      -2.906  12.053  23.357  0.00  0.00    +0.000 A 
ENDBRANCH   9  11
ENDBRANCH   1   8
BRANCH   4  18
ATOM     18  N   UNL     1       1.862   7.443  18.072  0.00  0.00    +0.000 N 
ATOM     19  H   UNL     1       1.242   7.587  17.276  0.00  0.00    +0.000 HD
BRANCH  18  20
ATOM     20  C   UNL     1       2.853   6.481  17.897  0.00  0.00    +0.000 C 
ATOM     21  C   UNL     1       2.736   5.146  18.022  0.00  0.00    +0.000 C 
ATOM     22 CL   UNL     1       1.275   4.292  17.646  0.00  0.00    +0.000 Cl
ATOM     23  C   UNL     1       3.932   4.292  18.134  0.00  0.00    +0.000 C 
ATOM     24  O   UNL     1       4.040   3.393  18.960  0.00  0.00    +0.000 OA
ATOM     25  C   UNL     1       4.920   4.562  17.113  0.00  0.00    +0.000 A 
ATOM     26  C   UNL     1       5.648   3.495  16.586  0.00  0.00    +0.000 A 
ATOM     27  C   UNL     1       6.331   3.690  15.395  0.00  0.00    +0.000 A 
ATOM     28  C   UNL     1       6.301   4.941  14.771  0.00  0.00    +0.000 A 
ATOM     29  C   UNL     1       5.640   6.029  15.366  0.00  0.00    +0.000 A 
ATOM     30  C   UNL     1       4.946   5.839  16.560  0.00  0.00    +0.000 A 
ATOM     31  C   UNL     1       4.137   6.917  17.203  0.00  0.00    +0.000 C 
ATOM     32  O   UNL     1       4.420   8.103  17.059  0.00  0.00    +0.000 OA
ENDBRANCH  18  20
ENDBRANCH   4  18
TORSDOF 4
ENDMDL
MODEL 4
REMARK VINA RESULT:      -8.5      1.414      1.546
REMARK  Name = 
REMARK  4 active torsions:
REMARK  status: ('A' for Active; 'I' for Inactive)
REMARK    1  A    between atoms: C_2  and  C_11
REMARK    2  A    between atoms: N_3  and  C_4
REMARK    3  A    between atoms: C_14  and  N_15
REMARK    4  A    between atoms: N_15  and  C_16
REMARK                            x       y       z     vdW  Elec       q    Type
REMARK                         _______ _______ _______ _____ _____    ______ ____
ROOT
ATOM      1  C   UNL     1       8.244   8.264  18.245  0.00  0.00    +0.000 A 
ATOM      2  C   UNL     1       8.511   7.379  19.290  0.00  0.00    +0.000 A 
ATOM      3  C   UNL     1       7.947   6.093  19.276  0.00  0.00    +0.000 A 
ATOM      4  C   UNL     1       7.093   5.665  18.243  0.00  0.00    +0.000 A 
ATOM      5  C   UNL     1       6.927   6.520  17.152  0.00  0.00    +0.000 A 
ATOM      6  C   UNL     1       7.499   7.801  17.148  0.00  0.00    +0.000 A 
ENDROOT
BRANCH   1   8
ATOM      7  O   UNL     1       8.101  10.476  17.511  0.00  0.00    +0.000 OA
ATOM      8  C   UNL     1       8.706   9.698  18.233  0.00  0.00    +0.000 C 
ATOM      9  N   UNL     1       9.773  10.016  19.065  0.00  0.00    +0.000 N 
ATOM     10  H   UNL     1      10.203   9.270  19.594  0.00  0.00    +0.000 HD
BRANCH   9  11
ATOM     11  C   UNL     1      10.330  11.304  19.266  0.00  0.00    +0.000 A 
ATOM     12  C   UNL     1      10.248  12.015  20.469  0.00  0.00    +0.000 A 
ATOM     13  C   UNL     1      10.812  13.292  20.590  0.00  0.00    +0.000 A 
ATOM     14  C   UNL     1      11.458  13.879  19.505  0.00  0.00    +0.000 A 
ATOM     15  C   UNL     1      11.552  13.173  18.309  0.00  0.00    +0.000 A 
ATOM     16 CL   UNL     1      12.333  13.898  16.957  0.00  0.00    +0.000 Cl
ATOM     17  C   UNL     1      11.009  11.890  18.190  0.00  0.00    +0.000 A 
ENDBRANCH   9  11
ENDBRANCH   1   8
BRANCH   4  18
ATOM     18  N   UNL     1       6.256   4.533  18.361  0.00  0.00    +0.000 N 
ATOM     19  H   UNL     1       6.603   3.647  17.996  0.00  0.00    +0.000 HD
BRANCH  18  20
ATOM     20  C   UNL     1       4.988   4.491  18.934  0.00  0.00    +0.000 C 
ATOM     21  C   UNL     1       4.028   5.433  18.879  0.00  0.00    +0.000 C 
ATOM     22 CL   UNL     1       3.818   6.482  17.514  0.00  0.00    +0.000 Cl
ATOM     23  C   UNL     1       2.879   5.394  19.802  0.00  0.00    +0.000 C 
ATOM     24  O   UNL     1       2.467   6.379  20.402  0.00  0.00    +0.000 OA
ATOM     25  C   UNL     1       2.236   4.100  19.852  0.00  0.00    +0.000 A 
ATOM     26  C   UNL     1       0.848   4.046  19.990  0.00  0.00    +0.000 A 
ATOM     27  C   UNL     1       0.204   2.853  19.698  0.00  0.00    +0.000 A 
ATOM     28  C   UNL     1       0.951   1.737  19.306  0.00  0.00    +0.000 A 
ATOM     29  C   UNL     1       2.354   1.784  19.264  0.00  0.00    +0.000 A 
ATOM     30  C   UNL     1       3.007   2.981  19.550  0.00  0.00    +0.000 A 
ATOM     31  C   UNL     1       4.488   3.141  19.430  0.00  0.00    +0.000 C 
ATOM     32  O   UNL     1       5.249   2.192  19.590  0.00  0.00    +0.000 OA
ENDBRANCH  18  20
ENDBRANCH   4  18
TORSDOF 4
ENDMDL
MODEL 5
REMARK VINA RESULT:      -8.5      5.710      8.976
REMARK  Name = 
REMARK  4 active torsions:
REMARK  status: ('A' for Active; 'I' for Inactive)
REMARK    1  A    between atoms: C_2  and  C_11
REMARK    2  A    between atoms: N_3  and  C_4
REMARK    3  A    between atoms: C_14  and  N_15
REMARK    4  A    between atoms: N_15  and  C_16
REMARK                            x       y       z     vdW  Elec       q    Type
REMARK                         _______ _______ _______ _____ _____    ______ ____
ROOT
ATOM      1  C   UNL     1       0.717   9.263  19.012  0.00  0.00    +0.000 A 
ATOM      2  C   UNL     1       0.827   8.829  20.333  0.00  0.00    +0.000 A 
ATOM      3  C   UNL     1       1.760   7.834  20.667  0.00  0.00    +0.000 A 
ATOM      4  C   UNL     1       2.584   7.232  19.698  0.00  0.00    +0.000 A 
ATOM      5  C   UNL     1       2.541   7.754  18.403  0.00  0.00    +0.000 A 
ATOM      6  C   UNL     1       1.625   8.760  18.064  0.00  0.00    +0.000 A 
ENDROOT
BRANCH   1   8
ATOM      7  O   UNL     1      -0.011  11.413  18.471  0.00  0.00    +0.000 OA
ATOM      8  C   UNL     1      -0.331  10.237  18.542  0.00  0.00    +0.000 C 
ATOM      9  N   UNL     1      -1.571   9.705  18.209  0.00  0.00    +0.000 N 
ATOM     10  H   UNL     1      -1.714   8.713  18.338  0.00  0.00    +0.000 HD
BRANCH   9  11
ATOM     11  C   UNL     1      -2.680  10.416  17.684  0.00  0.00    +0.000 A 
ATOM     12  C   UNL     1      -3.039  10.422  16.332  0.00  0.00    +0.000 A 
ATOM     13  C   UNL     1      -4.142  11.161  15.882  0.00  0.00    +0.000 A 
ATOM     14  C   UNL     1      -4.896  11.911  16.782  0.00  0.00    +0.000 A 
ATOM     15  C   UNL     1      -4.550  11.901  18.130  0.00  0.00    +0.000 A 
ATOM     16 CL   UNL     1      -5.466  12.839  19.247  0.00  0.00    +0.000 Cl
ATOM     17  C   UNL     1      -3.463  11.149  18.586  0.00  0.00    +0.000 A 
ENDBRANCH   9  11
ENDBRANCH   1   8
BRANCH   4  18
ATOM     18  N   UNL     1       3.275   6.020  19.926  0.00  0.00    +0.000 N 
ATOM     19  H   UNL     1       3.390   5.715  20.891  0.00  0.00    +0.000 HD
BRANCH  18  20
ATOM     20  C   UNL     1       3.822   5.179  18.960  0.00  0.00    +0.000 C 
ATOM     21  C   UNL     1       3.176   4.295  18.177  0.00  0.00    +0.000 C 
ATOM     22 CL   UNL     1       1.552   4.543  17.622  0.00  0.00    +0.000 Cl
ATOM     23  C   UNL     1       3.917   3.250  17.450  0.00  0.00    +0.000 C 
ATOM     24  O   UNL     1       3.566   2.077  17.416  0.00  0.00    +0.000 OA
ATOM     25  C   UNL     1       5.045   3.768  16.707  0.00  0.00    +0.000 A 
ATOM     26  C   UNL     1       5.352   3.198  15.470  0.00  0.00    +0.000 A 
ATOM     27  C   UNL     1       6.193   3.895  14.615  0.00  0.00    +0.000 A 
ATOM     28  C   UNL     1       6.730   5.123  15.015  0.00  0.00    +0.000 A 
ATOM     29  C   UNL     1       6.485   5.635  16.300  0.00  0.00    +0.000 A 
ATOM     30  C   UNL     1       5.637   4.942  17.162  0.00  0.00    +0.000 A 
ATOM     31  C   UNL     1       5.246   5.469  18.505  0.00  0.00    +0.000 C 
ATOM     32  O   UNL     1       5.987   6.212  19.141  0.00  0.00    +0.000 OA
ENDBRANCH  18  20
ENDBRANCH   4  18
TORSDOF 4
ENDMDL
MODEL 6
REMARK VINA RESULT:      -8.5      6.974     10.298
REMARK  Name = 
REMARK  4 active torsions:
REMARK  status: ('A' for Active; 'I' for Inactive)
REMARK    1  A    between atoms: C_2  and  C_11
REMARK    2  A    between atoms: N_3  and  C_4
REMARK    3  A    between atoms: C_14  and  N_15
REMARK    4  A    between atoms: N_15  and  C_16
REMARK                            x       y       z     vdW  Elec       q    Type
REMARK                         _______ _______ _______ _____ _____    ______ ____
ROOT
ATOM      1  C   UNL     1       1.294   8.989  19.582  0.00  0.00    +0.000 A 
ATOM      2  C   UNL     1       1.503   9.980  18.623  0.00  0.00    +0.000 A 
ATOM      3  C   UNL     1       0.790  11.188  18.700  0.00  0.00    +0.000 A 
ATOM      4  C   UNL     1      -0.159  11.429  19.710  0.00  0.00    +0.000 A 
ATOM      5  C   UNL     1      -0.276  10.475  20.723  0.00  0.00    +0.000 A 
ATOM      6  C   UNL     1       0.445   9.273  20.665  0.00  0.00    +0.000 A 
ENDROOT
BRANCH   1   8
ATOM      7  O   UNL     1       1.963   6.972  20.547  0.00  0.00    +0.000 OA
ATOM      8  C   UNL     1       1.922   7.622  19.514  0.00  0.00    +0.000 C 
ATOM      9  N   UNL     1       2.384   7.209  18.270  0.00  0.00    +0.000 N 
ATOM     10  H   UNL     1       2.313   7.856  17.497  0.00  0.00    +0.000 HD
BRANCH   9  11
ATOM     11  C   UNL     1       2.947   5.947  17.956  0.00  0.00    +0.000 A 
ATOM     12  C   UNL     1       2.204   4.769  17.816  0.00  0.00    +0.000 A 
ATOM     13  C   UNL     1       2.831   3.552  17.518  0.00  0.00    +0.000 A 
ATOM     14  C   UNL     1       4.214   3.496  17.364  0.00  0.00    +0.000 A 
ATOM     15  C   UNL     1       4.958   4.666  17.490  0.00  0.00    +0.000 A 
ATOM     16 CL   UNL     1       6.671   4.603  17.318  0.00  0.00    +0.000 Cl
ATOM     17  C   UNL     1       4.334   5.886  17.768  0.00  0.00    +0.000 A 
ENDBRANCH   9  11
ENDBRANCH   1   8
BRANCH   4  18
ATOM     18  N   UNL     1      -1.119  12.463  19.628  0.00  0.00    +0.000 N 
ATOM     19  H   UNL     1      -0.821  13.406  19.872  0.00  0.00    +0.000 HD
BRANCH  18  20
ATOM     20  C   UNL     1      -2.450  12.334  19.241  0.00  0.00    +0.000 C 
ATOM     21  C   UNL     1      -2.962  11.497  18.319  0.00  0.00    +0.000 C 
ATOM     22 CL   UNL     1      -2.297   9.927  18.003  0.00  0.00    +0.000 Cl
ATOM     23  C   UNL     1      -4.319  11.705  17.782  0.00  0.00    +0.000 C 
ATOM     24  O   UNL     1      -4.585  11.642  16.588  0.00  0.00    +0.000 OA
ATOM     25  C   UNL     1      -5.313  11.899  18.814  0.00  0.00    +0.000 A 
ATOM     26  C   UNL     1      -6.589  11.367  18.624  0.00  0.00    +0.000 A 
ATOM     27  C   UNL     1      -7.424  11.249  19.725  0.00  0.00    +0.000 A 
ATOM     28  C   UNL     1      -6.987  11.686  20.980  0.00  0.00    +0.000 A 
ATOM     29  C   UNL     1      -5.735  12.305  21.134  0.00  0.00    +0.000 A 
ATOM     30  C   UNL     1      -4.889  12.421  20.033  0.00  0.00    +0.000 A 
ATOM     31  C   UNL     1      -3.505  12.974  20.134  0.00  0.00    +0.000 C 
ATOM     32  O   UNL     1      -3.207  13.802  20.989  0.00  0.00    +0.000 OA
ENDBRANCH  18  20
ENDBRANCH   4  18
TORSDOF 4
ENDMDL
MODEL 7
REMARK VINA RESULT:      -8.4      5.570      8.313
REMARK  Name = 
REMARK  4 active torsions:
REMARK  status: ('A' for Active; 'I' for Inactive)
REMARK    1  A    between atoms: C_2  and  C_11
REMARK    2  A    between atoms: N_3  and  C_4
REMARK    3  A    between atoms: C_14  and  N_15
REMARK    4  A    between atoms: N_15  and  C_16
REMARK                            x       y       z     vdW  Elec       q    Type
REMARK                         _______ _______ _______ _____ _____    ______ ____
ROOT
ATOM      1  C   UNL     1       1.012   9.336  19.984  0.00  0.00    +0.000 A 
ATOM      2  C   UNL     1       1.741   8.916  18.870  0.00  0.00    +0.000 A 
ATOM      3  C   UNL     1       2.354   7.652  18.873  0.00  0.00    +0.000 A 
ATOM      4  C   UNL     1       2.278   6.790  19.983  0.00  0.00    +0.000 A 
ATOM      5  C   UNL     1       1.455   7.178  21.042  0.00  0.00    +0.000 A 
ATOM      6  C   UNL     1       0.824   8.430  21.042  0.00  0.00    +0.000 A 
ENDROOT
BRANCH   1   8
ATOM      7  O   UNL     1       0.813  11.570  19.338  0.00  0.00    +0.000 OA
ATOM      8  C   UNL     1       0.422  10.715  20.118  0.00  0.00    +0.000 C 
ATOM      9  N   UNL     1      -0.537  10.889  21.109  0.00  0.00    +0.000 N 
ATOM     10  H   UNL     1      -0.753  10.102  21.706  0.00  0.00    +0.000 HD
BRANCH   9  11
ATOM     11  C   UNL     1      -1.271  12.073  21.373  0.00  0.00    +0.000 A 
ATOM     12  C   UNL     1      -2.230  12.610  20.508  0.00  0.00    +0.000 A 
ATOM     13  C   UNL     1      -2.907  13.794  20.830  0.00  0.00    +0.000 A 
ATOM     14  C   UNL     1      -2.626  14.461  22.020  0.00  0.00    +0.000 A 
ATOM     15  C   UNL     1      -1.680  13.926  22.889  0.00  0.00    +0.000 A 
ATOM     16 CL   UNL     1      -1.313  14.753  24.355  0.00  0.00    +0.000 Cl
ATOM     17  C   UNL     1      -1.017  12.734  22.582  0.00  0.00    +0.000 A 
ENDBRANCH   9  11
ENDBRANCH   1   8
BRANCH   4  18
ATOM     18  N   UNL     1       3.142   5.685  20.155  0.00  0.00    +0.000 N 
ATOM     19  H   UNL     1       3.363   5.400  21.108  0.00  0.00    +0.000 HD
BRANCH  18  20
ATOM     20  C   UNL     1       3.731   4.925  19.148  0.00  0.00    +0.000 C 
ATOM     21  C   UNL     1       3.118   4.136  18.246  0.00  0.00    +0.000 C 
ATOM     22 CL   UNL     1       1.537   4.477  17.620  0.00  0.00    +0.000 Cl
ATOM     23  C   UNL     1       3.882   3.145  17.468  0.00  0.00    +0.000 C 
ATOM     24  O   UNL     1       3.510   1.990  17.301  0.00  0.00    +0.000 OA
ATOM     25  C   UNL     1       5.065   3.701  16.847  0.00  0.00    +0.000 A 
ATOM     26  C   UNL     1       5.437   3.243  15.583  0.00  0.00    +0.000 A 
ATOM     27  C   UNL     1       6.343   3.995  14.851  0.00  0.00    +0.000 A 
ATOM     28  C   UNL     1       6.880   5.165  15.399  0.00  0.00    +0.000 A 
ATOM     29  C   UNL     1       6.565   5.560  16.710  0.00  0.00    +0.000 A 
ATOM     30  C   UNL     1       5.650   4.812  17.449  0.00  0.00    +0.000 A 
ATOM     31  C   UNL     1       5.186   5.220  18.809  0.00  0.00    +0.000 C 
ATOM     32  O   UNL     1       5.901   5.879  19.558  0.00  0.00    +0.000 OA
ENDBRANCH  18  20
ENDBRANCH   4  18
TORSDOF 4
ENDMDL
MODEL 8
REMARK VINA RESULT:      -8.4      6.354      9.475
REMARK  Name = 
REMARK  4 active torsions:
REMARK  status: ('A' for Active; 'I' for Inactive)
REMARK    1  A    between atoms: C_2  and  C_11
REMARK    2  A    between atoms: N_3  and  C_4
REMARK    3  A    between atoms: C_14  and  N_15
REMARK    4  A    between atoms: N_15  and  C_16
REMARK                            x       y       z     vdW  Elec       q    Type
REMARK                         _______ _______ _______ _____ _____    ______ ____
ROOT
ATOM      1  C   UNL     1       2.337   7.708  18.709  0.00  0.00    +0.000 A 
ATOM      2  C   UNL     1       1.893   8.778  17.933  0.00  0.00    +0.000 A 
ATOM      3  C   UNL     1       1.057   9.754  18.501  0.00  0.00    +0.000 A 
ATOM      4  C   UNL     1       0.626   9.678  19.838  0.00  0.00    +0.000 A 
ATOM      5  C   UNL     1       1.168   8.664  20.631  0.00  0.00    +0.000 A 
ATOM      6  C   UNL     1       2.017   7.695  20.078  0.00  0.00    +0.000 A 
ENDROOT
BRANCH   1   8
ATOM      7  O   UNL     1       2.574   5.475  18.072  0.00  0.00    +0.000 OA
ATOM      8  C   UNL     1       3.135   6.557  18.157  0.00  0.00    +0.000 C 
ATOM      9  N   UNL     1       4.442   6.832  17.771  0.00  0.00    +0.000 N 
ATOM     10  H   UNL     1       4.795   7.767  17.919  0.00  0.00    +0.000 HD
BRANCH   9  11
ATOM     11  C   UNL     1       5.351   5.927  17.168  0.00  0.00    +0.000 A 
ATOM     12  C   UNL     1       6.514   5.454  17.787  0.00  0.00    +0.000 A 
ATOM     13  C   UNL     1       7.375   4.570  17.123  0.00  0.00    +0.000 A 
ATOM     14  C   UNL     1       7.087   4.154  15.826  0.00  0.00    +0.000 A 
ATOM     15  C   UNL     1       5.927   4.612  15.209  0.00  0.00    +0.000 A 
ATOM     16 CL   UNL     1       5.572   4.117  13.598  0.00  0.00    +0.000 Cl
ATOM     17  C   UNL     1       5.054   5.478  15.875  0.00  0.00    +0.000 A 
ENDBRANCH   9  11
ENDBRANCH   1   8
BRANCH   4  18
ATOM     18  N   UNL     1      -0.459  10.432  20.337  0.00  0.00    +0.000 N 
ATOM     19  H   UNL     1      -1.401  10.103  20.128  0.00  0.00    +0.000 HD
BRANCH  18  20
ATOM     20  C   UNL     1      -0.385  11.595  21.100  0.00  0.00    +0.000 C 
ATOM     21  C   UNL     1      -0.057  12.832  20.685  0.00  0.00    +0.000 C 
ATOM     22 CL   UNL     1      -0.422  13.418  19.094  0.00  0.00    +0.000 Cl
ATOM     23  C   UNL     1       0.302  13.882  21.655  0.00  0.00    +0.000 C 
ATOM     24  O   UNL     1       1.269  14.622  21.517  0.00  0.00    +0.000 OA
ATOM     25  C   UNL     1      -0.654  14.009  22.733  0.00  0.00    +0.000 A 
ATOM     26  C   UNL     1      -0.932  15.280  23.236  0.00  0.00    +0.000 A 
ATOM     27  C   UNL     1      -2.071  15.447  24.010  0.00  0.00    +0.000 A 
ATOM     28  C   UNL     1      -2.889  14.347  24.291  0.00  0.00    +0.000 A 
ATOM     29  C   UNL     1      -2.541  13.058  23.854  0.00  0.00    +0.000 A 
ATOM     30  C   UNL     1      -1.401  12.885  23.071  0.00  0.00    +0.000 A 
ATOM     31  C   UNL     1      -1.019  11.565  22.484  0.00  0.00    +0.000 C 
ATOM     32  O   UNL     1      -1.326  10.509  23.029  0.00  0.00    +0.000 OA
ENDBRANCH  18  20
ENDBRANCH   4  18
TORSDOF 4
ENDMDL
MODEL 9
REMARK VINA RESULT:      -8.4      6.950     10.470
REMARK  Name = 
REMARK  4 active torsions:
REMARK  status: ('A' for Active; 'I' for Inactive)
REMARK    1  A    between atoms: C_2  and  C_11
REMARK    2  A    between atoms: N_3  and  C_4
REMARK    3  A    between atoms: C_14  and  N_15
REMARK    4  A    between atoms: N_15  and  C_16
REMARK                            x       y       z     vdW  Elec       q    Type
REMARK                         _______ _______ _______ _____ _____    ______ ____
ROOT
ATOM      1  C   UNL     1       1.190   8.911  19.915  0.00  0.00    +0.000 A 
ATOM      2  C   UNL     1       1.481   9.753  18.842  0.00  0.00    +0.000 A 
ATOM      3  C   UNL     1       0.812  10.982  18.716  0.00  0.00    +0.000 A 
ATOM      4  C   UNL     1      -0.174  11.390  19.634  0.00  0.00    +0.000 A 
ATOM      5  C   UNL     1      -0.373  10.589  20.760  0.00  0.00    +0.000 A 
ATOM      6  C   UNL     1       0.303   9.369  20.904  0.00  0.00    +0.000 A 
ENDROOT
BRANCH   1   8
ATOM      7  O   UNL     1       1.421   6.880  21.042  0.00  0.00    +0.000 OA
ATOM      8  C   UNL     1       1.769   7.529  20.067  0.00  0.00    +0.000 C 
ATOM      9  N   UNL     1       2.637   7.103  19.068  0.00  0.00    +0.000 N 
ATOM     10  H   UNL     1       2.862   7.751  18.326  0.00  0.00    +0.000 HD
BRANCH   9  11
ATOM     11  C   UNL     1       3.245   5.827  18.968  0.00  0.00    +0.000 A 
ATOM     12  C   UNL     1       4.604   5.585  19.200  0.00  0.00    +0.000 A 
ATOM     13  C   UNL     1       5.139   4.296  19.067  0.00  0.00    +0.000 A 
ATOM     14  C   UNL     1       4.321   3.233  18.693  0.00  0.00    +0.000 A 
ATOM     15  C   UNL     1       2.966   3.465  18.472  0.00  0.00    +0.000 A 
ATOM     16 CL   UNL     1       1.950   2.160  17.991  0.00  0.00    +0.000 Cl
ATOM     17  C   UNL     1       2.424   4.745  18.622  0.00  0.00    +0.000 A 
ENDBRANCH   9  11
ENDBRANCH   1   8
BRANCH   4  18
ATOM     18  N   UNL     1      -1.089  12.432  19.362  0.00  0.00    +0.000 N 
ATOM     19  H   UNL     1      -0.738  13.388  19.387  0.00  0.00    +0.000 HD
BRANCH  18  20
ATOM     20  C   UNL     1      -2.439  12.294  19.054  0.00  0.00    +0.000 C 
ATOM     21  C   UNL     1      -3.004  11.421  18.199  0.00  0.00    +0.000 C 
ATOM     22 CL   UNL     1      -2.363   9.834  17.917  0.00  0.00    +0.000 Cl
ATOM     23  C   UNL     1      -4.387  11.613  17.729  0.00  0.00    +0.000 C 
ATOM     24  O   UNL     1      -4.719  11.499  16.555  0.00  0.00    +0.000 OA
ATOM     25  C   UNL     1      -5.323  11.857  18.804  0.00  0.00    +0.000 A 
ATOM     26  C   UNL     1      -6.609  11.326  18.707  0.00  0.00    +0.000 A 
ATOM     27  C   UNL     1      -7.383  11.261  19.856  0.00  0.00    +0.000 A 
ATOM     28  C   UNL     1      -6.876  11.749  21.065  0.00  0.00    +0.000 A 
ATOM     29  C   UNL     1      -5.615  12.367  21.123  0.00  0.00    +0.000 A 
ATOM     30  C   UNL     1      -4.831  12.430  19.973  0.00  0.00    +0.000 A 
ATOM     31  C   UNL     1      -3.441  12.979  19.974  0.00  0.00    +0.000 C 
ATOM     32  O   UNL     1      -3.094  13.842  20.775  0.00  0.00    +0.000 OA
ENDBRANCH  18  20
ENDBRANCH   4  18
TORSDOF 4
ENDMDL
