MODEL 1
REMARK VINA RESULT:      -7.8      0.000      0.000
REMARK  Name = 
REMARK  11 active torsions:
REMARK  status: ('A' for Active; 'I' for Inactive)
REMARK    1  A    between atoms: C_1  and  C_2
REMARK    2  A    between atoms: N_4  and  C_5
REMARK    3  A    between atoms: C_7  and  C_8
REMARK    4  A    between atoms: C_8  and  C_9
REMARK    5  A    between atoms: C_8  and  C_10
REMARK    6  A    between atoms: C_8  and  C_11
REMARK    7  A    between atoms: C_12  and  O_13
REMARK    8  A    between atoms: C_14  and  C_15
REMARK    9  A    between atoms: C_15  and  C_16
REMARK   10  A    between atoms: C_15  and  C_17
REMARK   11  A    between atoms: C_15  and  C_18
REMARK                            x       y       z     vdW  Elec       q    Type
REMARK                         _______ _______ _______ _____ _____    ______ ____
ROOT
ATOM      1  C   UNL     1       3.203   6.611  18.013  0.00  0.00    +0.000 A 
ATOM      2  C   UNL     1       2.634   5.399  18.402  0.00  0.00    +0.000 A 
ATOM      3  C   UNL     1       3.399   4.275  18.761  0.00  0.00    +0.000 A 
ATOM      4  C   UNL     1       4.805   4.442  18.712  0.00  0.00    +0.000 A 
ATOM      5  C   UNL     1       5.434   5.616  18.218  0.00  0.00    +0.000 A 
ATOM      6  C   UNL     1       4.589   6.688  17.868  0.00  0.00    +0.000 A 
ENDROOT
BRANCH   1  10
ATOM      7  C   UNL     1       1.033   9.694  18.097  0.00  0.00    +0.000 C 
ATOM      8  C   UNL     1       1.766   8.528  18.707  0.00  0.00    +0.000 C 
ATOM      9  O   UNL     1       1.742   8.351  19.919  0.00  0.00    +0.000 OA
ATOM     10  N   UNL     1       2.426   7.762  17.756  0.00  0.00    +0.000 N 
ATOM     11  H   UNL     1       2.480   8.138  16.816  0.00  0.00    +0.000 HD
ENDBRANCH   1  10
BRANCH   3  12
ATOM     12  C   UNL     1       2.666   2.971  19.176  0.00  0.00    +0.000 C 
ATOM     13  C   UNL     1       1.139   2.988  18.867  0.00  0.00    +0.000 C 
ATOM     14  C   UNL     1       3.221   1.765  18.387  0.00  0.00    +0.000 C 
ATOM     15  C   UNL     1       2.784   2.712  20.691  0.00  0.00    +0.000 C 
ENDBRANCH   3  12
BRANCH   5  16
ATOM     16  C   UNL     1       6.973   5.727  18.042  0.00  0.00    +0.000 C 
ATOM     17  C   UNL     1       7.348   7.082  17.393  0.00  0.00    +0.000 C 
ATOM     18  C   UNL     1       7.753   5.677  19.384  0.00  0.00    +0.000 C 
ATOM     19  C   UNL     1       7.534   4.575  17.181  0.00  0.00    +0.000 C 
ENDBRANCH   5  16
BRANCH   4  20
ATOM     20  O   UNL     1       5.621   3.463  19.201  0.00  0.00    +0.000 OA
ATOM     21  H   UNL     1       6.519   3.666  18.907  0.00  0.00    +0.000 HD
ENDBRANCH   4  20
TORSDOF 4
ENDMDL
MODEL 2
REMARK VINA RESULT:      -7.7      0.088      1.409
REMARK  Name = 
REMARK  11 active torsions:
REMARK  status: ('A' for Active; 'I' for Inactive)
REMARK    1  A    between atoms: C_1  and  C_2
REMARK    2  A    between atoms: N_4  and  C_5
REMARK    3  A    between atoms: C_7  and  C_8
REMARK    4  A    between atoms: C_8  and  C_9
REMARK    5  A    between atoms: C_8  and  C_10
REMARK    6  A    between atoms: C_8  and  C_11
REMARK    7  A    between atoms: C_12  and  O_13
REMARK    8  A    between atoms: C_14  and  C_15
REMARK    9  A    between atoms: C_15  and  C_16
REMARK   10  A    between atoms: C_15  and  C_17
REMARK   11  A    between atoms: C_15  and  C_18
REMARK                            x       y       z     vdW  Elec       q    Type
REMARK                         _______ _______ _______ _____ _____    ______ ____
ROOT
ATOM      1  C   UNL     1       3.208   6.636  17.991  0.00  0.00    +0.000 A 
ATOM      2  C   UNL     1       2.629   5.416  18.338  0.00  0.00    +0.000 A 
ATOM      3  C   UNL     1       3.384   4.279  18.680  0.00  0.00    +0.000 A 
ATOM      4  C   UNL     1       4.791   4.443  18.661  0.00  0.00    +0.000 A 
ATOM      5  C   UNL     1       5.433   5.628  18.209  0.00  0.00    +0.000 A 
ATOM      6  C   UNL     1       4.596   6.712  17.873  0.00  0.00    +0.000 A 
ENDROOT
BRANCH   1  10
ATOM      7  C   UNL     1       1.049   9.725  18.120  0.00  0.00    +0.000 C 
ATOM      8  C   UNL     1       1.769   8.541  18.711  0.00  0.00    +0.000 C 
ATOM      9  O   UNL     1       1.727   8.335  19.918  0.00  0.00    +0.000 OA
ATOM     10  N   UNL     1       2.439   7.796  17.751  0.00  0.00    +0.000 N 
ATOM     11  H   UNL     1       2.507   8.194  16.822  0.00  0.00    +0.000 HD
ENDBRANCH   1  10
BRANCH   3  12
ATOM     12  C   UNL     1       2.640   2.968  19.048  0.00  0.00    +0.000 C 
ATOM     13  C   UNL     1       3.240   1.699  18.369  0.00  0.00    +0.000 C 
ATOM     14  C   UNL     1       2.741   2.696  20.564  0.00  0.00    +0.000 C 
ATOM     15  C   UNL     1       1.162   3.014  18.615  0.00  0.00    +0.000 C 
ENDBRANCH   3  12
BRANCH   5  16
ATOM     16  C   UNL     1       6.975   5.739  18.063  0.00  0.00    +0.000 C 
ATOM     17  C   UNL     1       7.516   4.607  17.156  0.00  0.00    +0.000 C 
ATOM     18  C   UNL     1       7.438   7.064  17.399  0.00  0.00    +0.000 C 
ATOM     19  C   UNL     1       7.683   5.680  19.434  0.00  0.00    +0.000 C 
ENDBRANCH   5  16
BRANCH   4  20
ATOM     20  O   UNL     1       5.596   3.449  19.138  0.00  0.00    +0.000 OA
ATOM     21  H   UNL     1       5.080   2.631  19.121  0.00  0.00    +0.000 HD
ENDBRANCH   4  20
TORSDOF 4
ENDMDL
MODEL 3
REMARK VINA RESULT:      -7.7      0.120      1.004
REMARK  Name = 
REMARK  11 active torsions:
REMARK  status: ('A' for Active; 'I' for Inactive)
REMARK    1  A    between atoms: C_1  and  C_2
REMARK    2  A    between atoms: N_4  and  C_5
REMARK    3  A    between atoms: C_7  and  C_8
REMARK    4  A    between atoms: C_8  and  C_9
REMARK    5  A    between atoms: C_8  and  C_10
REMARK    6  A    between atoms: C_8  and  C_11
REMARK    7  A    between atoms: C_12  and  O_13
REMARK    8  A    between atoms: C_14  and  C_15
REMARK    9  A    between atoms: C_15  and  C_16
REMARK   10  A    between atoms: C_15  and  C_17
REMARK   11  A    between atoms: C_15  and  C_18
REMARK                            x       y       z     vdW  Elec       q    Type
REMARK                         _______ _______ _______ _____ _____    ______ ____
ROOT
ATOM      1  C   UNL     1       3.189   6.606  18.015  0.00  0.00    +0.000 A 
ATOM      2  C   UNL     1       2.628   5.411  18.463  0.00  0.00    +0.000 A 
ATOM      3  C   UNL     1       3.399   4.302  18.854  0.00  0.00    +0.000 A 
ATOM      4  C   UNL     1       4.804   4.467  18.774  0.00  0.00    +0.000 A 
ATOM      5  C   UNL     1       5.424   5.620  18.221  0.00  0.00    +0.000 A 
ATOM      6  C   UNL     1       4.572   6.677  17.843  0.00  0.00    +0.000 A 
ENDROOT
BRANCH   1  10
ATOM      7  C   UNL     1       1.013   9.686  18.010  0.00  0.00    +0.000 C 
ATOM      8  C   UNL     1       1.755   8.544  18.654  0.00  0.00    +0.000 C 
ATOM      9  O   UNL     1       1.744   8.411  19.872  0.00  0.00    +0.000 OA
ATOM     10  N   UNL     1       2.406   7.746  17.724  0.00  0.00    +0.000 N 
ATOM     11  H   UNL     1       2.449   8.087  16.771  0.00  0.00    +0.000 HD
ENDBRANCH   1  10
BRANCH   3  12
ATOM     12  C   UNL     1       2.675   3.017  19.335  0.00  0.00    +0.000 C 
ATOM     13  C   UNL     1       2.849   2.735  20.858  0.00  0.00    +0.000 C 
ATOM     14  C   UNL     1       1.151   3.143  19.123  0.00  0.00    +0.000 C 
ATOM     15  C   UNL     1       3.207   1.762  18.615  0.00  0.00    +0.000 C 
ENDBRANCH   3  12
BRANCH   5  16
ATOM     16  C   UNL     1       6.960   5.724  18.014  0.00  0.00    +0.000 C 
ATOM     17  C   UNL     1       7.321   7.044  17.291  0.00  0.00    +0.000 C 
ATOM     18  C   UNL     1       7.761   5.743  19.344  0.00  0.00    +0.000 C 
ATOM     19  C   UNL     1       7.508   4.530  17.205  0.00  0.00    +0.000 C 
ENDBRANCH   5  16
BRANCH   4  20
ATOM     20  O   UNL     1       5.629   3.509  19.289  0.00  0.00    +0.000 OA
ATOM     21  H   UNL     1       6.182   3.937  19.957  0.00  0.00    +0.000 HD
ENDBRANCH   4  20
TORSDOF 4
ENDMDL
MODEL 4
REMARK VINA RESULT:      -7.4      0.307      4.207
REMARK  Name = 
REMARK  11 active torsions:
REMARK  status: ('A' for Active; 'I' for Inactive)
REMARK    1  A    between atoms: C_1  and  C_2
REMARK    2  A    between atoms: N_4  and  C_5
REMARK    3  A    between atoms: C_7  and  C_8
REMARK    4  A    between atoms: C_8  and  C_9
REMARK    5  A    between atoms: C_8  and  C_10
REMARK    6  A    between atoms: C_8  and  C_11
REMARK    7  A    between atoms: C_12  and  O_13
REMARK    8  A    between atoms: C_14  and  C_15
REMARK    9  A    between atoms: C_15  and  C_16
REMARK   10  A    between atoms: C_15  and  C_17
REMARK   11  A    between atoms: C_15  and  C_18
REMARK                            x       y       z     vdW  Elec       q    Type
REMARK                         _______ _______ _______ _____ _____    ______ ____
ROOT
ATOM      1  C   UNL     1       3.181   6.656  18.187  0.00  0.00    +0.000 A 
ATOM      2  C   UNL     1       4.570   6.678  18.076  0.00  0.00    +0.000 A 
ATOM      3  C   UNL     1       5.377   5.556  18.335  0.00  0.00    +0.000 A 
ATOM      4  C   UNL     1       4.692   4.376  18.715  0.00  0.00    +0.000 A 
ATOM      5  C   UNL     1       3.292   4.328  18.950  0.00  0.00    +0.000 A 
ATOM      6  C   UNL     1       2.563   5.504  18.677  0.00  0.00    +0.000 A 
ENDROOT
BRANCH   1  10
ATOM      7  C   UNL     1       0.940   9.682  17.984  0.00  0.00    +0.000 C 
ATOM      8  C   UNL     1       1.703   8.599  18.700  0.00  0.00    +0.000 C 
ATOM      9  O   UNL     1       1.691   8.542  19.924  0.00  0.00    +0.000 OA
ATOM     10  N   UNL     1       2.375   7.758  17.824  0.00  0.00    +0.000 N 
ATOM     11  H   UNL     1       2.415   8.040  16.851  0.00  0.00    +0.000 HD
ENDBRANCH   1  10
BRANCH   3  12
ATOM     12  C   UNL     1       6.916   5.689  18.186  0.00  0.00    +0.000 C 
ATOM     13  C   UNL     1       7.557   4.574  17.305  0.00  0.00    +0.000 C 
ATOM     14  C   UNL     1       7.279   7.015  17.481  0.00  0.00    +0.000 C 
ATOM     15  C   UNL     1       7.628   5.604  19.551  0.00  0.00    +0.000 C 
ENDBRANCH   3  12
BRANCH   5  16
ATOM     16  C   UNL     1       2.580   3.062  19.499  0.00  0.00    +0.000 C 
ATOM     17  C   UNL     1       3.066   2.747  20.935  0.00  0.00    +0.000 C 
ATOM     18  C   UNL     1       1.038   3.218  19.605  0.00  0.00    +0.000 C 
ATOM     19  C   UNL     1       2.822   1.834  18.595  0.00  0.00    +0.000 C 
ENDBRANCH   5  16
BRANCH   4  20
ATOM     20  O   UNL     1       5.377   3.200  18.823  0.00  0.00    +0.000 OA
ATOM     21  H   UNL     1       6.055   3.200  18.133  0.00  0.00    +0.000 HD
ENDBRANCH   4  20
TORSDOF 4
ENDMDL
MODEL 5
REMARK VINA RESULT:      -7.4      0.372      4.241
REMARK  Name = 
REMARK  11 active torsions:
REMARK  status: ('A' for Active; 'I' for Inactive)
REMARK    1  A    between atoms: C_1  and  C_2
REMARK    2  A    between atoms: N_4  and  C_5
REMARK    3  A    between atoms: C_7  and  C_8
REMARK    4  A    between atoms: C_8  and  C_9
REMARK    5  A    between atoms: C_8  and  C_10
REMARK    6  A    between atoms: C_8  and  C_11
REMARK    7  A    between atoms: C_12  and  O_13
REMARK    8  A    between atoms: C_14  and  C_15
REMARK    9  A    between atoms: C_15  and  C_16
REMARK   10  A    between atoms: C_15  and  C_17
REMARK   11  A    between atoms: C_15  and  C_18
REMARK                            x       y       z     vdW  Elec       q    Type
REMARK                         _______ _______ _______ _____ _____    ______ ____
ROOT
ATOM      1  C   UNL     1       3.179   6.747  18.184  0.00  0.00    +0.000 A 
ATOM      2  C   UNL     1       4.567   6.745  18.052  0.00  0.00    +0.000 A 
ATOM      3  C   UNL     1       5.359   5.609  18.296  0.00  0.00    +0.000 A 
ATOM      4  C   UNL     1       4.659   4.440  18.684  0.00  0.00    +0.000 A 
ATOM      5  C   UNL     1       3.261   4.416  18.940  0.00  0.00    +0.000 A 
ATOM      6  C   UNL     1       2.550   5.605  18.681  0.00  0.00    +0.000 A 
ENDROOT
BRANCH   1  10
ATOM      7  C   UNL     1       0.960   9.792  18.021  0.00  0.00    +0.000 C 
ATOM      8  C   UNL     1       1.702   8.684  18.722  0.00  0.00    +0.000 C 
ATOM      9  O   UNL     1       1.664   8.592  19.943  0.00  0.00    +0.000 OA
ATOM     10  N   UNL     1       2.388   7.864  17.836  0.00  0.00    +0.000 N 
ATOM     11  H   UNL     1       2.449   8.173  16.873  0.00  0.00    +0.000 HD
ENDBRANCH   1  10
BRANCH   3  12
ATOM     12  C   UNL     1       6.897   5.716  18.123  0.00  0.00    +0.000 C 
ATOM     13  C   UNL     1       7.363   7.062  17.490  0.00  0.00    +0.000 C 
ATOM     14  C   UNL     1       7.601   5.654  19.496  0.00  0.00    +0.000 C 
ATOM     15  C   UNL     1       7.442   4.609  17.199  0.00  0.00    +0.000 C 
ENDBRANCH   3  12
BRANCH   5  16
ATOM     16  C   UNL     1       2.536   3.161  19.498  0.00  0.00    +0.000 C 
ATOM     17  C   UNL     1       3.158   2.732  20.849  0.00  0.00    +0.000 C 
ATOM     18  C   UNL     1       1.029   3.398  19.789  0.00  0.00    +0.000 C 
ATOM     19  C   UNL     1       2.598   1.979  18.507  0.00  0.00    +0.000 C 
ENDBRANCH   5  16
BRANCH   4  20
ATOM     20  O   UNL     1       5.324   3.252  18.778  0.00  0.00    +0.000 OA
ATOM     21  H   UNL     1       5.206   2.790  17.937  0.00  0.00    +0.000 HD
ENDBRANCH   4  20
TORSDOF 4
ENDMDL
MODEL 6
REMARK VINA RESULT:      -7.4      0.429      4.243
REMARK  Name = 
REMARK  11 active torsions:
REMARK  status: ('A' for Active; 'I' for Inactive)
REMARK    1  A    between atoms: C_1  and  C_2
REMARK    2  A    between atoms: N_4  and  C_5
REMARK    3  A    between atoms: C_7  and  C_8
REMARK    4  A    between atoms: C_8  and  C_9
REMARK    5  A    between atoms: C_8  and  C_10
REMARK    6  A    between atoms: C_8  and  C_11
REMARK    7  A    between atoms: C_12  and  O_13
REMARK    8  A    between atoms: C_14  and  C_15
REMARK    9  A    between atoms: C_15  and  C_16
REMARK   10  A    between atoms: C_15  and  C_17
REMARK   11  A    between atoms: C_15  and  C_18
REMARK                            x       y       z     vdW  Elec       q    Type
REMARK                         _______ _______ _______ _____ _____    ______ ____
ROOT
ATOM      1  C   UNL     1       3.178   6.743  18.165  0.00  0.00    +0.000 A 
ATOM      2  C   UNL     1       4.565   6.734  18.018  0.00  0.00    +0.000 A 
ATOM      3  C   UNL     1       5.355   5.601  18.280  0.00  0.00    +0.000 A 
ATOM      4  C   UNL     1       4.656   4.444  18.701  0.00  0.00    +0.000 A 
ATOM      5  C   UNL     1       3.261   4.430  18.972  0.00  0.00    +0.000 A 
ATOM      6  C   UNL     1       2.550   5.615  18.694  0.00  0.00    +0.000 A 
ENDROOT
BRANCH   1  10
ATOM      7  C   UNL     1       0.949   9.778  17.954  0.00  0.00    +0.000 C 
ATOM      8  C   UNL     1       1.687   8.678  18.671  0.00  0.00    +0.000 C 
ATOM      9  O   UNL     1       1.634   8.594  19.892  0.00  0.00    +0.000 OA
ATOM     10  N   UNL     1       2.387   7.855  17.800  0.00  0.00    +0.000 N 
ATOM     11  H   UNL     1       2.459   8.158  16.835  0.00  0.00    +0.000 HD
ENDBRANCH   1  10
BRANCH   3  12
ATOM     12  C   UNL     1       6.892   5.698  18.088  0.00  0.00    +0.000 C 
ATOM     13  C   UNL     1       7.357   7.040  17.445  0.00  0.00    +0.000 C 
ATOM     14  C   UNL     1       7.612   5.638  19.453  0.00  0.00    +0.000 C 
ATOM     15  C   UNL     1       7.420   4.585  17.162  0.00  0.00    +0.000 C 
ENDBRANCH   3  12
BRANCH   5  16
ATOM     16  C   UNL     1       2.538   3.190  19.566  0.00  0.00    +0.000 C 
ATOM     17  C   UNL     1       2.499   2.039  18.533  0.00  0.00    +0.000 C 
ATOM     18  C   UNL     1       3.247   2.604  20.818  0.00  0.00    +0.000 C 
ATOM     19  C   UNL     1       1.099   3.529  20.012  0.00  0.00    +0.000 C 
ENDBRANCH   5  16
BRANCH   4  20
ATOM     20  O   UNL     1       5.319   3.255  18.816  0.00  0.00    +0.000 OA
ATOM     21  H   UNL     1       5.990   3.368  19.503  0.00  0.00    +0.000 HD
ENDBRANCH   4  20
TORSDOF 4
ENDMDL
MODEL 7
REMARK VINA RESULT:      -7.3      0.344      4.240
REMARK  Name = 
REMARK  11 active torsions:
REMARK  status: ('A' for Active; 'I' for Inactive)
REMARK    1  A    between atoms: C_1  and  C_2
REMARK    2  A    between atoms: N_4  and  C_5
REMARK    3  A    between atoms: C_7  and  C_8
REMARK    4  A    between atoms: C_8  and  C_9
REMARK    5  A    between atoms: C_8  and  C_10
REMARK    6  A    between atoms: C_8  and  C_11
REMARK    7  A    between atoms: C_12  and  O_13
REMARK    8  A    between atoms: C_14  and  C_15
REMARK    9  A    between atoms: C_15  and  C_16
REMARK   10  A    between atoms: C_15  and  C_17
REMARK   11  A    between atoms: C_15  and  C_18
REMARK                            x       y       z     vdW  Elec       q    Type
REMARK                         _______ _______ _______ _____ _____    ______ ____
ROOT
ATOM      1  C   UNL     1       3.172   6.731  18.145  0.00  0.00    +0.000 A 
ATOM      2  C   UNL     1       4.560   6.749  18.010  0.00  0.00    +0.000 A 
ATOM      3  C   UNL     1       5.368   5.623  18.250  0.00  0.00    +0.000 A 
ATOM      4  C   UNL     1       4.685   4.444  18.637  0.00  0.00    +0.000 A 
ATOM      5  C   UNL     1       3.289   4.400  18.896  0.00  0.00    +0.000 A 
ATOM      6  C   UNL     1       2.560   5.579  18.641  0.00  0.00    +0.000 A 
ENDROOT
BRANCH   1  10
ATOM      7  C   UNL     1       0.914   9.747  17.992  0.00  0.00    +0.000 C 
ATOM      8  C   UNL     1       1.675   8.650  18.689  0.00  0.00    +0.000 C 
ATOM      9  O   UNL     1       1.646   8.560  19.911  0.00  0.00    +0.000 OA
ATOM     10  N   UNL     1       2.364   7.837  17.800  0.00  0.00    +0.000 N 
ATOM     11  H   UNL     1       2.415   8.146  16.836  0.00  0.00    +0.000 HD
ENDBRANCH   1  10
BRANCH   3  12
ATOM     12  C   UNL     1       6.904   5.752  18.074  0.00  0.00    +0.000 C 
ATOM     13  C   UNL     1       7.697   5.645  19.411  0.00  0.00    +0.000 C 
ATOM     14  C   UNL     1       7.446   4.604  17.194  0.00  0.00    +0.000 C 
ATOM     15  C   UNL     1       7.293   7.114  17.465  0.00  0.00    +0.000 C 
ENDBRANCH   3  12
BRANCH   5  16
ATOM     16  C   UNL     1       2.583   3.134  19.454  0.00  0.00    +0.000 C 
ATOM     17  C   UNL     1       1.079   3.412  19.690  0.00  0.00    +0.000 C 
ATOM     18  C   UNL     1       2.636   1.921  18.485  0.00  0.00    +0.000 C 
ATOM     19  C   UNL     1       3.229   2.654  20.771  0.00  0.00    +0.000 C 
ENDBRANCH   5  16
BRANCH   4  20
ATOM     20  O   UNL     1       5.368   3.265  18.728  0.00  0.00    +0.000 OA
ATOM     21  H   UNL     1       6.310   3.477  18.694  0.00  0.00    +0.000 HD
ENDBRANCH   4  20
TORSDOF 4
ENDMDL
MODEL 8
REMARK VINA RESULT:      -7.2      0.661      4.288
REMARK  Name = 
REMARK  11 active torsions:
REMARK  status: ('A' for Active; 'I' for Inactive)
REMARK    1  A    between atoms: C_1  and  C_2
REMARK    2  A    between atoms: N_4  and  C_5
REMARK    3  A    between atoms: C_7  and  C_8
REMARK    4  A    between atoms: C_8  and  C_9
REMARK    5  A    between atoms: C_8  and  C_10
REMARK    6  A    between atoms: C_8  and  C_11
REMARK    7  A    between atoms: C_12  and  O_13
REMARK    8  A    between atoms: C_14  and  C_15
REMARK    9  A    between atoms: C_15  and  C_16
REMARK   10  A    between atoms: C_15  and  C_17
REMARK   11  A    between atoms: C_15  and  C_18
REMARK                            x       y       z     vdW  Elec       q    Type
REMARK                         _______ _______ _______ _____ _____    ______ ____
ROOT
ATOM      1  C   UNL     1       3.084   6.994  17.992  0.00  0.00    +0.000 A 
ATOM      2  C   UNL     1       4.457   7.014  17.755  0.00  0.00    +0.000 A 
ATOM      3  C   UNL     1       5.264   5.864  17.832  0.00  0.00    +0.000 A 
ATOM      4  C   UNL     1       4.595   4.661  18.163  0.00  0.00    +0.000 A 
ATOM      5  C   UNL     1       3.221   4.604  18.521  0.00  0.00    +0.000 A 
ATOM      6  C   UNL     1       2.493   5.808  18.428  0.00  0.00    +0.000 A 
ENDROOT
BRANCH   1  10
ATOM      7  C   UNL     1       0.813   9.992  18.274  0.00  0.00    +0.000 C 
ATOM      8  C   UNL     1       1.583   8.813  18.807  0.00  0.00    +0.000 C 
ATOM      9  O   UNL     1       1.564   8.554  20.005  0.00  0.00    +0.000 OA
ATOM     10  N   UNL     1       2.269   8.134  17.810  0.00  0.00    +0.000 N 
ATOM     11  H   UNL     1       2.312   8.573  16.897  0.00  0.00    +0.000 HD
ENDBRANCH   1  10
BRANCH   3  12
ATOM     12  C   UNL     1       6.785   5.996  17.553  0.00  0.00    +0.000 C 
ATOM     13  C   UNL     1       7.258   7.467  17.351  0.00  0.00    +0.000 C 
ATOM     14  C   UNL     1       7.602   5.474  18.755  0.00  0.00    +0.000 C 
ATOM     15  C   UNL     1       7.193   5.246  16.270  0.00  0.00    +0.000 C 
ENDBRANCH   3  12
BRANCH   5  16
ATOM     16  C   UNL     1       2.540   3.299  19.015  0.00  0.00    +0.000 C 
ATOM     17  C   UNL     1       1.107   3.594  19.522  0.00  0.00    +0.000 C 
ATOM     18  C   UNL     1       2.376   2.229  17.901  0.00  0.00    +0.000 C 
ATOM     19  C   UNL     1       3.352   2.622  20.139  0.00  0.00    +0.000 C 
ENDBRANCH   5  16
BRANCH   4  20
ATOM     20  O   UNL     1       5.265   3.472  18.097  0.00  0.00    +0.000 OA
ATOM     21  H   UNL     1       5.992   3.589  17.470  0.00  0.00    +0.000 HD
ENDBRANCH   4  20
TORSDOF 4
ENDMDL
MODEL 9
REMARK VINA RESULT:      -6.9      1.005      1.398
REMARK  Name = 
REMARK  11 active torsions:
REMARK  status: ('A' for Active; 'I' for Inactive)
REMARK    1  A    between atoms: C_1  and  C_2
REMARK    2  A    between atoms: N_4  and  C_5
REMARK    3  A    between atoms: C_7  and  C_8
REMARK    4  A    between atoms: C_8  and  C_9
REMARK    5  A    between atoms: C_8  and  C_10
REMARK    6  A    between atoms: C_8  and  C_11
REMARK    7  A    between atoms: C_12  and  O_13
REMARK    8  A    between atoms: C_14  and  C_15
REMARK    9  A    between atoms: C_15  and  C_16
REMARK   10  A    between atoms: C_15  and  C_17
REMARK   11  A    between atoms: C_15  and  C_18
REMARK                            x       y       z     vdW  Elec       q    Type
REMARK                         _______ _______ _______ _____ _____    ______ ____
ROOT
ATOM      1  C   UNL     1       2.878   6.664  19.073  0.00  0.00    +0.000 A 
ATOM      2  C   UNL     1       2.356   5.417  19.414  0.00  0.00    +0.000 A 
ATOM      3  C   UNL     1       3.125   4.240  19.417  0.00  0.00    +0.000 A 
ATOM      4  C   UNL     1       4.486   4.389  19.054  0.00  0.00    +0.000 A 
ATOM      5  C   UNL     1       5.041   5.613  18.592  0.00  0.00    +0.000 A 
ATOM      6  C   UNL     1       4.193   6.739  18.611  0.00  0.00    +0.000 A 
ENDROOT
BRANCH   1  10
ATOM      7  C   UNL     1       1.086   9.950  18.611  0.00  0.00    +0.000 C 
ATOM      8  C   UNL     1       1.961   8.803  18.176  0.00  0.00    +0.000 C 
ATOM      9  O   UNL     1       2.430   8.780  17.045  0.00  0.00    +0.000 OA
ATOM     10  N   UNL     1       2.123   7.854  19.175  0.00  0.00    +0.000 N 
ATOM     11  H   UNL     1       1.536   7.942  19.997  0.00  0.00    +0.000 HD
ENDBRANCH   1  10
BRANCH   3  12
ATOM     12  C   UNL     1       2.445   2.901  19.809  0.00  0.00    +0.000 C 
ATOM     13  C   UNL     1       0.887   2.959  19.778  0.00  0.00    +0.000 C 
ATOM     14  C   UNL     1       2.823   1.788  18.809  0.00  0.00    +0.000 C 
ATOM     15  C   UNL     1       2.818   2.474  21.242  0.00  0.00    +0.000 C 
ENDBRANCH   3  12
BRANCH   5  16
ATOM     16  C   UNL     1       6.498   5.724  18.067  0.00  0.00    +0.000 C 
ATOM     17  C   UNL     1       6.790   4.606  17.037  0.00  0.00    +0.000 C 
ATOM     18  C   UNL     1       6.787   7.059  17.328  0.00  0.00    +0.000 C 
ATOM     19  C   UNL     1       7.525   5.643  19.217  0.00  0.00    +0.000 C 
ENDBRANCH   5  16
BRANCH   4  20
ATOM     20  O   UNL     1       5.343   3.335  19.189  0.00  0.00    +0.000 OA
ATOM     21  H   UNL     1       6.102   3.508  18.616  0.00  0.00    +0.000 HD
ENDBRANCH   4  20
TORSDOF 4
ENDMDL
