MODEL 1
REMARK VINA RESULT:      -5.4      0.000      0.000
REMARK  Name = 
REMARK  12 active torsions:
REMARK  status: ('A' for Active; 'I' for Inactive)
REMARK    1  A    between atoms: C_2  and  O_3
REMARK    2  A    between atoms: C_2  and  C_4
REMARK    3  A    between atoms: C_4  and  C_5
REMARK    4  A    between atoms: C_5  and  C_6
REMARK    5  A    between atoms: C_6  and  C_7
REMARK    6  A    between atoms: C_7  and  C_8
REMARK    7  A    between atoms: C_8  and  C_9
REMARK    8  A    between atoms: C_10  and  C_11
REMARK    9  A    between atoms: C_11  and  C_12
REMARK   10  A    between atoms: C_12  and  C_13
REMARK   11  A    between atoms: C_13  and  C_14
REMARK   12  A    between atoms: C_14  and  O_15
REMARK                            x       y       z     vdW  Elec       q    Type
REMARK                         _______ _______ _______ _____ _____    ______ ____
ROOT
ATOM      1  C   UNL     1       2.907   3.345  17.521  0.00  0.00    +0.000 C 
ENDROOT
BRANCH   1   2
ATOM      2  C   UNL     1       4.113   3.899  16.890  0.00  0.00    +0.000 C 
ATOM      3  C   UNL     1       5.103   4.352  16.364  0.00  0.00    +0.000 C 
BRANCH   3   4
ATOM      4  C   UNL     1       6.312   4.897  15.730  0.00  0.00    +0.000 C 
BRANCH   4   5
ATOM      5  C   UNL     1       7.080   5.805  16.691  0.00  0.00    +0.000 C 
BRANCH   5   6
ATOM      6  C   UNL     1       7.518   5.063  17.954  0.00  0.00    +0.000 C 
BRANCH   6   7
ATOM      7  C   UNL     1       7.673   6.020  19.130  0.00  0.00    +0.000 C 
BRANCH   7   8
ATOM      8  O   UNL     1       8.076   5.303  20.289  0.00  0.00    +0.000 OA
ATOM      9  H   UNL     1       8.150   4.365  20.045  0.00  0.00    +0.000 HD
ENDBRANCH   7   8
ENDBRANCH   6   7
ENDBRANCH   5   6
ENDBRANCH   4   5
ENDBRANCH   3   4
ENDBRANCH   1   2
BRANCH   1  10
ATOM     10  C   UNL     1       1.859   4.430  17.759  0.00  0.00    +0.000 C 
BRANCH  10  11
ATOM     11  C   UNL     1       2.440   5.642  18.496  0.00  0.00    +0.000 C 
BRANCH  11  12
ATOM     12  C   UNL     1       2.623   5.322  19.986  0.00  0.00    +0.000 C 
BRANCH  12  13
ATOM     13  C   UNL     1       1.389   4.638  20.597  0.00  0.00    +0.000 C 
BRANCH  13  15
ATOM     14  O   UNL     1       1.343   2.223  20.542  0.00  0.00    +0.000 OA
ATOM     15  C   UNL     1       1.663   3.244  21.120  0.00  0.00    +0.000 C 
BRANCH  15  16
ATOM     16  O   UNL     1       2.308   3.198  22.308  0.00  0.00    +0.000 OA
ATOM     17  H   UNL     1       1.968   2.580  22.983  0.00  0.00    +0.000 HD
ENDBRANCH  15  16
ENDBRANCH  13  15
ENDBRANCH  12  13
ENDBRANCH  11  12
ENDBRANCH  10  11
ENDBRANCH   1  10
TORSDOF 12
ENDMDL
MODEL 2
REMARK VINA RESULT:      -5.4      2.000      2.586
REMARK  Name = 
REMARK  12 active torsions:
REMARK  status: ('A' for Active; 'I' for Inactive)
REMARK    1  A    between atoms: C_2  and  O_3
REMARK    2  A    between atoms: C_2  and  C_4
REMARK    3  A    between atoms: C_4  and  C_5
REMARK    4  A    between atoms: C_5  and  C_6
REMARK    5  A    between atoms: C_6  and  C_7
REMARK    6  A    between atoms: C_7  and  C_8
REMARK    7  A    between atoms: C_8  and  C_9
REMARK    8  A    between atoms: C_10  and  C_11
REMARK    9  A    between atoms: C_11  and  C_12
REMARK   10  A    between atoms: C_12  and  C_13
REMARK   11  A    between atoms: C_13  and  C_14
REMARK   12  A    between atoms: C_14  and  O_15
REMARK                            x       y       z     vdW  Elec       q    Type
REMARK                         _______ _______ _______ _____ _____    ______ ____
ROOT
ATOM      1  C   UNL     1       2.413   6.175  19.107  0.00  0.00    +0.000 C 
ENDROOT
BRANCH   1   2
ATOM      2  C   UNL     1       3.448   6.292  18.071  0.00  0.00    +0.000 C 
ATOM      3  C   UNL     1       4.306   6.390  17.224  0.00  0.00    +0.000 C 
BRANCH   3   4
ATOM      4  C   UNL     1       5.344   6.518  16.192  0.00  0.00    +0.000 C 
BRANCH   4   5
ATOM      5  C   UNL     1       6.665   5.901  16.656  0.00  0.00    +0.000 C 
BRANCH   5   6
ATOM      6  C   UNL     1       7.397   6.799  17.653  0.00  0.00    +0.000 C 
BRANCH   6   7
ATOM      7  C   UNL     1       7.849   6.011  18.877  0.00  0.00    +0.000 C 
BRANCH   7   8
ATOM      8  O   UNL     1       7.550   4.633  18.705  0.00  0.00    +0.000 OA
ATOM      9  H   UNL     1       7.016   4.349  19.466  0.00  0.00    +0.000 HD
ENDBRANCH   7   8
ENDBRANCH   6   7
ENDBRANCH   5   6
ENDBRANCH   4   5
ENDBRANCH   3   4
ENDBRANCH   1   2
BRANCH   1  10
ATOM     10  C   UNL     1       1.835   4.762  19.154  0.00  0.00    +0.000 C 
BRANCH  10  11
ATOM     11  C   UNL     1       1.445   4.345  20.578  0.00  0.00    +0.000 C 
BRANCH  11  12
ATOM     12  C   UNL     1       2.376   3.235  21.083  0.00  0.00    +0.000 C 
BRANCH  12  13
ATOM     13  C   UNL     1       3.010   2.432  19.935  0.00  0.00    +0.000 C 
BRANCH  13  15
ATOM     14  O   UNL     1       5.150   1.678  20.768  0.00  0.00    +0.000 OA
ATOM     15  C   UNL     1       4.523   2.377  19.996  0.00  0.00    +0.000 C 
BRANCH  15  16
ATOM     16  O   UNL     1       5.157   3.178  19.109  0.00  0.00    +0.000 OA
ATOM     17  H   UNL     1       5.813   3.811  19.460  0.00  0.00    +0.000 HD
ENDBRANCH  15  16
ENDBRANCH  13  15
ENDBRANCH  12  13
ENDBRANCH  11  12
ENDBRANCH  10  11
ENDBRANCH   1  10
TORSDOF 12
ENDMDL
MODEL 3
REMARK VINA RESULT:      -5.3      1.493      5.629
REMARK  Name = 
REMARK  12 active torsions:
REMARK  status: ('A' for Active; 'I' for Inactive)
REMARK    1  A    between atoms: C_2  and  O_3
REMARK    2  A    between atoms: C_2  and  C_4
REMARK    3  A    between atoms: C_4  and  C_5
REMARK    4  A    between atoms: C_5  and  C_6
REMARK    5  A    between atoms: C_6  and  C_7
REMARK    6  A    between atoms: C_7  and  C_8
REMARK    7  A    between atoms: C_8  and  C_9
REMARK    8  A    between atoms: C_10  and  C_11
REMARK    9  A    between atoms: C_11  and  C_12
REMARK   10  A    between atoms: C_12  and  C_13
REMARK   11  A    between atoms: C_13  and  C_14
REMARK   12  A    between atoms: C_14  and  O_15
REMARK                            x       y       z     vdW  Elec       q    Type
REMARK                         _______ _______ _______ _____ _____    ______ ____
ROOT
ATOM      1  C   UNL     1       3.905   6.440  17.714  0.00  0.00    +0.000 C 
ENDROOT
BRANCH   1   2
ATOM      2  C   UNL     1       3.208   5.151  17.812  0.00  0.00    +0.000 C 
ATOM      3  C   UNL     1       2.640   4.086  17.888  0.00  0.00    +0.000 C 
BRANCH   3   4
ATOM      4  C   UNL     1       1.943   2.795  17.975  0.00  0.00    +0.000 C 
BRANCH   4   5
ATOM      5  C   UNL     1       1.740   2.372  19.431  0.00  0.00    +0.000 C 
BRANCH   5   6
ATOM      6  C   UNL     1       1.129   3.492  20.273  0.00  0.00    +0.000 C 
BRANCH   6   7
ATOM      7  C   UNL     1       2.082   3.935  21.377  0.00  0.00    +0.000 C 
BRANCH   7   8
ATOM      8  O   UNL     1       2.397   5.312  21.223  0.00  0.00    +0.000 OA
ATOM      9  H   UNL     1       2.785   5.429  20.339  0.00  0.00    +0.000 HD
ENDBRANCH   7   8
ENDBRANCH   6   7
ENDBRANCH   5   6
ENDBRANCH   4   5
ENDBRANCH   3   4
ENDBRANCH   1   2
BRANCH   1  10
ATOM     10  C   UNL     1       4.765   6.510  16.454  0.00  0.00    +0.000 C 
BRANCH  10  11
ATOM     11  C   UNL     1       5.461   5.177  16.156  0.00  0.00    +0.000 C 
BRANCH  11  12
ATOM     12  C   UNL     1       6.983   5.326  16.296  0.00  0.00    +0.000 C 
BRANCH  12  13
ATOM     13  C   UNL     1       7.520   4.680  17.584  0.00  0.00    +0.000 C 
BRANCH  13  15
ATOM     14  O   UNL     1       6.937   5.302  19.846  0.00  0.00    +0.000 OA
ATOM     15  C   UNL     1       7.466   5.595  18.790  0.00  0.00    +0.000 C 
BRANCH  15  16
ATOM     16  O   UNL     1       8.062   6.798  18.619  0.00  0.00    +0.000 OA
ATOM     17  H   UNL     1       8.346   7.036  17.716  0.00  0.00    +0.000 HD
ENDBRANCH  15  16
ENDBRANCH  13  15
ENDBRANCH  12  13
ENDBRANCH  11  12
ENDBRANCH  10  11
ENDBRANCH   1  10
TORSDOF 12
ENDMDL
MODEL 4
REMARK VINA RESULT:      -5.3      2.309      3.072
REMARK  Name = 
REMARK  12 active torsions:
REMARK  status: ('A' for Active; 'I' for Inactive)
REMARK    1  A    between atoms: C_2  and  O_3
REMARK    2  A    between atoms: C_2  and  C_4
REMARK    3  A    between atoms: C_4  and  C_5
REMARK    4  A    between atoms: C_5  and  C_6
REMARK    5  A    between atoms: C_6  and  C_7
REMARK    6  A    between atoms: C_7  and  C_8
REMARK    7  A    between atoms: C_8  and  C_9
REMARK    8  A    between atoms: C_10  and  C_11
REMARK    9  A    between atoms: C_11  and  C_12
REMARK   10  A    between atoms: C_12  and  C_13
REMARK   11  A    between atoms: C_13  and  C_14
REMARK   12  A    between atoms: C_14  and  O_15
REMARK                            x       y       z     vdW  Elec       q    Type
REMARK                         _______ _______ _______ _____ _____    ______ ____
ROOT
ATOM      1  C   UNL     1       1.066   3.832  17.711  0.00  0.00    +0.000 C 
ENDROOT
BRANCH   1   2
ATOM      2  C   UNL     1       2.355   4.537  17.725  0.00  0.00    +0.000 C 
ATOM      3  C   UNL     1       3.413   5.124  17.733  0.00  0.00    +0.000 C 
BRANCH   3   4
ATOM      4  C   UNL     1       4.701   5.831  17.735  0.00  0.00    +0.000 C 
BRANCH   4   5
ATOM      5  C   UNL     1       5.189   6.097  16.310  0.00  0.00    +0.000 C 
BRANCH   5   6
ATOM      6  C   UNL     1       5.527   4.803  15.569  0.00  0.00    +0.000 C 
BRANCH   6   7
ATOM      7  C   UNL     1       6.998   4.763  15.172  0.00  0.00    +0.000 C 
BRANCH   7   8
ATOM      8  O   UNL     1       7.800   4.474  16.308  0.00  0.00    +0.000 OA
ATOM      9  H   UNL     1       8.163   5.314  16.635  0.00  0.00    +0.000 HD
ENDBRANCH   7   8
ENDBRANCH   6   7
ENDBRANCH   5   6
ENDBRANCH   4   5
ENDBRANCH   3   4
ENDBRANCH   1   2
BRANCH   1  10
ATOM     10  C   UNL     1       1.049   2.692  18.728  0.00  0.00    +0.000 C 
BRANCH  10  11
ATOM     11  C   UNL     1       0.930   3.205  20.168  0.00  0.00    +0.000 C 
BRANCH  11  12
ATOM     12  C   UNL     1       1.986   2.538  21.061  0.00  0.00    +0.000 C 
BRANCH  12  13
ATOM     13  C   UNL     1       3.386   3.142  20.867  0.00  0.00    +0.000 C 
BRANCH  13  15
ATOM     14  O   UNL     1       5.233   1.602  21.110  0.00  0.00    +0.000 OA
ATOM     15  C   UNL     1       4.418   2.143  20.387  0.00  0.00    +0.000 C 
BRANCH  15  16
ATOM     16  O   UNL     1       4.379   1.877  19.061  0.00  0.00    +0.000 OA
ATOM     17  H   UNL     1       4.138   0.971  18.789  0.00  0.00    +0.000 HD
ENDBRANCH  15  16
ENDBRANCH  13  15
ENDBRANCH  12  13
ENDBRANCH  11  12
ENDBRANCH  10  11
ENDBRANCH   1  10
TORSDOF 12
ENDMDL
MODEL 5
REMARK VINA RESULT:      -5.2      1.997      5.672
REMARK  Name = 
REMARK  12 active torsions:
REMARK  status: ('A' for Active; 'I' for Inactive)
REMARK    1  A    between atoms: C_2  and  O_3
REMARK    2  A    between atoms: C_2  and  C_4
REMARK    3  A    between atoms: C_4  and  C_5
REMARK    4  A    between atoms: C_5  and  C_6
REMARK    5  A    between atoms: C_6  and  C_7
REMARK    6  A    between atoms: C_7  and  C_8
REMARK    7  A    between atoms: C_8  and  C_9
REMARK    8  A    between atoms: C_10  and  C_11
REMARK    9  A    between atoms: C_11  and  C_12
REMARK   10  A    between atoms: C_12  and  C_13
REMARK   11  A    between atoms: C_13  and  C_14
REMARK   12  A    between atoms: C_14  and  O_15
REMARK                            x       y       z     vdW  Elec       q    Type
REMARK                         _______ _______ _______ _____ _____    ______ ____
ROOT
ATOM      1  C   UNL     1       3.319   7.494  17.713  0.00  0.00    +0.000 C 
ENDROOT
BRANCH   1   2
ATOM      2  C   UNL     1       2.732   6.737  18.827  0.00  0.00    +0.000 C 
ATOM      3  C   UNL     1       2.254   6.109  19.744  0.00  0.00    +0.000 C 
BRANCH   3   4
ATOM      4  C   UNL     1       1.666   5.342  20.852  0.00  0.00    +0.000 C 
BRANCH   4   5
ATOM      5  C   UNL     1       2.062   3.867  20.774  0.00  0.00    +0.000 C 
BRANCH   5   6
ATOM      6  C   UNL     1       1.683   3.242  19.432  0.00  0.00    +0.000 C 
BRANCH   6   7
ATOM      7  C   UNL     1       2.724   2.222  18.985  0.00  0.00    +0.000 C 
BRANCH   7   8
ATOM      8  O   UNL     1       2.398   1.730  17.693  0.00  0.00    +0.000 OA
ATOM      9  H   UNL     1       3.123   1.974  17.093  0.00  0.00    +0.000 HD
ENDBRANCH   7   8
ENDBRANCH   6   7
ENDBRANCH   5   6
ENDBRANCH   4   5
ENDBRANCH   3   4
ENDBRANCH   1   2
BRANCH   1  10
ATOM     10  C   UNL     1       4.579   6.811  17.184  0.00  0.00    +0.000 C 
BRANCH  10  11
ATOM     11  C   UNL     1       4.440   5.284  17.160  0.00  0.00    +0.000 C 
BRANCH  11  12
ATOM     12  C   UNL     1       5.695   4.625  17.750  0.00  0.00    +0.000 C 
BRANCH  12  13
ATOM     13  C   UNL     1       5.994   5.106  19.179  0.00  0.00    +0.000 C 
BRANCH  13  15
ATOM     14  O   UNL     1       7.907   6.421  18.505  0.00  0.00    +0.000 OA
ATOM     15  C   UNL     1       7.371   5.716  19.339  0.00  0.00    +0.000 C 
BRANCH  15  16
ATOM     16  O   UNL     1       7.993   5.420  20.504  0.00  0.00    +0.000 OA
ATOM     17  H   UNL     1       8.311   4.505  20.626  0.00  0.00    +0.000 HD
ENDBRANCH  15  16
ENDBRANCH  13  15
ENDBRANCH  12  13
ENDBRANCH  11  12
ENDBRANCH  10  11
ENDBRANCH   1  10
TORSDOF 12
ENDMDL
MODEL 6
REMARK VINA RESULT:      -5.2      1.491      5.527
REMARK  Name = 
REMARK  12 active torsions:
REMARK  status: ('A' for Active; 'I' for Inactive)
REMARK    1  A    between atoms: C_2  and  O_3
REMARK    2  A    between atoms: C_2  and  C_4
REMARK    3  A    between atoms: C_4  and  C_5
REMARK    4  A    between atoms: C_5  and  C_6
REMARK    5  A    between atoms: C_6  and  C_7
REMARK    6  A    between atoms: C_7  and  C_8
REMARK    7  A    between atoms: C_8  and  C_9
REMARK    8  A    between atoms: C_10  and  C_11
REMARK    9  A    between atoms: C_11  and  C_12
REMARK   10  A    between atoms: C_12  and  C_13
REMARK   11  A    between atoms: C_13  and  C_14
REMARK   12  A    between atoms: C_14  and  O_15
REMARK                            x       y       z     vdW  Elec       q    Type
REMARK                         _______ _______ _______ _____ _____    ______ ____
ROOT
ATOM      1  C   UNL     1       4.076   6.753  17.512  0.00  0.00    +0.000 C 
ENDROOT
BRANCH   1   2
ATOM      2  C   UNL     1       3.201   5.594  17.737  0.00  0.00    +0.000 C 
ATOM      3  C   UNL     1       2.475   4.645  17.925  0.00  0.00    +0.000 C 
BRANCH   3   4
ATOM      4  C   UNL     1       1.597   3.490  18.161  0.00  0.00    +0.000 C 
BRANCH   4   5
ATOM      5  C   UNL     1       2.293   2.433  19.020  0.00  0.00    +0.000 C 
BRANCH   5   6
ATOM      6  C   UNL     1       2.962   3.045  20.251  0.00  0.00    +0.000 C 
BRANCH   6   7
ATOM      7  C   UNL     1       2.294   2.567  21.535  0.00  0.00    +0.000 C 
BRANCH   7   8
ATOM      8  O   UNL     1       0.894   2.799  21.470  0.00  0.00    +0.000 OA
ATOM      9  H   UNL     1       0.716   3.654  21.897  0.00  0.00    +0.000 HD
ENDBRANCH   7   8
ENDBRANCH   6   7
ENDBRANCH   5   6
ENDBRANCH   4   5
ENDBRANCH   3   4
ENDBRANCH   1   2
BRANCH   1  10
ATOM     10  C   UNL     1       4.868   6.603  16.215  0.00  0.00    +0.000 C 
BRANCH  10  11
ATOM     11  C   UNL     1       6.318   6.175  16.470  0.00  0.00    +0.000 C 
BRANCH  11  12
ATOM     12  C   UNL     1       6.922   6.995  17.618  0.00  0.00    +0.000 C 
BRANCH  12  13
ATOM     13  C   UNL     1       7.936   6.188  18.446  0.00  0.00    +0.000 C 
BRANCH  13  15
ATOM     14  O   UNL     1       6.213   5.025  19.679  0.00  0.00    +0.000 OA
ATOM     15  C   UNL     1       7.329   5.508  19.655  0.00  0.00    +0.000 C 
BRANCH  15  16
ATOM     16  O   UNL     1       8.128   5.469  20.747  0.00  0.00    +0.000 OA
ATOM     17  H   UNL     1       7.821   5.934  21.548  0.00  0.00    +0.000 HD
ENDBRANCH  15  16
ENDBRANCH  13  15
ENDBRANCH  12  13
ENDBRANCH  11  12
ENDBRANCH  10  11
ENDBRANCH   1  10
TORSDOF 12
ENDMDL
MODEL 7
REMARK VINA RESULT:      -5.2      1.612      2.082
REMARK  Name = 
REMARK  12 active torsions:
REMARK  status: ('A' for Active; 'I' for Inactive)
REMARK    1  A    between atoms: C_2  and  O_3
REMARK    2  A    between atoms: C_2  and  C_4
REMARK    3  A    between atoms: C_4  and  C_5
REMARK    4  A    between atoms: C_5  and  C_6
REMARK    5  A    between atoms: C_6  and  C_7
REMARK    6  A    between atoms: C_7  and  C_8
REMARK    7  A    between atoms: C_8  and  C_9
REMARK    8  A    between atoms: C_10  and  C_11
REMARK    9  A    between atoms: C_11  and  C_12
REMARK   10  A    between atoms: C_12  and  C_13
REMARK   11  A    between atoms: C_13  and  C_14
REMARK   12  A    between atoms: C_14  and  O_15
REMARK                            x       y       z     vdW  Elec       q    Type
REMARK                         _______ _______ _______ _____ _____    ______ ____
ROOT
ATOM      1  C   UNL     1       2.684   6.861  18.259  0.00  0.00    +0.000 C 
ENDROOT
BRANCH   1   2
ATOM      2  C   UNL     1       3.725   5.995  17.690  0.00  0.00    +0.000 C 
ATOM      3  C   UNL     1       4.577   5.276  17.221  0.00  0.00    +0.000 C 
BRANCH   3   4
ATOM      4  C   UNL     1       5.616   4.400  16.659  0.00  0.00    +0.000 C 
BRANCH   4   5
ATOM      5  C   UNL     1       6.999   5.046  16.763  0.00  0.00    +0.000 C 
BRANCH   5   6
ATOM      6  C   UNL     1       7.690   4.712  18.085  0.00  0.00    +0.000 C 
BRANCH   6   7
ATOM      7  C   UNL     1       7.443   5.798  19.125  0.00  0.00    +0.000 C 
BRANCH   7   8
ATOM      8  O   UNL     1       8.029   5.425  20.365  0.00  0.00    +0.000 OA
ATOM      9  H   UNL     1       7.746   6.073  21.032  0.00  0.00    +0.000 HD
ENDBRANCH   7   8
ENDBRANCH   6   7
ENDBRANCH   5   6
ENDBRANCH   4   5
ENDBRANCH   3   4
ENDBRANCH   1   2
BRANCH   1  10
ATOM     10  C   UNL     1       2.373   6.476  19.704  0.00  0.00    +0.000 C 
BRANCH  10  11
ATOM     11  C   UNL     1       2.547   4.972  19.950  0.00  0.00    +0.000 C 
BRANCH  11  12
ATOM     12  C   UNL     1       1.266   4.378  20.551  0.00  0.00    +0.000 C 
BRANCH  12  13
ATOM     13  C   UNL     1       1.287   2.840  20.574  0.00  0.00    +0.000 C 
BRANCH  13  15
ATOM     14  O   UNL     1       0.230   2.287  18.473  0.00  0.00    +0.000 OA
ATOM     15  C   UNL     1       1.202   2.210  19.200  0.00  0.00    +0.000 C 
BRANCH  15  16
ATOM     16  O   UNL     1       2.309   1.535  18.814  0.00  0.00    +0.000 OA
ATOM     17  H   UNL     1       3.056   1.497  19.441  0.00  0.00    +0.000 HD
ENDBRANCH  15  16
ENDBRANCH  13  15
ENDBRANCH  12  13
ENDBRANCH  11  12
ENDBRANCH  10  11
ENDBRANCH   1  10
TORSDOF 12
ENDMDL
MODEL 8
REMARK VINA RESULT:      -5.2      2.429      3.557
REMARK  Name = 
REMARK  12 active torsions:
REMARK  status: ('A' for Active; 'I' for Inactive)
REMARK    1  A    between atoms: C_2  and  O_3
REMARK    2  A    between atoms: C_2  and  C_4
REMARK    3  A    between atoms: C_4  and  C_5
REMARK    4  A    between atoms: C_5  and  C_6
REMARK    5  A    between atoms: C_6  and  C_7
REMARK    6  A    between atoms: C_7  and  C_8
REMARK    7  A    between atoms: C_8  and  C_9
REMARK    8  A    between atoms: C_10  and  C_11
REMARK    9  A    between atoms: C_11  and  C_12
REMARK   10  A    between atoms: C_12  and  C_13
REMARK   11  A    between atoms: C_13  and  C_14
REMARK   12  A    between atoms: C_14  and  O_15
REMARK                            x       y       z     vdW  Elec       q    Type
REMARK                         _______ _______ _______ _____ _____    ______ ____
ROOT
ATOM      1  C   UNL     1       2.286   5.895  19.640  0.00  0.00    +0.000 C 
ENDROOT
BRANCH   1   2
ATOM      2  C   UNL     1       3.721   5.674  19.412  0.00  0.00    +0.000 C 
ATOM      3  C   UNL     1       4.903   5.497  19.230  0.00  0.00    +0.000 C 
BRANCH   3   4
ATOM      4  C   UNL     1       6.340   5.287  19.000  0.00  0.00    +0.000 C 
BRANCH   4   5
ATOM      5  C   UNL     1       6.598   4.695  17.614  0.00  0.00    +0.000 C 
BRANCH   5   6
ATOM      6  C   UNL     1       5.623   5.238  16.569  0.00  0.00    +0.000 C 
BRANCH   6   7
ATOM      7  C   UNL     1       5.502   4.288  15.382  0.00  0.00    +0.000 C 
BRANCH   7   8
ATOM      8  O   UNL     1       5.957   2.993  15.748  0.00  0.00    +0.000 OA
ATOM      9  H   UNL     1       5.986   2.452  14.941  0.00  0.00    +0.000 HD
ENDBRANCH   7   8
ENDBRANCH   6   7
ENDBRANCH   5   6
ENDBRANCH   4   5
ENDBRANCH   3   4
ENDBRANCH   1   2
BRANCH   1  10
ATOM     10  C   UNL     1       1.755   4.981  20.743  0.00  0.00    +0.000 C 
BRANCH  10  11
ATOM     11  C   UNL     1       0.943   3.809  20.180  0.00  0.00    +0.000 C 
BRANCH  11  12
ATOM     12  C   UNL     1       1.788   2.528  20.176  0.00  0.00    +0.000 C 
BRANCH  12  13
ATOM     13  C   UNL     1       1.815   1.847  18.798  0.00  0.00    +0.000 C 
BRANCH  13  15
ATOM     14  O   UNL     1       2.342   3.291  16.933  0.00  0.00    +0.000 OA
ATOM     15  C   UNL     1       2.727   2.530  17.800  0.00  0.00    +0.000 C 
BRANCH  15  16
ATOM     16  O   UNL     1       4.041   2.235  17.936  0.00  0.00    +0.000 OA
ATOM     17  H   UNL     1       4.684   2.949  17.761  0.00  0.00    +0.000 HD
ENDBRANCH  15  16
ENDBRANCH  13  15
ENDBRANCH  12  13
ENDBRANCH  11  12
ENDBRANCH  10  11
ENDBRANCH   1  10
TORSDOF 12
ENDMDL
MODEL 9
REMARK VINA RESULT:      -5.2      2.696      6.299
REMARK  Name = 
REMARK  12 active torsions:
REMARK  status: ('A' for Active; 'I' for Inactive)
REMARK    1  A    between atoms: C_2  and  O_3
REMARK    2  A    between atoms: C_2  and  C_4
REMARK    3  A    between atoms: C_4  and  C_5
REMARK    4  A    between atoms: C_5  and  C_6
REMARK    5  A    between atoms: C_6  and  C_7
REMARK    6  A    between atoms: C_7  and  C_8
REMARK    7  A    between atoms: C_8  and  C_9
REMARK    8  A    between atoms: C_10  and  C_11
REMARK    9  A    between atoms: C_11  and  C_12
REMARK   10  A    between atoms: C_12  and  C_13
REMARK   11  A    between atoms: C_13  and  C_14
REMARK   12  A    between atoms: C_14  and  O_15
REMARK                            x       y       z     vdW  Elec       q    Type
REMARK                         _______ _______ _______ _____ _____    ______ ____
ROOT
ATOM      1  C   UNL     1       3.183   6.839  18.172  0.00  0.00    +0.000 C 
ENDROOT
BRANCH   1   2
ATOM      2  C   UNL     1       2.731   5.442  18.142  0.00  0.00    +0.000 C 
ATOM      3  C   UNL     1       2.356   4.292  18.109  0.00  0.00    +0.000 C 
BRANCH   3   4
ATOM      4  C   UNL     1       1.893   2.898  18.076  0.00  0.00    +0.000 C 
BRANCH   4   5
ATOM      5  C   UNL     1       0.766   2.665  19.083  0.00  0.00    +0.000 C 
BRANCH   5   6
ATOM      6  C   UNL     1       0.966   3.474  20.365  0.00  0.00    +0.000 C 
BRANCH   6   7
ATOM      7  C   UNL     1       1.399   2.579  21.519  0.00  0.00    +0.000 C 
BRANCH   7   8
ATOM      8  O   UNL     1       2.426   3.214  22.268  0.00  0.00    +0.000 OA
ATOM      9  H   UNL     1       3.011   3.670  21.638  0.00  0.00    +0.000 HD
ENDBRANCH   7   8
ENDBRANCH   6   7
ENDBRANCH   5   6
ENDBRANCH   4   5
ENDBRANCH   3   4
ENDBRANCH   1   2
BRANCH   1  10
ATOM     10  C   UNL     1       4.242   7.102  17.103  0.00  0.00    +0.000 C 
BRANCH  10  11
ATOM     11  C   UNL     1       5.611   6.536  17.497  0.00  0.00    +0.000 C 
BRANCH  11  12
ATOM     12  C   UNL     1       5.846   5.181  16.815  0.00  0.00    +0.000 C 
BRANCH  12  13
ATOM     13  C   UNL     1       5.462   5.200  15.326  0.00  0.00    +0.000 C 
BRANCH  13  15
ATOM     14  O   UNL     1       6.453   3.815  13.610  0.00  0.00    +0.000 OA
ATOM     15  C   UNL     1       6.569   4.727  14.407  0.00  0.00    +0.000 C 
BRANCH  15  16
ATOM     16  O   UNL     1       7.736   5.402  14.528  0.00  0.00    +0.000 OA
ATOM     17  H   UNL     1       7.823   6.023  15.277  0.00  0.00    +0.000 HD
ENDBRANCH  15  16
ENDBRANCH  13  15
ENDBRANCH  12  13
ENDBRANCH  11  12
ENDBRANCH  10  11
ENDBRANCH   1  10
TORSDOF 12
ENDMDL
