MODEL 1
REMARK VINA RESULT:      -7.3      0.000      0.000
REMARK  Name = 
REMARK  10 active torsions:
REMARK  status: ('A' for Active; 'I' for Inactive)
REMARK    1  A    between atoms: C_1  and  O_2
REMARK    2  A    between atoms: O_2  and  C_3
REMARK    3  A    between atoms: C_6  and  O_7
REMARK    4  A    between atoms: O_7  and  C_8
REMARK    5  A    between atoms: C_8  and  C_9
REMARK    6  A    between atoms: C_9  and  C_10
REMARK    7  A    between atoms: C_10  and  C_11
REMARK    8  A    between atoms: C_11  and  O_13
REMARK    9  A    between atoms: O_13  and  C_14
REMARK   10  A    between atoms: C_14  and  C_15
REMARK                            x       y       z     vdW  Elec       q    Type
REMARK                         _______ _______ _______ _____ _____    ______ ____
ROOT
ATOM      1  C   UNL     1       1.649   2.474  18.899  0.00  0.00    +0.000 C 
ATOM      2  O   UNL     1       1.510   2.136  20.066  0.00  0.00    +0.000 OA
ENDROOT
BRANCH   1   3
ATOM      3  C   UNL     1       0.905   3.603  18.225  0.00  0.00    +0.000 C 
BRANCH   3   4
ATOM      4  C   UNL     1       1.802   4.808  17.946  0.00  0.00    +0.000 C 
BRANCH   4   5
ATOM      5  C   UNL     1       2.335   5.457  19.226  0.00  0.00    +0.000 C 
BRANCH   5   6
ATOM      6  O   UNL     1       2.906   6.726  18.897  0.00  0.00    +0.000 OA
BRANCH   6  10
ATOM      7  C   UNL     1       0.535  10.101  19.582  0.00  0.00    +0.000 A 
ATOM      8  C   UNL     1       1.096   9.833  18.334  0.00  0.00    +0.000 A 
ATOM      9  C   UNL     1       1.871   8.687  18.134  0.00  0.00    +0.000 A 
ATOM     10  C   UNL     1       2.130   7.815  19.195  0.00  0.00    +0.000 A 
ATOM     11  C   UNL     1       1.558   8.072  20.444  0.00  0.00    +0.000 A 
ATOM     12  C   UNL     1       0.770   9.221  20.637  0.00  0.00    +0.000 A 
BRANCH   7  14
ATOM     13  C   UNL     1      -0.627  11.590  20.991  0.00  0.00    +0.000 C 
ATOM     14  O   UNL     1      -0.194  11.249  19.675  0.00  0.00    +0.000 OA
ENDBRANCH   7  14
ENDBRANCH   6  10
ENDBRANCH   5   6
ENDBRANCH   4   5
ENDBRANCH   3   4
ENDBRANCH   1   3
BRANCH   1  15
ATOM     15  O   UNL     1       2.483   1.857  18.021  0.00  0.00    +0.000 OA
BRANCH  15  16
ATOM     16  C   UNL     1       3.772   1.540  18.549  0.00  0.00    +0.000 C 
BRANCH  16  17
ATOM     17  C   UNL     1       4.676   2.765  18.701  0.00  0.00    +0.000 C 
ATOM     18  O   UNL     1       5.023   3.163  19.813  0.00  0.00    +0.000 OA
ATOM     19  N   UNL     1       5.014   3.368  17.498  0.00  0.00    +0.000 N 
ATOM     20  C   UNL     1       5.734   4.564  17.491  0.00  0.00    +0.000 A 
ATOM     21  C   UNL     1       6.992   4.629  18.084  0.00  0.00    +0.000 A 
ATOM     22  C   UNL     1       7.674   5.846  18.090  0.00  0.00    +0.000 A 
ATOM     23  C   UNL     1       7.064   6.958  17.534  0.00  0.00    +0.000 A 
ATOM     24 CL   UNL     1       7.828   8.493  17.591  0.00  0.00    +0.000 Cl
ATOM     25  C   UNL     1       5.822   6.795  16.938  0.00  0.00    +0.000 A 
ATOM     26  N   UNL     1       5.161   5.611  16.864  0.00  0.00    +0.000 NA
ATOM     27  H   UNL     1       4.301   3.307  16.770  0.00  0.00    +0.000 HD
ENDBRANCH  16  17
ENDBRANCH  15  16
ENDBRANCH   1  15
TORSDOF 9
ENDMDL
MODEL 2
REMARK VINA RESULT:      -7.2      5.122      7.621
REMARK  Name = 
REMARK  10 active torsions:
REMARK  status: ('A' for Active; 'I' for Inactive)
REMARK    1  A    between atoms: C_1  and  O_2
REMARK    2  A    between atoms: O_2  and  C_3
REMARK    3  A    between atoms: C_6  and  O_7
REMARK    4  A    between atoms: O_7  and  C_8
REMARK    5  A    between atoms: C_8  and  C_9
REMARK    6  A    between atoms: C_9  and  C_10
REMARK    7  A    between atoms: C_10  and  C_11
REMARK    8  A    between atoms: C_11  and  O_13
REMARK    9  A    between atoms: O_13  and  C_14
REMARK   10  A    between atoms: C_14  and  C_15
REMARK                            x       y       z     vdW  Elec       q    Type
REMARK                         _______ _______ _______ _____ _____    ______ ____
ROOT
ATOM      1  C   UNL     1       7.500   5.511  16.986  0.00  0.00    +0.000 C 
ATOM      2  O   UNL     1       7.917   4.362  17.036  0.00  0.00    +0.000 OA
ENDROOT
BRANCH   1   3
ATOM      3  C   UNL     1       7.556   6.507  18.119  0.00  0.00    +0.000 C 
BRANCH   3   4
ATOM      4  C   UNL     1       7.576   7.953  17.626  0.00  0.00    +0.000 C 
BRANCH   4   5
ATOM      5  C   UNL     1       8.690   8.782  18.271  0.00  0.00    +0.000 C 
BRANCH   5   6
ATOM      6  O   UNL     1       8.264  10.144  18.352  0.00  0.00    +0.000 OA
BRANCH   6  10
ATOM      7  C   UNL     1      11.152  13.044  19.203  0.00  0.00    +0.000 A 
ATOM      8  C   UNL     1      10.262  13.179  18.139  0.00  0.00    +0.000 A 
ATOM      9  C   UNL     1       9.297  12.197  17.891  0.00  0.00    +0.000 A 
ATOM     10  C   UNL     1       9.240  11.047  18.682  0.00  0.00    +0.000 A 
ATOM     11  C   UNL     1      10.121  10.915  19.758  0.00  0.00    +0.000 A 
ATOM     12  C   UNL     1      11.083  11.909  20.010  0.00  0.00    +0.000 A 
BRANCH   7  14
ATOM     13  C   UNL     1      11.507  15.363  19.431  0.00  0.00    +0.000 C 
ATOM     14  O   UNL     1      12.061  14.050  19.353  0.00  0.00    +0.000 OA
ENDBRANCH   7  14
ENDBRANCH   6  10
ENDBRANCH   5   6
ENDBRANCH   4   5
ENDBRANCH   3   4
ENDBRANCH   1   3
BRANCH   1  15
ATOM     15  O   UNL     1       6.896   6.054  15.897  0.00  0.00    +0.000 OA
BRANCH  15  16
ATOM     16  C   UNL     1       5.703   5.385  15.483  0.00  0.00    +0.000 C 
BRANCH  16  17
ATOM     17  C   UNL     1       4.698   5.194  16.619  0.00  0.00    +0.000 C 
ATOM     18  O   UNL     1       4.167   6.160  17.167  0.00  0.00    +0.000 OA
ATOM     19  N   UNL     1       4.489   3.867  16.968  0.00  0.00    +0.000 N 
ATOM     20  C   UNL     1       3.689   3.549  18.068  0.00  0.00    +0.000 A 
ATOM     21  C   UNL     1       2.358   3.956  18.108  0.00  0.00    +0.000 A 
ATOM     22  C   UNL     1       1.593   3.652  19.233  0.00  0.00    +0.000 A 
ATOM     23  C   UNL     1       2.190   2.982  20.288  0.00  0.00    +0.000 A 
ATOM     24 CL   UNL     1       1.312   2.657  21.726  0.00  0.00    +0.000 Cl
ATOM     25  C   UNL     1       3.513   2.588  20.149  0.00  0.00    +0.000 A 
ATOM     26  N   UNL     1       4.264   2.817  19.043  0.00  0.00    +0.000 NA
ATOM     27  H   UNL     1       5.301   3.260  16.854  0.00  0.00    +0.000 HD
ENDBRANCH  16  17
ENDBRANCH  15  16
ENDBRANCH   1  15
TORSDOF 9
ENDMDL
MODEL 3
REMARK VINA RESULT:      -6.8      1.363      1.614
REMARK  Name = 
REMARK  10 active torsions:
REMARK  status: ('A' for Active; 'I' for Inactive)
REMARK    1  A    between atoms: C_1  and  O_2
REMARK    2  A    between atoms: O_2  and  C_3
REMARK    3  A    between atoms: C_6  and  O_7
REMARK    4  A    between atoms: O_7  and  C_8
REMARK    5  A    between atoms: C_8  and  C_9
REMARK    6  A    between atoms: C_9  and  C_10
REMARK    7  A    between atoms: C_10  and  C_11
REMARK    8  A    between atoms: C_11  and  O_13
REMARK    9  A    between atoms: O_13  and  C_14
REMARK   10  A    between atoms: C_14  and  C_15
REMARK                            x       y       z     vdW  Elec       q    Type
REMARK                         _______ _______ _______ _____ _____    ______ ____
ROOT
ATOM      1  C   UNL     1       1.220   2.201  18.777  0.00  0.00    +0.000 C 
ATOM      2  O   UNL     1       0.142   1.622  18.758  0.00  0.00    +0.000 OA
ENDROOT
BRANCH   1   3
ATOM      3  C   UNL     1       1.745   3.023  19.930  0.00  0.00    +0.000 C 
BRANCH   3   4
ATOM      4  C   UNL     1       1.293   4.481  19.861  0.00  0.00    +0.000 C 
BRANCH   4   5
ATOM      5  C   UNL     1       2.075   5.387  20.815  0.00  0.00    +0.000 C 
BRANCH   5   6
ATOM      6  O   UNL     1       2.804   6.347  20.046  0.00  0.00    +0.000 OA
BRANCH   6  10
ATOM      7  C   UNL     1       0.785   9.837  18.942  0.00  0.00    +0.000 A 
ATOM      8  C   UNL     1       1.485   9.065  18.016  0.00  0.00    +0.000 A 
ATOM      9  C   UNL     1       2.137   7.894  18.416  0.00  0.00    +0.000 A 
ATOM     10  C   UNL     1       2.130   7.505  19.758  0.00  0.00    +0.000 A 
ATOM     11  C   UNL     1       1.417   8.267  20.686  0.00  0.00    +0.000 A 
ATOM     12  C   UNL     1       0.755   9.439  20.278  0.00  0.00    +0.000 A 
BRANCH   7  14
ATOM     13  C   UNL     1      -0.544  11.727  19.408  0.00  0.00    +0.000 C 
ATOM     14  O   UNL     1       0.194  10.965  18.453  0.00  0.00    +0.000 OA
ENDBRANCH   7  14
ENDBRANCH   6  10
ENDBRANCH   5   6
ENDBRANCH   4   5
ENDBRANCH   3   4
ENDBRANCH   1   3
BRANCH   1  15
ATOM     15  O   UNL     1       2.098   2.208  17.740  0.00  0.00    +0.000 OA
BRANCH  15  16
ATOM     16  C   UNL     1       3.472   2.142  18.124  0.00  0.00    +0.000 C 
BRANCH  16  17
ATOM     17  C   UNL     1       4.281   3.359  17.672  0.00  0.00    +0.000 C 
ATOM     18  O   UNL     1       4.492   3.573  16.478  0.00  0.00    +0.000 OA
ATOM     19  N   UNL     1       4.755   4.140  18.716  0.00  0.00    +0.000 N 
ATOM     20  C   UNL     1       5.609   5.214  18.457  0.00  0.00    +0.000 A 
ATOM     21  C   UNL     1       5.195   6.255  17.630  0.00  0.00    +0.000 A 
ATOM     22  C   UNL     1       6.081   7.299  17.364  0.00  0.00    +0.000 A 
ATOM     23  C   UNL     1       7.355   7.251  17.906  0.00  0.00    +0.000 A 
ATOM     24 CL   UNL     1       8.505   8.469  17.541  0.00  0.00    +0.000 Cl
ATOM     25  C   UNL     1       7.671   6.191  18.743  0.00  0.00    +0.000 A 
ATOM     26  N   UNL     1       6.811   5.193  19.068  0.00  0.00    +0.000 NA
ATOM     27  H   UNL     1       4.979   3.626  19.569  0.00  0.00    +0.000 HD
ENDBRANCH  16  17
ENDBRANCH  15  16
ENDBRANCH   1  15
TORSDOF 9
ENDMDL
MODEL 4
REMARK VINA RESULT:      -6.8      1.802      2.120
REMARK  Name = 
REMARK  10 active torsions:
REMARK  status: ('A' for Active; 'I' for Inactive)
REMARK    1  A    between atoms: C_1  and  O_2
REMARK    2  A    between atoms: O_2  and  C_3
REMARK    3  A    between atoms: C_6  and  O_7
REMARK    4  A    between atoms: O_7  and  C_8
REMARK    5  A    between atoms: C_8  and  C_9
REMARK    6  A    between atoms: C_9  and  C_10
REMARK    7  A    between atoms: C_10  and  C_11
REMARK    8  A    between atoms: C_11  and  O_13
REMARK    9  A    between atoms: O_13  and  C_14
REMARK   10  A    between atoms: C_14  and  C_15
REMARK                            x       y       z     vdW  Elec       q    Type
REMARK                         _______ _______ _______ _____ _____    ______ ____
ROOT
ATOM      1  C   UNL     1       1.619   2.776  21.125  0.00  0.00    +0.000 C 
ATOM      2  O   UNL     1       1.547   2.411  22.290  0.00  0.00    +0.000 OA
ENDROOT
BRANCH   1   3
ATOM      3  C   UNL     1       0.990   4.030  20.566  0.00  0.00    +0.000 C 
BRANCH   3   4
ATOM      4  C   UNL     1       1.947   5.221  20.582  0.00  0.00    +0.000 C 
BRANCH   4   5
ATOM      5  C   UNL     1       2.160   5.826  19.192  0.00  0.00    +0.000 C 
BRANCH   5   6
ATOM      6  O   UNL     1       2.834   7.079  19.332  0.00  0.00    +0.000 OA
BRANCH   6  10
ATOM      7  C   UNL     1       0.456  10.482  18.838  0.00  0.00    +0.000 A 
ATOM      8  C   UNL     1       1.319  10.033  17.840  0.00  0.00    +0.000 A 
ATOM      9  C   UNL     1       2.089   8.882  18.031  0.00  0.00    +0.000 A 
ATOM     10  C   UNL     1       2.035   8.189  19.243  0.00  0.00    +0.000 A 
ATOM     11  C   UNL     1       1.160   8.627  20.241  0.00  0.00    +0.000 A 
ATOM     12  C   UNL     1       0.381   9.780  20.040  0.00  0.00    +0.000 A 
BRANCH   7  14
ATOM     13  C   UNL     1      -0.494  12.471  19.675  0.00  0.00    +0.000 C 
ATOM     14  O   UNL     1      -0.242  11.620  18.557  0.00  0.00    +0.000 OA
ENDBRANCH   7  14
ENDBRANCH   6  10
ENDBRANCH   5   6
ENDBRANCH   4   5
ENDBRANCH   3   4
ENDBRANCH   1   3
BRANCH   1  15
ATOM     15  O   UNL     1       2.260   2.083  20.147  0.00  0.00    +0.000 OA
BRANCH  15  16
ATOM     16  C   UNL     1       3.666   2.325  20.072  0.00  0.00    +0.000 C 
BRANCH  16  17
ATOM     17  C   UNL     1       4.128   2.745  18.676  0.00  0.00    +0.000 C 
ATOM     18  O   UNL     1       3.769   2.124  17.674  0.00  0.00    +0.000 OA
ATOM     19  N   UNL     1       4.988   3.834  18.671  0.00  0.00    +0.000 N 
ATOM     20  C   UNL     1       5.584   4.252  17.479  0.00  0.00    +0.000 A 
ATOM     21  C   UNL     1       4.796   4.641  16.400  0.00  0.00    +0.000 A 
ATOM     22  C   UNL     1       5.418   5.024  15.212  0.00  0.00    +0.000 A 
ATOM     23  C   UNL     1       6.800   4.973  15.134  0.00  0.00    +0.000 A 
ATOM     24 CL   UNL     1       7.607   5.355  13.669  0.00  0.00    +0.000 Cl
ATOM     25  C   UNL     1       7.507   4.601  16.268  0.00  0.00    +0.000 A 
ATOM     26  N   UNL     1       6.932   4.283  17.455  0.00  0.00    +0.000 NA
ATOM     27  H   UNL     1       5.595   3.906  19.488  0.00  0.00    +0.000 HD
ENDBRANCH  16  17
ENDBRANCH  15  16
ENDBRANCH   1  15
TORSDOF 9
ENDMDL
MODEL 5
REMARK VINA RESULT:      -6.7      1.443      1.980
REMARK  Name = 
REMARK  10 active torsions:
REMARK  status: ('A' for Active; 'I' for Inactive)
REMARK    1  A    between atoms: C_1  and  O_2
REMARK    2  A    between atoms: O_2  and  C_3
REMARK    3  A    between atoms: C_6  and  O_7
REMARK    4  A    between atoms: O_7  and  C_8
REMARK    5  A    between atoms: C_8  and  C_9
REMARK    6  A    between atoms: C_9  and  C_10
REMARK    7  A    between atoms: C_10  and  C_11
REMARK    8  A    between atoms: C_11  and  O_13
REMARK    9  A    between atoms: O_13  and  C_14
REMARK   10  A    between atoms: C_14  and  C_15
REMARK                            x       y       z     vdW  Elec       q    Type
REMARK                         _______ _______ _______ _____ _____    ______ ____
ROOT
ATOM      1  C   UNL     1       1.404   3.367  18.638  0.00  0.00    +0.000 C 
ATOM      2  O   UNL     1       1.460   4.111  17.668  0.00  0.00    +0.000 OA
ENDROOT
BRANCH   1   3
ATOM      3  C   UNL     1       0.817   3.732  19.981  0.00  0.00    +0.000 C 
BRANCH   3   4
ATOM      4  C   UNL     1       1.828   4.427  20.891  0.00  0.00    +0.000 C 
BRANCH   4   5
ATOM      5  C   UNL     1       1.689   5.952  20.871  0.00  0.00    +0.000 C 
BRANCH   5   6
ATOM      6  O   UNL     1       2.274   6.453  19.667  0.00  0.00    +0.000 OA
BRANCH   6  10
ATOM      7  C   UNL     1       1.293  10.456  18.964  0.00  0.00    +0.000 A 
ATOM      8  C   UNL     1       0.990   9.822  20.168  0.00  0.00    +0.000 A 
ATOM      9  C   UNL     1       1.346   8.486  20.377  0.00  0.00    +0.000 A 
ATOM     10  C   UNL     1       1.973   7.756  19.365  0.00  0.00    +0.000 A 
ATOM     11  C   UNL     1       2.292   8.391  18.162  0.00  0.00    +0.000 A 
ATOM     12  C   UNL     1       1.940   9.738  17.960  0.00  0.00    +0.000 A 
BRANCH   7  14
ATOM     13  C   UNL     1       1.311  12.611  19.920  0.00  0.00    +0.000 C 
ATOM     14  O   UNL     1       0.893  11.756  18.857  0.00  0.00    +0.000 OA
ENDBRANCH   7  14
ENDBRANCH   6  10
ENDBRANCH   5   6
ENDBRANCH   4   5
ENDBRANCH   3   4
ENDBRANCH   1   3
BRANCH   1  15
ATOM     15  O   UNL     1       1.894   2.099  18.655  0.00  0.00    +0.000 OA
BRANCH  15  16
ATOM     16  C   UNL     1       3.300   2.008  18.889  0.00  0.00    +0.000 C 
BRANCH  16  17
ATOM     17  C   UNL     1       4.091   3.145  18.241  0.00  0.00    +0.000 C 
ATOM     18  O   UNL     1       4.300   3.163  17.028  0.00  0.00    +0.000 OA
ATOM     19  N   UNL     1       4.554   4.093  19.142  0.00  0.00    +0.000 N 
ATOM     20  C   UNL     1       5.392   5.122  18.708  0.00  0.00    +0.000 A 
ATOM     21  C   UNL     1       4.965   6.007  17.723  0.00  0.00    +0.000 A 
ATOM     22  C   UNL     1       5.836   7.005  17.287  0.00  0.00    +0.000 A 
ATOM     23  C   UNL     1       7.110   7.065  17.826  0.00  0.00    +0.000 A 
ATOM     24 CL   UNL     1       8.243   8.223  17.263  0.00  0.00    +0.000 Cl
ATOM     25  C   UNL     1       7.441   6.161  18.826  0.00  0.00    +0.000 A 
ATOM     26  N   UNL     1       6.595   5.219  19.312  0.00  0.00    +0.000 NA
ATOM     27  H   UNL     1       4.785   3.730  20.068  0.00  0.00    +0.000 HD
ENDBRANCH  16  17
ENDBRANCH  15  16
ENDBRANCH   1  15
TORSDOF 9
ENDMDL
MODEL 6
REMARK VINA RESULT:      -6.6      2.946      4.618
REMARK  Name = 
REMARK  10 active torsions:
REMARK  status: ('A' for Active; 'I' for Inactive)
REMARK    1  A    between atoms: C_1  and  O_2
REMARK    2  A    between atoms: O_2  and  C_3
REMARK    3  A    between atoms: C_6  and  O_7
REMARK    4  A    between atoms: O_7  and  C_8
REMARK    5  A    between atoms: C_8  and  C_9
REMARK    6  A    between atoms: C_9  and  C_10
REMARK    7  A    between atoms: C_10  and  C_11
REMARK    8  A    between atoms: C_11  and  O_13
REMARK    9  A    between atoms: O_13  and  C_14
REMARK   10  A    between atoms: C_14  and  C_15
REMARK                            x       y       z     vdW  Elec       q    Type
REMARK                         _______ _______ _______ _____ _____    ______ ____
ROOT
ATOM      1  C   UNL     1       6.478   6.223  16.319  0.00  0.00    +0.000 C 
ATOM      2  O   UNL     1       6.216   5.749  15.222  0.00  0.00    +0.000 OA
ENDROOT
BRANCH   1   3
ATOM      3  C   UNL     1       5.620   7.218  17.064  0.00  0.00    +0.000 C 
BRANCH   3   4
ATOM      4  C   UNL     1       4.136   6.858  17.020  0.00  0.00    +0.000 C 
BRANCH   4   5
ATOM      5  C   UNL     1       3.238   7.994  17.519  0.00  0.00    +0.000 C 
BRANCH   5   6
ATOM      6  O   UNL     1       2.291   7.459  18.447  0.00  0.00    +0.000 OA
BRANCH   6  10
ATOM      7  C   UNL     1       0.684  10.082  21.279  0.00  0.00    +0.000 A 
ATOM      8  C   UNL     1       1.123   8.804  21.621  0.00  0.00    +0.000 A 
ATOM      9  C   UNL     1       1.670   7.957  20.652  0.00  0.00    +0.000 A 
ATOM     10  C   UNL     1       1.746   8.365  19.319  0.00  0.00    +0.000 A 
ATOM     11  C   UNL     1       1.321   9.650  18.973  0.00  0.00    +0.000 A 
ATOM     12  C   UNL     1       0.780  10.502  19.953  0.00  0.00    +0.000 A 
BRANCH   7  14
ATOM     13  C   UNL     1      -0.772  10.137  23.131  0.00  0.00    +0.000 C 
ATOM     14  O   UNL     1       0.157  10.824  22.294  0.00  0.00    +0.000 OA
ENDBRANCH   7  14
ENDBRANCH   6  10
ENDBRANCH   5   6
ENDBRANCH   4   5
ENDBRANCH   3   4
ENDBRANCH   1   3
BRANCH   1  15
ATOM     15  O   UNL     1       7.606   5.938  17.021  0.00  0.00    +0.000 OA
BRANCH  15  16
ATOM     16  C   UNL     1       7.577   4.689  17.714  0.00  0.00    +0.000 C 
BRANCH  16  17
ATOM     17  C   UNL     1       6.441   4.595  18.733  0.00  0.00    +0.000 C 
ATOM     18  O   UNL     1       6.525   5.148  19.831  0.00  0.00    +0.000 OA
ATOM     19  N   UNL     1       5.368   3.822  18.312  0.00  0.00    +0.000 N 
ATOM     20  C   UNL     1       4.314   3.550  19.186  0.00  0.00    +0.000 A 
ATOM     21  C   UNL     1       3.576   4.592  19.741  0.00  0.00    +0.000 A 
ATOM     22  C   UNL     1       2.549   4.291  20.635  0.00  0.00    +0.000 A 
ATOM     23  C   UNL     1       2.317   2.966  20.967  0.00  0.00    +0.000 A 
ATOM     24 CL   UNL     1       1.120   2.552  22.123  0.00  0.00    +0.000 Cl
ATOM     25  C   UNL     1       3.081   1.991  20.342  0.00  0.00    +0.000 A 
ATOM     26  N   UNL     1       4.046   2.250  19.424  0.00  0.00    +0.000 NA
ATOM     27  H   UNL     1       5.614   3.043  17.700  0.00  0.00    +0.000 HD
ENDBRANCH  16  17
ENDBRANCH  15  16
ENDBRANCH   1  15
TORSDOF 9
ENDMDL
MODEL 7
REMARK VINA RESULT:      -6.6      3.310      7.174
REMARK  Name = 
REMARK  10 active torsions:
REMARK  status: ('A' for Active; 'I' for Inactive)
REMARK    1  A    between atoms: C_1  and  O_2
REMARK    2  A    between atoms: O_2  and  C_3
REMARK    3  A    between atoms: C_6  and  O_7
REMARK    4  A    between atoms: O_7  and  C_8
REMARK    5  A    between atoms: C_8  and  C_9
REMARK    6  A    between atoms: C_9  and  C_10
REMARK    7  A    between atoms: C_10  and  C_11
REMARK    8  A    between atoms: C_11  and  O_13
REMARK    9  A    between atoms: O_13  and  C_14
REMARK   10  A    between atoms: C_14  and  C_15
REMARK                            x       y       z     vdW  Elec       q    Type
REMARK                         _______ _______ _______ _____ _____    ______ ____
ROOT
ATOM      1  C   UNL     1       1.676   4.623  18.496  0.00  0.00    +0.000 C 
ATOM      2  O   UNL     1       0.987   3.888  17.801  0.00  0.00    +0.000 OA
ENDROOT
BRANCH   1   3
ATOM      3  C   UNL     1       1.970   4.410  19.962  0.00  0.00    +0.000 C 
BRANCH   3   4
ATOM      4  C   UNL     1       2.642   3.065  20.233  0.00  0.00    +0.000 C 
BRANCH   4   5
ATOM      5  C   UNL     1       3.916   2.865  19.406  0.00  0.00    +0.000 C 
BRANCH   5   6
ATOM      6  O   UNL     1       4.799   3.963  19.645  0.00  0.00    +0.000 OA
BRANCH   6  10
ATOM      7  C   UNL     1       6.952   5.056  16.232  0.00  0.00    +0.000 A 
ATOM      8  C   UNL     1       5.856   4.196  16.170  0.00  0.00    +0.000 A 
ATOM      9  C   UNL     1       5.148   3.863  17.329  0.00  0.00    +0.000 A 
ATOM     10  C   UNL     1       5.555   4.354  18.572  0.00  0.00    +0.000 A 
ATOM     11  C   UNL     1       6.644   5.228  18.636  0.00  0.00    +0.000 A 
ATOM     12  C   UNL     1       7.347   5.568  17.467  0.00  0.00    +0.000 A 
BRANCH   7  14
ATOM     13  C   UNL     1       6.901   4.836  13.886  0.00  0.00    +0.000 C 
ATOM     14  O   UNL     1       7.580   5.308  15.048  0.00  0.00    +0.000 OA
ENDBRANCH   7  14
ENDBRANCH   6  10
ENDBRANCH   5   6
ENDBRANCH   4   5
ENDBRANCH   3   4
ENDBRANCH   1   3
BRANCH   1  15
ATOM     15  O   UNL     1       2.261   5.765  18.049  0.00  0.00    +0.000 OA
BRANCH  15  16
ATOM     16  C   UNL     1       2.647   6.678  19.077  0.00  0.00    +0.000 C 
BRANCH  16  17
ATOM     17  C   UNL     1       2.114   8.093  18.855  0.00  0.00    +0.000 C 
ATOM     18  O   UNL     1       2.446   8.749  17.867  0.00  0.00    +0.000 OA
ATOM     19  N   UNL     1       1.278   8.545  19.865  0.00  0.00    +0.000 N 
ATOM     20  C   UNL     1       0.813   9.862  19.855  0.00  0.00    +0.000 A 
ATOM     21  C   UNL     1       0.065  10.334  18.780  0.00  0.00    +0.000 A 
ATOM     22  C   UNL     1      -0.358  11.662  18.783  0.00  0.00    +0.000 A 
ATOM     23  C   UNL     1       0.007  12.480  19.840  0.00  0.00    +0.000 A 
ATOM     24 CL   UNL     1      -0.420  14.140  19.848  0.00  0.00    +0.000 Cl
ATOM     25  C   UNL     1       0.728  11.917  20.884  0.00  0.00    +0.000 A 
ATOM     26  N   UNL     1       1.101  10.614  20.937  0.00  0.00    +0.000 NA
ATOM     27  H   UNL     1       1.496   8.188  20.796  0.00  0.00    +0.000 HD
ENDBRANCH  16  17
ENDBRANCH  15  16
ENDBRANCH   1  15
TORSDOF 9
ENDMDL
MODEL 8
REMARK VINA RESULT:      -6.6      2.377      2.575
REMARK  Name = 
REMARK  10 active torsions:
REMARK  status: ('A' for Active; 'I' for Inactive)
REMARK    1  A    between atoms: C_1  and  O_2
REMARK    2  A    between atoms: O_2  and  C_3
REMARK    3  A    between atoms: C_6  and  O_7
REMARK    4  A    between atoms: O_7  and  C_8
REMARK    5  A    between atoms: C_8  and  C_9
REMARK    6  A    between atoms: C_9  and  C_10
REMARK    7  A    between atoms: C_10  and  C_11
REMARK    8  A    between atoms: C_11  and  O_13
REMARK    9  A    between atoms: O_13  and  C_14
REMARK   10  A    between atoms: C_14  and  C_15
REMARK                            x       y       z     vdW  Elec       q    Type
REMARK                         _______ _______ _______ _____ _____    ______ ____
ROOT
ATOM      1  C   UNL     1       1.462   3.385  18.065  0.00  0.00    +0.000 C 
ATOM      2  O   UNL     1       1.005   4.240  17.319  0.00  0.00    +0.000 OA
ENDROOT
BRANCH   1   3
ATOM      3  C   UNL     1       1.054   3.178  19.504  0.00  0.00    +0.000 C 
BRANCH   3   4
ATOM      4  C   UNL     1       0.907   4.494  20.265  0.00  0.00    +0.000 C 
BRANCH   4   5
ATOM      5  C   UNL     1       2.213   4.942  20.927  0.00  0.00    +0.000 C 
BRANCH   5   6
ATOM      6  O   UNL     1       2.920   5.794  20.023  0.00  0.00    +0.000 OA
BRANCH   6  10
ATOM      7  C   UNL     1       1.132   9.429  18.991  0.00  0.00    +0.000 A 
ATOM      8  C   UNL     1       1.803   8.644  18.054  0.00  0.00    +0.000 A 
ATOM      9  C   UNL     1       2.376   7.425  18.429  0.00  0.00    +0.000 A 
ATOM     10  C   UNL     1       2.322   6.998  19.758  0.00  0.00    +0.000 A 
ATOM     11  C   UNL     1       1.638   7.775  20.697  0.00  0.00    +0.000 A 
ATOM     12  C   UNL     1       1.055   8.995  20.313  0.00  0.00    +0.000 A 
BRANCH   7  14
ATOM     13  C   UNL     1       0.668  11.695  19.446  0.00  0.00    +0.000 C 
ATOM     14  O   UNL     1       0.619  10.604  18.527  0.00  0.00    +0.000 OA
ENDBRANCH   7  14
ENDBRANCH   6  10
ENDBRANCH   5   6
ENDBRANCH   4   5
ENDBRANCH   3   4
ENDBRANCH   1   3
BRANCH   1  15
ATOM     15  O   UNL     1       2.436   2.506  17.709  0.00  0.00    +0.000 OA
BRANCH  15  16
ATOM     16  C   UNL     1       3.735   2.822  18.210  0.00  0.00    +0.000 C 
BRANCH  16  17
ATOM     17  C   UNL     1       4.542   3.714  17.265  0.00  0.00    +0.000 C 
ATOM     18  O   UNL     1       4.415   4.939  17.286  0.00  0.00    +0.000 OA
ATOM     19  N   UNL     1       5.368   3.014  16.399  0.00  0.00    +0.000 N 
ATOM     20  C   UNL     1       6.072   3.691  15.400  0.00  0.00    +0.000 A 
ATOM     21  C   UNL     1       6.975   4.695  15.737  0.00  0.00    +0.000 A 
ATOM     22  C   UNL     1       7.640   5.375  14.717  0.00  0.00    +0.000 A 
ATOM     23  C   UNL     1       7.356   5.052  13.400  0.00  0.00    +0.000 A 
ATOM     24 CL   UNL     1       8.087   5.916  12.112  0.00  0.00    +0.000 Cl
ATOM     25  C   UNL     1       6.465   4.017  13.158  0.00  0.00    +0.000 A 
ATOM     26  N   UNL     1       5.849   3.297  14.130  0.00  0.00    +0.000 NA
ATOM     27  H   UNL     1       5.016   2.099  16.113  0.00  0.00    +0.000 HD
ENDBRANCH  16  17
ENDBRANCH  15  16
ENDBRANCH   1  15
TORSDOF 9
ENDMDL
MODEL 9
REMARK VINA RESULT:      -6.6      1.445      1.808
REMARK  Name = 
REMARK  10 active torsions:
REMARK  status: ('A' for Active; 'I' for Inactive)
REMARK    1  A    between atoms: C_1  and  O_2
REMARK    2  A    between atoms: O_2  and  C_3
REMARK    3  A    between atoms: C_6  and  O_7
REMARK    4  A    between atoms: O_7  and  C_8
REMARK    5  A    between atoms: C_8  and  C_9
REMARK    6  A    between atoms: C_9  and  C_10
REMARK    7  A    between atoms: C_10  and  C_11
REMARK    8  A    between atoms: C_11  and  O_13
REMARK    9  A    between atoms: O_13  and  C_14
REMARK   10  A    between atoms: C_14  and  C_15
REMARK                            x       y       z     vdW  Elec       q    Type
REMARK                         _______ _______ _______ _____ _____    ______ ____
ROOT
ATOM      1  C   UNL     1       1.705   2.981  20.655  0.00  0.00    +0.000 C 
ATOM      2  O   UNL     1       2.031   2.420  21.692  0.00  0.00    +0.000 OA
ENDROOT
BRANCH   1   3
ATOM      3  C   UNL     1       1.110   4.366  20.564  0.00  0.00    +0.000 C 
BRANCH   3   4
ATOM      4  C   UNL     1       2.177   5.459  20.527  0.00  0.00    +0.000 C 
BRANCH   4   5
ATOM      5  C   UNL     1       1.609   6.825  20.132  0.00  0.00    +0.000 C 
BRANCH   5   6
ATOM      6  O   UNL     1       1.939   7.773  21.150  0.00  0.00    +0.000 OA
BRANCH   6  10
ATOM      7  C   UNL     1      -0.810  10.910  21.434  0.00  0.00    +0.000 A 
ATOM      8  C   UNL     1      -0.199  10.571  20.228  0.00  0.00    +0.000 A 
ATOM      9  C   UNL     1       0.705   9.506  20.164  0.00  0.00    +0.000 A 
ATOM     10  C   UNL     1       1.039   8.793  21.318  0.00  0.00    +0.000 A 
ATOM     11  C   UNL     1       0.418   9.120  22.526  0.00  0.00    +0.000 A 
ATOM     12  C   UNL     1      -0.497  10.186  22.584  0.00  0.00    +0.000 A 
BRANCH   7  14
ATOM     13  C   UNL     1      -2.119  12.336  20.089  0.00  0.00    +0.000 C 
ATOM     14  O   UNL     1      -1.666  11.971  21.392  0.00  0.00    +0.000 OA
ENDBRANCH   7  14
ENDBRANCH   6  10
ENDBRANCH   5   6
ENDBRANCH   4   5
ENDBRANCH   3   4
ENDBRANCH   1   3
BRANCH   1  15
ATOM     15  O   UNL     1       1.809   2.420  19.421  0.00  0.00    +0.000 OA
BRANCH  15  16
ATOM     16  C   UNL     1       3.076   1.823  19.144  0.00  0.00    +0.000 C 
BRANCH  16  17
ATOM     17  C   UNL     1       4.211   2.843  19.043  0.00  0.00    +0.000 C 
ATOM     18  O   UNL     1       5.055   2.945  19.934  0.00  0.00    +0.000 OA
ATOM     19  N   UNL     1       4.161   3.629  17.901  0.00  0.00    +0.000 N 
ATOM     20  C   UNL     1       5.062   4.683  17.735  0.00  0.00    +0.000 A 
ATOM     21  C   UNL     1       6.433   4.438  17.724  0.00  0.00    +0.000 A 
ATOM     22  C   UNL     1       7.310   5.514  17.589  0.00  0.00    +0.000 A 
ATOM     23  C   UNL     1       6.790   6.795  17.501  0.00  0.00    +0.000 A 
ATOM     24 CL   UNL     1       7.831   8.156  17.415  0.00  0.00    +0.000 Cl
ATOM     25  C   UNL     1       5.411   6.943  17.489  0.00  0.00    +0.000 A 
ATOM     26  N   UNL     1       4.533   5.910  17.559  0.00  0.00    +0.000 NA
ATOM     27  H   UNL     1       3.221   3.827  17.555  0.00  0.00    +0.000 HD
ENDBRANCH  16  17
ENDBRANCH  15  16
ENDBRANCH   1  15
TORSDOF 9
ENDMDL
