MODEL 1
REMARK VINA RESULT:      -7.5      0.000      0.000
REMARK  Name = 
REMARK  6 active torsions:
REMARK  status: ('A' for Active; 'I' for Inactive)
REMARK    1  A    between atoms: C_1  and  C_2
REMARK    2  A    between atoms: C_5  and  C_6
REMARK    3  A    between atoms: C_6  and  N_7
REMARK    4  A    between atoms: N_14  and  C_15
REMARK    5  A    between atoms: C_15  and  C_16
REMARK    6  A    between atoms: C_19  and  C_20
REMARK                            x       y       z     vdW  Elec       q    Type
REMARK                         _______ _______ _______ _____ _____    ______ ____
ROOT
ATOM      1  N   UNL     1       4.488   3.852  18.222  0.00  0.00    +0.000 NA
ATOM      2  C   UNL     1       3.459   2.988  17.642  0.00  0.00    +0.000 C 
ATOM      3  C   UNL     1       2.208   3.743  17.192  0.00  0.00    +0.000 C 
ATOM      4  C   UNL     1       1.678   4.775  18.196  0.00  0.00    +0.000 C 
ATOM      5  C   UNL     1       2.738   5.551  19.024  0.00  0.00    +0.000 C 
ATOM      6  C   UNL     1       2.059   6.086  20.311  0.00  0.00    +0.000 C 
ATOM      7  C   UNL     1       1.902   7.598  20.156  0.00  0.00    +0.000 C 
ATOM      8  N   UNL     1       2.440   7.981  18.855  0.00  0.00    +0.000 NA
ATOM      9  C   UNL     1       3.264   6.858  18.399  0.00  0.00    +0.000 C 
ATOM     10  C   UNL     1       3.914   4.599  19.356  0.00  0.00    +0.000 C 
ENDROOT
BRANCH   1  11
ATOM     11  C   UNL     1       5.171   4.666  17.202  0.00  0.00    +0.000 C 
BRANCH  11  16
ATOM     12  C   UNL     1       7.976   8.613  17.659  0.00  0.00    +0.000 C 
ATOM     13  C   UNL     1       7.569   7.230  17.985  0.00  0.00    +0.000 A 
ATOM     14  C   UNL     1       8.106   6.271  18.817  0.00  0.00    +0.000 A 
ATOM     15  C   UNL     1       7.305   5.117  18.667  0.00  0.00    +0.000 A 
ATOM     16  C   UNL     1       6.312   5.442  17.768  0.00  0.00    +0.000 A 
ATOM     17  O   UNL     1       6.461   6.739  17.357  0.00  0.00    +0.000 OA
ENDBRANCH  11  16
ENDBRANCH   1  11
BRANCH   8  18
ATOM     18  C   UNL     1       1.430   8.381  17.869  0.00  0.00    +0.000 C 
BRANCH  18  19
ATOM     19  C   UNL     1       0.785   9.693  18.175  0.00  0.00    +0.000 A 
ATOM     20  C   UNL     1      -0.527  10.121  18.252  0.00  0.00    +0.000 A 
ATOM     21  C   UNL     1      -0.483  11.487  18.637  0.00  0.00    +0.000 A 
ATOM     22  C   UNL     1       0.854  11.804  18.785  0.00  0.00    +0.000 A 
ATOM     23  C   UNL     1       1.564  13.027  19.190  0.00  0.00    +0.000 C 
ATOM     24  O   UNL     1       1.626  10.723  18.484  0.00  0.00    +0.000 OA
ENDBRANCH  18  19
ENDBRANCH   8  18
TORSDOF 4
ENDMDL
MODEL 2
REMARK VINA RESULT:      -7.5      3.650      7.707
REMARK  Name = 
REMARK  6 active torsions:
REMARK  status: ('A' for Active; 'I' for Inactive)
REMARK    1  A    between atoms: C_1  and  C_2
REMARK    2  A    between atoms: C_5  and  C_6
REMARK    3  A    between atoms: C_6  and  N_7
REMARK    4  A    between atoms: N_14  and  C_15
REMARK    5  A    between atoms: C_15  and  C_16
REMARK    6  A    between atoms: C_19  and  C_20
REMARK                            x       y       z     vdW  Elec       q    Type
REMARK                         _______ _______ _______ _____ _____    ______ ____
ROOT
ATOM      1  N   UNL     1       3.419   5.794  18.707  0.00  0.00    +0.000 NA
ATOM      2  C   UNL     1       3.342   7.232  18.445  0.00  0.00    +0.000 C 
ATOM      3  C   UNL     1       3.947   7.644  17.102  0.00  0.00    +0.000 C 
ATOM      4  C   UNL     1       5.309   7.013  16.785  0.00  0.00    +0.000 C 
ATOM      5  C   UNL     1       5.532   5.553  17.267  0.00  0.00    +0.000 C 
ATOM      6  C   UNL     1       7.057   5.301  17.375  0.00  0.00    +0.000 C 
ATOM      7  C   UNL     1       7.455   4.379  16.223  0.00  0.00    +0.000 C 
ATOM      8  N   UNL     1       6.258   4.081  15.443  0.00  0.00    +0.000 NA
ATOM      9  C   UNL     1       5.113   4.442  16.284  0.00  0.00    +0.000 C 
ATOM     10  C   UNL     1       4.826   5.361  18.632  0.00  0.00    +0.000 C 
ENDROOT
BRANCH   1  11
ATOM     11  C   UNL     1       2.471   5.026  17.881  0.00  0.00    +0.000 C 
BRANCH  11  16
ATOM     12  C   UNL     1       1.343   2.507  21.886  0.00  0.00    +0.000 C 
ATOM     13  C   UNL     1       1.369   2.735  20.426  0.00  0.00    +0.000 A 
ATOM     14  C   UNL     1       0.943   1.978  19.356  0.00  0.00    +0.000 A 
ATOM     15  C   UNL     1       1.292   2.699  18.191  0.00  0.00    +0.000 A 
ATOM     16  C   UNL     1       1.892   3.865  18.616  0.00  0.00    +0.000 A 
ATOM     17  O   UNL     1       1.930   3.899  19.984  0.00  0.00    +0.000 OA
ENDBRANCH  11  16
ENDBRANCH   1  11
BRANCH   8  18
ATOM     18  C   UNL     1       6.215   4.719  14.122  0.00  0.00    +0.000 C 
BRANCH  18  19
ATOM     19  C   UNL     1       5.867   3.778  13.016  0.00  0.00    +0.000 A 
ATOM     20  C   UNL     1       6.480   2.661  12.479  0.00  0.00    +0.000 A 
ATOM     21  C   UNL     1       5.613   2.174  11.466  0.00  0.00    +0.000 A 
ATOM     22  C   UNL     1       4.517   3.016  11.457  0.00  0.00    +0.000 A 
ATOM     23  C   UNL     1       3.269   3.043  10.678  0.00  0.00    +0.000 C 
ATOM     24  O   UNL     1       4.679   4.002  12.382  0.00  0.00    +0.000 OA
ENDBRANCH  18  19
ENDBRANCH   8  18
TORSDOF 4
ENDMDL
MODEL 3
REMARK VINA RESULT:      -7.5      0.729      1.213
REMARK  Name = 
REMARK  6 active torsions:
REMARK  status: ('A' for Active; 'I' for Inactive)
REMARK    1  A    between atoms: C_1  and  C_2
REMARK    2  A    between atoms: C_5  and  C_6
REMARK    3  A    between atoms: C_6  and  N_7
REMARK    4  A    between atoms: N_14  and  C_15
REMARK    5  A    between atoms: C_15  and  C_16
REMARK    6  A    between atoms: C_19  and  C_20
REMARK                            x       y       z     vdW  Elec       q    Type
REMARK                         _______ _______ _______ _____ _____    ______ ____
ROOT
ATOM      1  N   UNL     1       4.452   3.871  18.267  0.00  0.00    +0.000 NA
ATOM      2  C   UNL     1       3.420   3.009  17.691  0.00  0.00    +0.000 C 
ATOM      3  C   UNL     1       2.176   3.768  17.226  0.00  0.00    +0.000 C 
ATOM      4  C   UNL     1       1.649   4.814  18.217  0.00  0.00    +0.000 C 
ATOM      5  C   UNL     1       2.710   5.591  19.042  0.00  0.00    +0.000 C 
ATOM      6  C   UNL     1       2.027   6.144  20.319  0.00  0.00    +0.000 C 
ATOM      7  C   UNL     1       1.882   7.655  20.148  0.00  0.00    +0.000 C 
ATOM      8  N   UNL     1       2.430   8.021  18.847  0.00  0.00    +0.000 NA
ATOM      9  C   UNL     1       3.249   6.888  18.406  0.00  0.00    +0.000 C 
ATOM     10  C   UNL     1       3.877   4.634  19.390  0.00  0.00    +0.000 C 
ENDROOT
BRANCH   1  11
ATOM     11  C   UNL     1       5.147   4.670  17.243  0.00  0.00    +0.000 C 
BRANCH  11  16
ATOM     12  C   UNL     1       8.003   8.584  17.656  0.00  0.00    +0.000 C 
ATOM     13  C   UNL     1       7.573   7.214  18.003  0.00  0.00    +0.000 A 
ATOM     14  C   UNL     1       8.088   6.263  18.858  0.00  0.00    +0.000 A 
ATOM     15  C   UNL     1       7.272   5.117  18.720  0.00  0.00    +0.000 A 
ATOM     16  C   UNL     1       6.292   5.440  17.806  0.00  0.00    +0.000 A 
ATOM     17  O   UNL     1       6.464   6.727  17.373  0.00  0.00    +0.000 OA
ENDBRANCH  11  16
ENDBRANCH   1  11
BRANCH   8  18
ATOM     18  C   UNL     1       1.428   8.418  17.851  0.00  0.00    +0.000 C 
BRANCH  18  19
ATOM     19  C   UNL     1       0.727   9.693  18.186  0.00  0.00    +0.000 A 
ATOM     20  C   UNL     1       1.124  10.880  18.775  0.00  0.00    +0.000 A 
ATOM     21  C   UNL     1      -0.011  11.732  18.767  0.00  0.00    +0.000 A 
ATOM     22  C   UNL     1      -1.027  11.019  18.161  0.00  0.00    +0.000 A 
ATOM     23  C   UNL     1      -2.423  11.336  17.821  0.00  0.00    +0.000 C 
ATOM     24  O   UNL     1      -0.588   9.773  17.827  0.00  0.00    +0.000 OA
ENDBRANCH  18  19
ENDBRANCH   8  18
TORSDOF 4
ENDMDL
MODEL 4
REMARK VINA RESULT:      -7.4      3.630      7.789
REMARK  Name = 
REMARK  6 active torsions:
REMARK  status: ('A' for Active; 'I' for Inactive)
REMARK    1  A    between atoms: C_1  and  C_2
REMARK    2  A    between atoms: C_5  and  C_6
REMARK    3  A    between atoms: C_6  and  N_7
REMARK    4  A    between atoms: N_14  and  C_15
REMARK    5  A    between atoms: C_15  and  C_16
REMARK    6  A    between atoms: C_19  and  C_20
REMARK                            x       y       z     vdW  Elec       q    Type
REMARK                         _______ _______ _______ _____ _____    ______ ____
ROOT
ATOM      1  N   UNL     1       3.126   5.939  18.873  0.00  0.00    +0.000 NA
ATOM      2  C   UNL     1       3.016   7.373  18.599  0.00  0.00    +0.000 C 
ATOM      3  C   UNL     1       3.615   7.787  17.255  0.00  0.00    +0.000 C 
ATOM      4  C   UNL     1       4.993   7.186  16.948  0.00  0.00    +0.000 C 
ATOM      5  C   UNL     1       5.249   5.736  17.442  0.00  0.00    +0.000 C 
ATOM      6  C   UNL     1       6.779   5.521  17.557  0.00  0.00    +0.000 C 
ATOM      7  C   UNL     1       7.203   4.599  16.415  0.00  0.00    +0.000 C 
ATOM      8  N   UNL     1       6.016   4.267  15.633  0.00  0.00    +0.000 NA
ATOM      9  C   UNL     1       4.860   4.607  16.467  0.00  0.00    +0.000 C 
ATOM     10  C   UNL     1       4.543   5.538  18.807  0.00  0.00    +0.000 C 
ENDROOT
BRANCH   1  11
ATOM     11  C   UNL     1       2.199   5.142  18.051  0.00  0.00    +0.000 C 
BRANCH  11  16
ATOM     12  C   UNL     1       1.273   2.416  21.971  0.00  0.00    +0.000 C 
ATOM     13  C   UNL     1       1.317   2.677  20.517  0.00  0.00    +0.000 A 
ATOM     14  C   UNL     1       1.026   1.894  19.420  0.00  0.00    +0.000 A 
ATOM     15  C   UNL     1       1.318   2.678  18.280  0.00  0.00    +0.000 A 
ATOM     16  C   UNL     1       1.749   3.902  18.745  0.00  0.00    +0.000 A 
ATOM     17  O   UNL     1       1.738   3.912  20.114  0.00  0.00    +0.000 OA
ENDBRANCH  11  16
ENDBRANCH   1  11
BRANCH   8  18
ATOM     18  C   UNL     1       5.963   4.893  14.307  0.00  0.00    +0.000 C 
BRANCH  18  19
ATOM     19  C   UNL     1       5.683   3.927  13.202  0.00  0.00    +0.000 A 
ATOM     20  C   UNL     1       4.548   3.585  12.492  0.00  0.00    +0.000 A 
ATOM     21  C   UNL     1       4.950   2.624  11.527  0.00  0.00    +0.000 A 
ATOM     22  C   UNL     1       6.310   2.450  11.699  0.00  0.00    +0.000 A 
ATOM     23  C   UNL     1       7.320   1.630  11.011  0.00  0.00    +0.000 C 
ATOM     24  O   UNL     1       6.753   3.223  12.729  0.00  0.00    +0.000 OA
ENDBRANCH  18  19
ENDBRANCH   8  18
TORSDOF 4
ENDMDL
MODEL 5
REMARK VINA RESULT:      -7.4      3.372      6.294
REMARK  Name = 
REMARK  6 active torsions:
REMARK  status: ('A' for Active; 'I' for Inactive)
REMARK    1  A    between atoms: C_1  and  C_2
REMARK    2  A    between atoms: C_5  and  C_6
REMARK    3  A    between atoms: C_6  and  N_7
REMARK    4  A    between atoms: N_14  and  C_15
REMARK    5  A    between atoms: C_15  and  C_16
REMARK    6  A    between atoms: C_19  and  C_20
REMARK                            x       y       z     vdW  Elec       q    Type
REMARK                         _______ _______ _______ _____ _____    ______ ____
ROOT
ATOM      1  N   UNL     1       6.558   5.383  16.213  0.00  0.00    +0.000 NA
ATOM      2  C   UNL     1       7.418   5.212  17.385  0.00  0.00    +0.000 C 
ATOM      3  C   UNL     1       6.653   4.860  18.661  0.00  0.00    +0.000 C 
ATOM      4  C   UNL     1       5.395   5.702  18.914  0.00  0.00    +0.000 C 
ATOM      5  C   UNL     1       4.574   6.123  17.665  0.00  0.00    +0.000 C 
ATOM      6  C   UNL     1       3.731   7.371  18.032  0.00  0.00    +0.000 C 
ATOM      7  C   UNL     1       2.272   6.928  18.138  0.00  0.00    +0.000 C 
ATOM      8  N   UNL     1       2.209   5.496  17.864  0.00  0.00    +0.000 NA
ATOM      9  C   UNL     1       3.474   5.142  17.213  0.00  0.00    +0.000 C 
ATOM     10  C   UNL     1       5.548   6.418  16.498  0.00  0.00    +0.000 C 
ENDROOT
BRANCH   1  11
ATOM     11  C   UNL     1       6.033   4.099  15.716  0.00  0.00    +0.000 C 
BRANCH  11  16
ATOM     12  C   UNL     1       4.265   3.142  11.287  0.00  0.00    +0.000 C 
ATOM     13  C   UNL     1       5.319   3.570  12.231  0.00  0.00    +0.000 A 
ATOM     14  C   UNL     1       6.640   3.925  12.056  0.00  0.00    +0.000 A 
ATOM     15  C   UNL     1       7.160   4.180  13.345  0.00  0.00    +0.000 A 
ATOM     16  C   UNL     1       6.123   3.987  14.232  0.00  0.00    +0.000 A 
ATOM     17  O   UNL     1       4.990   3.626  13.555  0.00  0.00    +0.000 OA
ENDBRANCH  11  16
ENDBRANCH   1  11
BRANCH   8  18
ATOM     18  C   UNL     1       1.920   4.661  19.035  0.00  0.00    +0.000 C 
BRANCH  18  19
ATOM     19  C   UNL     1       2.622   3.343  19.016  0.00  0.00    +0.000 A 
ATOM     20  C   UNL     1       2.598   2.257  18.162  0.00  0.00    +0.000 A 
ATOM     21  C   UNL     1       3.538   1.323  18.671  0.00  0.00    +0.000 A 
ATOM     22  C   UNL     1       4.089   1.904  19.797  0.00  0.00    +0.000 A 
ATOM     23  C   UNL     1       5.127   1.479  20.750  0.00  0.00    +0.000 C 
ATOM     24  O   UNL     1       3.519   3.121  20.021  0.00  0.00    +0.000 OA
ENDBRANCH  18  19
ENDBRANCH   8  18
TORSDOF 4
ENDMDL
MODEL 6
REMARK VINA RESULT:      -7.2      1.593      6.175
REMARK  Name = 
REMARK  6 active torsions:
REMARK  status: ('A' for Active; 'I' for Inactive)
REMARK    1  A    between atoms: C_1  and  C_2
REMARK    2  A    between atoms: C_5  and  C_6
REMARK    3  A    between atoms: C_6  and  N_7
REMARK    4  A    between atoms: N_14  and  C_15
REMARK    5  A    between atoms: C_15  and  C_16
REMARK    6  A    between atoms: C_19  and  C_20
REMARK                            x       y       z     vdW  Elec       q    Type
REMARK                         _______ _______ _______ _____ _____    ______ ____
ROOT
ATOM      1  N   UNL     1       2.173   5.382  19.280  0.00  0.00    +0.000 NA
ATOM      2  C   UNL     1       2.542   4.326  20.225  0.00  0.00    +0.000 C 
ATOM      3  C   UNL     1       3.946   3.765  19.998  0.00  0.00    +0.000 C 
ATOM      4  C   UNL     1       4.291   3.456  18.535  0.00  0.00    +0.000 C 
ATOM      5  C   UNL     1       3.710   4.417  17.463  0.00  0.00    +0.000 C 
ATOM      6  C   UNL     1       3.671   3.670  16.106  0.00  0.00    +0.000 C 
ATOM      7  C   UNL     1       4.768   4.262  15.221  0.00  0.00    +0.000 C 
ATOM      8  N   UNL     1       5.451   5.305  15.980  0.00  0.00    +0.000 NA
ATOM      9  C   UNL     1       4.576   5.641  17.107  0.00  0.00    +0.000 C 
ATOM     10  C   UNL     1       2.295   4.867  17.905  0.00  0.00    +0.000 C 
ENDROOT
BRANCH   1  11
ATOM     11  C   UNL     1       2.879   6.646  19.553  0.00  0.00    +0.000 C 
BRANCH  11  16
ATOM     12  C   UNL     1      -0.068  10.473  20.119  0.00  0.00    +0.000 C 
ATOM     13  C   UNL     1       0.799   9.572  19.331  0.00  0.00    +0.000 A 
ATOM     14  C   UNL     1       1.116   9.517  17.991  0.00  0.00    +0.000 A 
ATOM     15  C   UNL     1       1.953   8.392  17.822  0.00  0.00    +0.000 A 
ATOM     16  C   UNL     1       2.119   7.834  19.073  0.00  0.00    +0.000 A 
ATOM     17  O   UNL     1       1.425   8.560  20.003  0.00  0.00    +0.000 OA
ENDBRANCH  11  16
ENDBRANCH   1  11
BRANCH   8  18
ATOM     18  C   UNL     1       6.814   4.960  16.403  0.00  0.00    +0.000 C 
BRANCH  18  19
ATOM     19  C   UNL     1       7.374   5.890  17.428  0.00  0.00    +0.000 A 
ATOM     20  C   UNL     1       7.871   5.721  18.707  0.00  0.00    +0.000 A 
ATOM     21  C   UNL     1       8.299   7.001  19.145  0.00  0.00    +0.000 A 
ATOM     22  C   UNL     1       8.050   7.871  18.100  0.00  0.00    +0.000 A 
ATOM     23  C   UNL     1       8.287   9.310  17.904  0.00  0.00    +0.000 C 
ATOM     24  O   UNL     1       7.469   7.203  17.065  0.00  0.00    +0.000 OA
ENDBRANCH  18  19
ENDBRANCH   8  18
TORSDOF 4
ENDMDL
MODEL 7
REMARK VINA RESULT:      -7.2      4.107      7.932
REMARK  Name = 
REMARK  6 active torsions:
REMARK  status: ('A' for Active; 'I' for Inactive)
REMARK    1  A    between atoms: C_1  and  C_2
REMARK    2  A    between atoms: C_5  and  C_6
REMARK    3  A    between atoms: C_6  and  N_7
REMARK    4  A    between atoms: N_14  and  C_15
REMARK    5  A    between atoms: C_15  and  C_16
REMARK    6  A    between atoms: C_19  and  C_20
REMARK                            x       y       z     vdW  Elec       q    Type
REMARK                         _______ _______ _______ _____ _____    ______ ____
ROOT
ATOM      1  N   UNL     1       5.112   4.207  19.238  0.00  0.00    +0.000 NA
ATOM      2  C   UNL     1       4.249   5.380  19.392  0.00  0.00    +0.000 C 
ATOM      3  C   UNL     1       3.824   6.006  18.064  0.00  0.00    +0.000 C 
ATOM      4  C   UNL     1       4.952   6.178  17.038  0.00  0.00    +0.000 C 
ATOM      5  C   UNL     1       6.040   5.071  17.005  0.00  0.00    +0.000 C 
ATOM      6  C   UNL     1       7.322   5.664  16.366  0.00  0.00    +0.000 C 
ATOM      7  C   UNL     1       7.467   5.054  14.973  0.00  0.00    +0.000 C 
ATOM      8  N   UNL     1       6.346   4.146  14.753  0.00  0.00    +0.000 NA
ATOM      9  C   UNL     1       5.765   3.876  16.071  0.00  0.00    +0.000 C 
ATOM     10  C   UNL     1       6.301   4.578  18.451  0.00  0.00    +0.000 C 
ENDROOT
BRANCH   1  11
ATOM     11  C   UNL     1       4.369   3.030  18.756  0.00  0.00    +0.000 C 
BRANCH  11  16
ATOM     12  C   UNL     1       1.121   2.428  22.325  0.00  0.00    +0.000 C 
ATOM     13  C   UNL     1       1.523   2.707  20.930  0.00  0.00    +0.000 A 
ATOM     14  C   UNL     1       0.800   2.926  19.778  0.00  0.00    +0.000 A 
ATOM     15  C   UNL     1       1.743   3.077  18.736  0.00  0.00    +0.000 A 
ATOM     16  C   UNL     1       2.989   2.963  19.315  0.00  0.00    +0.000 A 
ATOM     17  O   UNL     1       2.860   2.749  20.661  0.00  0.00    +0.000 OA
ENDBRANCH  11  16
ENDBRANCH   1  11
BRANCH   8  18
ATOM     18  C   UNL     1       5.354   4.624  13.783  0.00  0.00    +0.000 C 
BRANCH  18  19
ATOM     19  C   UNL     1       5.118   3.675  12.654  0.00  0.00    +0.000 A 
ATOM     20  C   UNL     1       4.143   3.566  11.681  0.00  0.00    +0.000 A 
ATOM     21  C   UNL     1       4.512   2.468  10.861  0.00  0.00    +0.000 A 
ATOM     22  C   UNL     1       5.699   1.983  11.376  0.00  0.00    +0.000 A 
ATOM     23  C   UNL     1       6.606   0.895  10.977  0.00  0.00    +0.000 C 
ATOM     24  O   UNL     1       6.058   2.700  12.477  0.00  0.00    +0.000 OA
ENDBRANCH  18  19
ENDBRANCH   8  18
TORSDOF 4
ENDMDL
MODEL 8
REMARK VINA RESULT:      -7.1      4.052      6.302
REMARK  Name = 
REMARK  6 active torsions:
REMARK  status: ('A' for Active; 'I' for Inactive)
REMARK    1  A    between atoms: C_1  and  C_2
REMARK    2  A    between atoms: C_5  and  C_6
REMARK    3  A    between atoms: C_6  and  N_7
REMARK    4  A    between atoms: N_14  and  C_15
REMARK    5  A    between atoms: C_15  and  C_16
REMARK    6  A    between atoms: C_19  and  C_20
REMARK                            x       y       z     vdW  Elec       q    Type
REMARK                         _______ _______ _______ _____ _____    ______ ____
ROOT
ATOM      1  N   UNL     1       6.718   6.155  15.884  0.00  0.00    +0.000 NA
ATOM      2  C   UNL     1       7.346   6.711  17.084  0.00  0.00    +0.000 C 
ATOM      3  C   UNL     1       6.971   5.973  18.370  0.00  0.00    +0.000 C 
ATOM      4  C   UNL     1       5.477   5.659  18.523  0.00  0.00    +0.000 C 
ATOM      5  C   UNL     1       4.702   5.301  17.226  0.00  0.00    +0.000 C 
ATOM      6  C   UNL     1       3.195   5.572  17.465  0.00  0.00    +0.000 C 
ATOM      7  C   UNL     1       2.494   4.218  17.579  0.00  0.00    +0.000 C 
ATOM      8  N   UNL     1       3.500   3.171  17.427  0.00  0.00    +0.000 NA
ATOM      9  C   UNL     1       4.680   3.809  16.837  0.00  0.00    +0.000 C 
ATOM     10  C   UNL     1       5.254   6.155  16.057  0.00  0.00    +0.000 C 
ENDROOT
BRANCH   1  11
ATOM     11  C   UNL     1       7.314   4.867  15.489  0.00  0.00    +0.000 C 
BRANCH  11  16
ATOM     12  C   UNL     1       5.390   2.534  11.680  0.00  0.00    +0.000 C 
ATOM     13  C   UNL     1       6.263   3.544  12.314  0.00  0.00    +0.000 A 
ATOM     14  C   UNL     1       7.170   4.447  11.801  0.00  0.00    +0.000 A 
ATOM     15  C   UNL     1       7.746   5.108  12.909  0.00  0.00    +0.000 A 
ATOM     16  C   UNL     1       7.144   4.588  14.035  0.00  0.00    +0.000 A 
ATOM     17  O   UNL     1       6.225   3.638  13.676  0.00  0.00    +0.000 OA
ENDBRANCH  11  16
ENDBRANCH   1  11
BRANCH   8  18
ATOM     18  C   UNL     1       3.809   2.438  18.661  0.00  0.00    +0.000 C 
BRANCH  18  19
ATOM     19  C   UNL     1       3.151   3.009  19.874  0.00  0.00    +0.000 A 
ATOM     20  C   UNL     1       3.133   4.263  20.454  0.00  0.00    +0.000 A 
ATOM     21  C   UNL     1       2.273   4.174  21.580  0.00  0.00    +0.000 A 
ATOM     22  C   UNL     1       1.807   2.873  21.609  0.00  0.00    +0.000 A 
ATOM     23  C   UNL     1       0.875   2.152  22.489  0.00  0.00    +0.000 C 
ATOM     24  O   UNL     1       2.356   2.158  20.588  0.00  0.00    +0.000 OA
ENDBRANCH  18  19
ENDBRANCH   8  18
TORSDOF 4
ENDMDL
MODEL 9
REMARK VINA RESULT:      -7.0      3.259      6.054
REMARK  Name = 
REMARK  6 active torsions:
REMARK  status: ('A' for Active; 'I' for Inactive)
REMARK    1  A    between atoms: C_1  and  C_2
REMARK    2  A    between atoms: C_5  and  C_6
REMARK    3  A    between atoms: C_6  and  N_7
REMARK    4  A    between atoms: N_14  and  C_15
REMARK    5  A    between atoms: C_15  and  C_16
REMARK    6  A    between atoms: C_19  and  C_20
REMARK                            x       y       z     vdW  Elec       q    Type
REMARK                         _______ _______ _______ _____ _____    ______ ____
ROOT
ATOM      1  N   UNL     1       6.653   5.740  16.532  0.00  0.00    +0.000 NA
ATOM      2  C   UNL     1       7.427   5.575  17.764  0.00  0.00    +0.000 C 
ATOM      3  C   UNL     1       6.591   5.103  18.954  0.00  0.00    +0.000 C 
ATOM      4  C   UNL     1       5.254   5.834  19.137  0.00  0.00    +0.000 C 
ATOM      5  C   UNL     1       4.505   6.255  17.843  0.00  0.00    +0.000 C 
ATOM      6  C   UNL     1       3.540   7.416  18.192  0.00  0.00    +0.000 C 
ATOM      7  C   UNL     1       2.117   6.860  18.155  0.00  0.00    +0.000 C 
ATOM      8  N   UNL     1       2.190   5.443  17.813  0.00  0.00    +0.000 NA
ATOM      9  C   UNL     1       3.527   5.218  17.257  0.00  0.00    +0.000 C 
ATOM     10  C   UNL     1       5.545   6.681  16.776  0.00  0.00    +0.000 C 
ENDROOT
BRANCH   1  11
ATOM     11  C   UNL     1       6.273   4.447  15.936  0.00  0.00    +0.000 C 
BRANCH  11  16
ATOM     12  C   UNL     1       8.265   6.065  11.805  0.00  0.00    +0.000 C 
ATOM     13  C   UNL     1       7.469   5.116  12.611  0.00  0.00    +0.000 A 
ATOM     14  C   UNL     1       6.746   3.990  12.281  0.00  0.00    +0.000 A 
ATOM     15  C   UNL     1       6.147   3.533  13.477  0.00  0.00    +0.000 A 
ATOM     16  C   UNL     1       6.556   4.393  14.474  0.00  0.00    +0.000 A 
ATOM     17  O   UNL     1       7.376   5.357  13.952  0.00  0.00    +0.000 OA
ENDBRANCH  11  16
ENDBRANCH   1  11
BRANCH   8  18
ATOM     18  C   UNL     1       1.874   4.531  18.918  0.00  0.00    +0.000 C 
BRANCH  18  19
ATOM     19  C   UNL     1       2.661   3.262  18.888  0.00  0.00    +0.000 A 
ATOM     20  C   UNL     1       2.778   2.228  17.978  0.00  0.00    +0.000 A 
ATOM     21  C   UNL     1       3.736   1.327  18.514  0.00  0.00    +0.000 A 
ATOM     22  C   UNL     1       4.155   1.875  19.711  0.00  0.00    +0.000 A 
ATOM     23  C   UNL     1       5.140   1.462  20.724  0.00  0.00    +0.000 C 
ATOM     24  O   UNL     1       3.489   3.039  19.950  0.00  0.00    +0.000 OA
ENDBRANCH  18  19
ENDBRANCH   8  18
TORSDOF 4
ENDMDL
