MODEL 1
REMARK VINA RESULT:      -7.9      0.000      0.000
REMARK  Name = 
REMARK  12 active torsions:
REMARK  status: ('A' for Active; 'I' for Inactive)
REMARK    1  A    between atoms: C_1  and  C_2
REMARK    2  A    between atoms: C_2  and  O_3
REMARK    3  A    between atoms: O_3  and  C_4
REMARK    4  A    between atoms: C_4  and  C_6
REMARK    5  A    between atoms: C_10  and  O_11
REMARK    6  A    between atoms: O_11  and  C_12
REMARK    7  A    between atoms: C_13  and  O_14
REMARK    8  A    between atoms: O_14  and  C_15
REMARK    9  A    between atoms: C_18  and  N_19
REMARK   10  A    between atoms: C_20  and  C_22
REMARK   11  A    between atoms: C_22  and  C_23
REMARK   12  A    between atoms: C_23  and  N_24
REMARK                            x       y       z     vdW  Elec       q    Type
REMARK                         _______ _______ _______ _____ _____    ______ ____
ROOT
ATOM      1  C   UNL     1       2.860   4.301  18.235  0.00  0.00    +0.000 A 
ATOM      2  N   UNL     1       3.694   3.704  17.305  0.00  0.00    +0.000 N 
ATOM      3  C   UNL     1       4.773   4.508  17.019  0.00  0.00    +0.000 A 
ATOM      4  C   UNL     1       5.812   4.372  16.080  0.00  0.00    +0.000 A 
ATOM      5  C   UNL     1       6.820   5.374  16.006  0.00  0.00    +0.000 A 
ATOM      6  C   UNL     1       6.794   6.452  16.891  0.00  0.00    +0.000 A 
ATOM      7  C   UNL     1       5.713   6.556  17.798  0.00  0.00    +0.000 A 
ATOM      8  C   UNL     1       4.674   5.615  17.850  0.00  0.00    +0.000 A 
ATOM      9  C   UNL     1       3.459   5.498  18.591  0.00  0.00    +0.000 A 
ATOM     10  H   UNL     1       3.475   2.833  16.840  0.00  0.00    +0.000 HD
ENDROOT
BRANCH   9  11
ATOM     11  N   UNL     1       2.907   6.384  19.510  0.00  0.00    +0.000 N 
ATOM     12  C   UNL     1       2.279   7.547  19.099  0.00  0.00    +0.000 C 
ATOM     13  O   UNL     1       2.159   7.934  17.943  0.00  0.00    +0.000 OA
ATOM     14  H   UNL     1       2.511   5.956  20.339  0.00  0.00    +0.000 HD
BRANCH  12  15
ATOM     15  C   UNL     1       1.664   8.325  20.249  0.00  0.00    +0.000 C 
BRANCH  15  16
ATOM     16  C   UNL     1       0.846   9.507  19.716  0.00  0.00    +0.000 C 
BRANCH  16  17
ATOM     17  N   UNL     1      -0.196   9.996  20.654  0.00  0.00    +0.000 NA
ATOM     18  C   UNL     1      -0.520  11.407  20.328  0.00  0.00    +0.000 C 
ATOM     19  C   UNL     1      -1.665  12.008  21.156  0.00  0.00    +0.000 C 
ATOM     20  S   UNL     1      -1.292  12.042  22.932  0.00  0.00    +0.000 S 
ATOM     21  C   UNL     1      -0.805  10.302  23.093  0.00  0.00    +0.000 C 
ATOM     22  C   UNL     1       0.257   9.895  22.062  0.00  0.00    +0.000 C 
ENDBRANCH  16  17
ENDBRANCH  15  16
ENDBRANCH  12  15
ENDBRANCH   9  11
BRANCH   1  23
ATOM     23  C   UNL     1       1.588   3.742  18.569  0.00  0.00    +0.000 C 
ATOM     24  O   UNL     1       0.864   3.139  17.785  0.00  0.00    +0.000 OA
BRANCH  23  25
ATOM     25  O   UNL     1       1.230   4.098  19.838  0.00  0.00    +0.000 OA
BRANCH  25  27
ATOM     26  C   UNL     1       2.272   3.299  21.863  0.00  0.00    +0.000 C 
ATOM     27  C   UNL     1       1.231   3.026  20.790  0.00  0.00    +0.000 C 
ENDBRANCH  25  27
ENDBRANCH  23  25
ENDBRANCH   1  23
BRANCH   5  28
ATOM     28  O   UNL     1       7.601   5.226  14.884  0.00  0.00    +0.000 OA
ATOM     29  C   UNL     1       7.005   4.693  13.713  0.00  0.00    +0.000 C 
ENDBRANCH   5  28
BRANCH   6  30
ATOM     30  O   UNL     1       7.575   7.555  17.061  0.00  0.00    +0.000 OA
ATOM     31  C   UNL     1       8.199   7.924  18.262  0.00  0.00    +0.000 C 
ENDBRANCH   6  30
TORSDOF 9
ENDMDL
MODEL 2
REMARK VINA RESULT:      -7.7      0.794      1.211
REMARK  Name = 
REMARK  12 active torsions:
REMARK  status: ('A' for Active; 'I' for Inactive)
REMARK    1  A    between atoms: C_1  and  C_2
REMARK    2  A    between atoms: C_2  and  O_3
REMARK    3  A    between atoms: O_3  and  C_4
REMARK    4  A    between atoms: C_4  and  C_6
REMARK    5  A    between atoms: C_10  and  O_11
REMARK    6  A    between atoms: O_11  and  C_12
REMARK    7  A    between atoms: C_13  and  O_14
REMARK    8  A    between atoms: O_14  and  C_15
REMARK    9  A    between atoms: C_18  and  N_19
REMARK   10  A    between atoms: C_20  and  C_22
REMARK   11  A    between atoms: C_22  and  C_23
REMARK   12  A    between atoms: C_23  and  N_24
REMARK                            x       y       z     vdW  Elec       q    Type
REMARK                         _______ _______ _______ _____ _____    ______ ____
ROOT
ATOM      1  C   UNL     1       3.401   3.763  18.304  0.00  0.00    +0.000 A 
ATOM      2  N   UNL     1       4.255   3.260  17.338  0.00  0.00    +0.000 N 
ATOM      3  C   UNL     1       5.214   4.184  16.994  0.00  0.00    +0.000 A 
ATOM      4  C   UNL     1       6.215   4.164  16.006  0.00  0.00    +0.000 A 
ATOM      5  C   UNL     1       7.091   5.278  15.877  0.00  0.00    +0.000 A 
ATOM      6  C   UNL     1       6.977   6.356  16.755  0.00  0.00    +0.000 A 
ATOM      7  C   UNL     1       5.936   6.340  17.713  0.00  0.00    +0.000 A 
ATOM      8  C   UNL     1       5.021   5.282  17.822  0.00  0.00    +0.000 A 
ATOM      9  C   UNL     1       3.867   5.028  18.622  0.00  0.00    +0.000 A 
ATOM     10  H   UNL     1       4.122   2.363  16.890  0.00  0.00    +0.000 HD
ENDROOT
BRANCH   9  11
ATOM     11  N   UNL     1       3.256   5.852  19.561  0.00  0.00    +0.000 N 
ATOM     12  C   UNL     1       2.420   6.886  19.176  0.00  0.00    +0.000 C 
ATOM     13  O   UNL     1       2.148   7.202  18.024  0.00  0.00    +0.000 OA
ATOM     14  H   UNL     1       3.001   5.400  20.433  0.00  0.00    +0.000 HD
BRANCH  12  15
ATOM     15  C   UNL     1       1.783   7.602  20.352  0.00  0.00    +0.000 C 
BRANCH  15  16
ATOM     16  C   UNL     1       1.378   9.026  19.954  0.00  0.00    +0.000 C 
BRANCH  16  17
ATOM     17  N   UNL     1       0.938   9.873  21.092  0.00  0.00    +0.000 NA
ATOM     18  C   UNL     1       0.112   9.055  22.015  0.00  0.00    +0.000 C 
ATOM     19  C   UNL     1      -0.322   9.780  23.297  0.00  0.00    +0.000 C 
ATOM     20  S   UNL     1      -1.354  11.234  22.955  0.00  0.00    +0.000 S 
ATOM     21  C   UNL     1      -0.252  12.012  21.741  0.00  0.00    +0.000 C 
ATOM     22  C   UNL     1       0.160  11.045  20.623  0.00  0.00    +0.000 C 
ENDBRANCH  16  17
ENDBRANCH  15  16
ENDBRANCH  12  15
ENDBRANCH   9  11
BRANCH   1  23
ATOM     23  C   UNL     1       2.223   3.059  18.703  0.00  0.00    +0.000 C 
ATOM     24  O   UNL     1       1.112   3.222  18.210  0.00  0.00    +0.000 OA
BRANCH  23  25
ATOM     25  O   UNL     1       2.479   2.288  19.801  0.00  0.00    +0.000 OA
BRANCH  25  27
ATOM     26  C   UNL     1       2.108   3.346  21.938  0.00  0.00    +0.000 C 
ATOM     27  C   UNL     1       1.535   2.427  20.871  0.00  0.00    +0.000 C 
ENDBRANCH  25  27
ENDBRANCH  23  25
ENDBRANCH   1  23
BRANCH   5  28
ATOM     28  O   UNL     1       7.829   5.212  14.719  0.00  0.00    +0.000 OA
ATOM     29  C   UNL     1       7.183   4.790  13.530  0.00  0.00    +0.000 C 
ENDBRANCH   5  28
BRANCH   6  30
ATOM     30  O   UNL     1       7.625   7.547  16.880  0.00  0.00    +0.000 OA
ATOM     31  C   UNL     1       7.965   8.157  18.097  0.00  0.00    +0.000 C 
ENDBRANCH   6  30
TORSDOF 9
ENDMDL
MODEL 3
REMARK VINA RESULT:      -7.7      3.360      7.277
REMARK  Name = 
REMARK  12 active torsions:
REMARK  status: ('A' for Active; 'I' for Inactive)
REMARK    1  A    between atoms: C_1  and  C_2
REMARK    2  A    between atoms: C_2  and  O_3
REMARK    3  A    between atoms: O_3  and  C_4
REMARK    4  A    between atoms: C_4  and  C_6
REMARK    5  A    between atoms: C_10  and  O_11
REMARK    6  A    between atoms: O_11  and  C_12
REMARK    7  A    between atoms: C_13  and  O_14
REMARK    8  A    between atoms: O_14  and  C_15
REMARK    9  A    between atoms: C_18  and  N_19
REMARK   10  A    between atoms: C_20  and  C_22
REMARK   11  A    between atoms: C_22  and  C_23
REMARK   12  A    between atoms: C_23  and  N_24
REMARK                            x       y       z     vdW  Elec       q    Type
REMARK                         _______ _______ _______ _____ _____    ______ ____
ROOT
ATOM      1  C   UNL     1       5.666   4.993  16.018  0.00  0.00    +0.000 A 
ATOM      2  N   UNL     1       4.723   4.012  16.268  0.00  0.00    +0.000 N 
ATOM      3  C   UNL     1       3.883   4.381  17.292  0.00  0.00    +0.000 A 
ATOM      4  C   UNL     1       2.856   3.682  17.952  0.00  0.00    +0.000 A 
ATOM      5  C   UNL     1       2.129   4.326  18.992  0.00  0.00    +0.000 A 
ATOM      6  C   UNL     1       2.410   5.654  19.316  0.00  0.00    +0.000 A 
ATOM      7  C   UNL     1       3.471   6.304  18.641  0.00  0.00    +0.000 A 
ATOM      8  C   UNL     1       4.243   5.672  17.654  0.00  0.00    +0.000 A 
ATOM      9  C   UNL     1       5.379   6.044  16.875  0.00  0.00    +0.000 A 
ATOM     10  H   UNL     1       4.724   3.110  15.810  0.00  0.00    +0.000 HD
ENDROOT
BRANCH   9  11
ATOM     11  N   UNL     1       6.122   7.219  16.918  0.00  0.00    +0.000 N 
ATOM     12  C   UNL     1       7.236   7.336  17.731  0.00  0.00    +0.000 C 
ATOM     13  O   UNL     1       7.668   6.479  18.491  0.00  0.00    +0.000 OA
ATOM     14  H   UNL     1       6.178   7.727  16.042  0.00  0.00    +0.000 HD
BRANCH  12  15
ATOM     15  C   UNL     1       7.956   8.661  17.560  0.00  0.00    +0.000 C 
BRANCH  15  16
ATOM     16  C   UNL     1       8.840   8.950  18.779  0.00  0.00    +0.000 C 
BRANCH  16  17
ATOM     17  N   UNL     1       9.375  10.334  18.827  0.00  0.00    +0.000 NA
ATOM     18  C   UNL     1       9.268  10.848  20.215  0.00  0.00    +0.000 C 
ATOM     19  C   UNL     1       9.887  12.237  20.432  0.00  0.00    +0.000 C 
ATOM     20  S   UNL     1       9.085  13.517  19.425  0.00  0.00    +0.000 S 
ATOM     21  C   UNL     1       9.200  12.656  17.832  0.00  0.00    +0.000 C 
ATOM     22  C   UNL     1       8.641  11.228  17.900  0.00  0.00    +0.000 C 
ENDBRANCH  16  17
ENDBRANCH  15  16
ENDBRANCH  12  15
ENDBRANCH   9  11
BRANCH   1  23
ATOM     23  C   UNL     1       6.755   4.776  15.118  0.00  0.00    +0.000 C 
ATOM     24  O   UNL     1       7.702   5.540  14.972  0.00  0.00    +0.000 OA
BRANCH  23  25
ATOM     25  O   UNL     1       6.519   3.675  14.345  0.00  0.00    +0.000 OA
BRANCH  25  27
ATOM     26  C   UNL     1       6.499   3.226  11.973  0.00  0.00    +0.000 C 
ATOM     27  C   UNL     1       5.806   3.932  13.127  0.00  0.00    +0.000 C 
ENDBRANCH  25  27
ENDBRANCH  23  25
ENDBRANCH   1  23
BRANCH   5  28
ATOM     28  O   UNL     1       1.352   3.436  19.695  0.00  0.00    +0.000 OA
ATOM     29  C   UNL     1       1.297   2.092  19.251  0.00  0.00    +0.000 C 
ENDBRANCH   5  28
BRANCH   6  30
ATOM     30  O   UNL     1       1.927   6.524  20.245  0.00  0.00    +0.000 OA
ATOM     31  C   UNL     1       1.850   7.915  20.085  0.00  0.00    +0.000 C 
ENDBRANCH   6  30
TORSDOF 9
ENDMDL
MODEL 4
REMARK VINA RESULT:      -7.6      3.436      7.391
REMARK  Name = 
REMARK  12 active torsions:
REMARK  status: ('A' for Active; 'I' for Inactive)
REMARK    1  A    between atoms: C_1  and  C_2
REMARK    2  A    between atoms: C_2  and  O_3
REMARK    3  A    between atoms: O_3  and  C_4
REMARK    4  A    between atoms: C_4  and  C_6
REMARK    5  A    between atoms: C_10  and  O_11
REMARK    6  A    between atoms: O_11  and  C_12
REMARK    7  A    between atoms: C_13  and  O_14
REMARK    8  A    between atoms: O_14  and  C_15
REMARK    9  A    between atoms: C_18  and  N_19
REMARK   10  A    between atoms: C_20  and  C_22
REMARK   11  A    between atoms: C_22  and  C_23
REMARK   12  A    between atoms: C_23  and  N_24
REMARK                            x       y       z     vdW  Elec       q    Type
REMARK                         _______ _______ _______ _____ _____    ______ ____
ROOT
ATOM      1  C   UNL     1       5.498   5.001  16.208  0.00  0.00    +0.000 A 
ATOM      2  N   UNL     1       4.556   4.032  16.502  0.00  0.00    +0.000 N 
ATOM      3  C   UNL     1       3.732   4.436  17.527  0.00  0.00    +0.000 A 
ATOM      4  C   UNL     1       2.713   3.761  18.224  0.00  0.00    +0.000 A 
ATOM      5  C   UNL     1       2.005   4.440  19.255  0.00  0.00    +0.000 A 
ATOM      6  C   UNL     1       2.296   5.776  19.533  0.00  0.00    +0.000 A 
ATOM      7  C   UNL     1       3.348   6.401  18.822  0.00  0.00    +0.000 A 
ATOM      8  C   UNL     1       4.102   5.736  17.844  0.00  0.00    +0.000 A 
ATOM      9  C   UNL     1       5.228   6.078  17.036  0.00  0.00    +0.000 A 
ATOM     10  H   UNL     1       4.546   3.115  16.072  0.00  0.00    +0.000 HD
ENDROOT
BRANCH   9  11
ATOM     11  N   UNL     1       5.975   7.251  17.031  0.00  0.00    +0.000 N 
ATOM     12  C   UNL     1       7.151   7.358  17.754  0.00  0.00    +0.000 C 
ATOM     13  O   UNL     1       7.639   6.492  18.469  0.00  0.00    +0.000 OA
ATOM     14  H   UNL     1       5.963   7.768  16.158  0.00  0.00    +0.000 HD
BRANCH  12  15
ATOM     15  C   UNL     1       7.859   8.683  17.539  0.00  0.00    +0.000 C 
BRANCH  15  16
ATOM     16  C   UNL     1       8.751   9.013  18.742  0.00  0.00    +0.000 C 
BRANCH  16  17
ATOM     17  N   UNL     1       8.935  10.467  18.980  0.00  0.00    +0.000 NA
ATOM     18  C   UNL     1       9.869  11.011  17.964  0.00  0.00    +0.000 C 
ATOM     19  C   UNL     1      10.067  12.533  18.027  0.00  0.00    +0.000 C 
ATOM     20  S   UNL     1      10.772  13.075  19.609  0.00  0.00    +0.000 S 
ATOM     21  C   UNL     1       9.592  12.217  20.688  0.00  0.00    +0.000 C 
ATOM     22  C   UNL     1       9.461  10.727  20.341  0.00  0.00    +0.000 C 
ENDBRANCH  16  17
ENDBRANCH  15  16
ENDBRANCH  12  15
ENDBRANCH   9  11
BRANCH   1  23
ATOM     23  C   UNL     1       6.572   4.751  15.298  0.00  0.00    +0.000 C 
ATOM     24  O   UNL     1       7.741   4.588  15.627  0.00  0.00    +0.000 OA
BRANCH  23  25
ATOM     25  O   UNL     1       6.137   4.863  14.008  0.00  0.00    +0.000 OA
BRANCH  25  27
ATOM     26  C   UNL     1       5.386   3.302  12.327  0.00  0.00    +0.000 C 
ATOM     27  C   UNL     1       6.570   3.814  13.130  0.00  0.00    +0.000 C 
ENDBRANCH  25  27
ENDBRANCH  23  25
ENDBRANCH   1  23
BRANCH   5  28
ATOM     28  O   UNL     1       1.235   3.575  19.997  0.00  0.00    +0.000 OA
ATOM     29  C   UNL     1       1.735   3.130  21.246  0.00  0.00    +0.000 C 
ENDBRANCH   5  28
BRANCH   6  30
ATOM     30  O   UNL     1       1.830   6.676  20.442  0.00  0.00    +0.000 OA
ATOM     31  C   UNL     1       1.747   8.062  20.237  0.00  0.00    +0.000 C 
ENDBRANCH   6  30
TORSDOF 9
ENDMDL
MODEL 5
REMARK VINA RESULT:      -7.6      1.171      1.420
REMARK  Name = 
REMARK  12 active torsions:
REMARK  status: ('A' for Active; 'I' for Inactive)
REMARK    1  A    between atoms: C_1  and  C_2
REMARK    2  A    between atoms: C_2  and  O_3
REMARK    3  A    between atoms: O_3  and  C_4
REMARK    4  A    between atoms: C_4  and  C_6
REMARK    5  A    between atoms: C_10  and  O_11
REMARK    6  A    between atoms: O_11  and  C_12
REMARK    7  A    between atoms: C_13  and  O_14
REMARK    8  A    between atoms: O_14  and  C_15
REMARK    9  A    between atoms: C_18  and  N_19
REMARK   10  A    between atoms: C_20  and  C_22
REMARK   11  A    between atoms: C_22  and  C_23
REMARK   12  A    between atoms: C_23  and  N_24
REMARK                            x       y       z     vdW  Elec       q    Type
REMARK                         _______ _______ _______ _____ _____    ______ ____
ROOT
ATOM      1  C   UNL     1       2.802   4.199  18.190  0.00  0.00    +0.000 A 
ATOM      2  N   UNL     1       3.610   3.543  17.278  0.00  0.00    +0.000 N 
ATOM      3  C   UNL     1       4.689   4.319  16.923  0.00  0.00    +0.000 A 
ATOM      4  C   UNL     1       5.706   4.121  15.971  0.00  0.00    +0.000 A 
ATOM      5  C   UNL     1       6.721   5.106  15.819  0.00  0.00    +0.000 A 
ATOM      6  C   UNL     1       6.724   6.233  16.642  0.00  0.00    +0.000 A 
ATOM      7  C   UNL     1       5.664   6.399  17.565  0.00  0.00    +0.000 A 
ATOM      8  C   UNL     1       4.618   5.472  17.693  0.00  0.00    +0.000 A 
ATOM      9  C   UNL     1       3.419   5.409  18.465  0.00  0.00    +0.000 A 
ATOM     10  H   UNL     1       3.374   2.649  16.868  0.00  0.00    +0.000 HD
ENDROOT
BRANCH   9  11
ATOM     11  N   UNL     1       2.896   6.351  19.344  0.00  0.00    +0.000 N 
ATOM     12  C   UNL     1       2.255   7.488  18.882  0.00  0.00    +0.000 C 
ATOM     13  O   UNL     1       2.102   7.803  17.709  0.00  0.00    +0.000 OA
ATOM     14  H   UNL     1       2.524   5.974  20.210  0.00  0.00    +0.000 HD
BRANCH  12  15
ATOM     15  C   UNL     1       1.676   8.336  20.000  0.00  0.00    +0.000 C 
BRANCH  15  16
ATOM     16  C   UNL     1       1.349   9.743  19.487  0.00  0.00    +0.000 C 
BRANCH  16  17
ATOM     17  N   UNL     1      -0.093  10.093  19.552  0.00  0.00    +0.000 NA
ATOM     18  C   UNL     1      -0.661  10.070  18.181  0.00  0.00    +0.000 C 
ATOM     19  C   UNL     1      -2.176  10.310  18.112  0.00  0.00    +0.000 C 
ATOM     20  S   UNL     1      -2.650  11.939  18.758  0.00  0.00    +0.000 S 
ATOM     21  C   UNL     1      -1.770  11.818  20.341  0.00  0.00    +0.000 C 
ATOM     22  C   UNL     1      -0.296  11.429  20.161  0.00  0.00    +0.000 C 
ENDBRANCH  16  17
ENDBRANCH  15  16
ENDBRANCH  12  15
ENDBRANCH   9  11
BRANCH   1  23
ATOM     23  C   UNL     1       1.533   3.672  18.583  0.00  0.00    +0.000 C 
ATOM     24  O   UNL     1       0.816   2.979  17.870  0.00  0.00    +0.000 OA
BRANCH  23  25
ATOM     25  O   UNL     1       1.170   4.167  19.803  0.00  0.00    +0.000 OA
BRANCH  25  27
ATOM     26  C   UNL     1       2.292   3.439  21.813  0.00  0.00    +0.000 C 
ATOM     27  C   UNL     1       1.131   3.199  20.861  0.00  0.00    +0.000 C 
ENDBRANCH  25  27
ENDBRANCH  23  25
ENDBRANCH   1  23
BRANCH   5  28
ATOM     28  O   UNL     1       7.475   4.888  14.690  0.00  0.00    +0.000 OA
ATOM     29  C   UNL     1       6.868   4.233  13.590  0.00  0.00    +0.000 C 
ENDBRANCH   5  28
BRANCH   6  30
ATOM     30  O   UNL     1       7.517   7.336  16.732  0.00  0.00    +0.000 OA
ATOM     31  C   UNL     1       7.883   7.970  17.929  0.00  0.00    +0.000 C 
ENDBRANCH   6  30
TORSDOF 9
ENDMDL
MODEL 6
REMARK VINA RESULT:      -7.5      1.095      1.252
REMARK  Name = 
REMARK  12 active torsions:
REMARK  status: ('A' for Active; 'I' for Inactive)
REMARK    1  A    between atoms: C_1  and  C_2
REMARK    2  A    between atoms: C_2  and  O_3
REMARK    3  A    between atoms: O_3  and  C_4
REMARK    4  A    between atoms: C_4  and  C_6
REMARK    5  A    between atoms: C_10  and  O_11
REMARK    6  A    between atoms: O_11  and  C_12
REMARK    7  A    between atoms: C_13  and  O_14
REMARK    8  A    between atoms: O_14  and  C_15
REMARK    9  A    between atoms: C_18  and  N_19
REMARK   10  A    between atoms: C_20  and  C_22
REMARK   11  A    between atoms: C_22  and  C_23
REMARK   12  A    between atoms: C_23  and  N_24
REMARK                            x       y       z     vdW  Elec       q    Type
REMARK                         _______ _______ _______ _____ _____    ______ ____
ROOT
ATOM      1  C   UNL     1       3.705   3.579  18.448  0.00  0.00    +0.000 A 
ATOM      2  N   UNL     1       4.568   3.146  17.457  0.00  0.00    +0.000 N 
ATOM      3  C   UNL     1       5.412   4.155  17.058  0.00  0.00    +0.000 A 
ATOM      4  C   UNL     1       6.371   4.215  16.030  0.00  0.00    +0.000 A 
ATOM      5  C   UNL     1       7.122   5.410  15.845  0.00  0.00    +0.000 A 
ATOM      6  C   UNL     1       6.932   6.490  16.709  0.00  0.00    +0.000 A 
ATOM      7  C   UNL     1       5.936   6.388  17.709  0.00  0.00    +0.000 A 
ATOM      8  C   UNL     1       5.141   5.245  17.874  0.00  0.00    +0.000 A 
ATOM      9  C   UNL     1       4.050   4.892  18.725  0.00  0.00    +0.000 A 
ATOM     10  H   UNL     1       4.510   2.230  17.030  0.00  0.00    +0.000 HD
ENDROOT
BRANCH   9  11
ATOM     11  N   UNL     1       3.396   5.670  19.674  0.00  0.00    +0.000 N 
ATOM     12  C   UNL     1       2.490   6.648  19.301  0.00  0.00    +0.000 C 
ATOM     13  O   UNL     1       2.188   6.952  18.154  0.00  0.00    +0.000 OA
ATOM     14  H   UNL     1       3.178   5.197  20.545  0.00  0.00    +0.000 HD
BRANCH  12  15
ATOM     15  C   UNL     1       1.818   7.316  20.487  0.00  0.00    +0.000 C 
BRANCH  15  16
ATOM     16  C   UNL     1       1.860   8.840  20.336  0.00  0.00    +0.000 C 
BRANCH  16  17
ATOM     17  N   UNL     1       0.524   9.489  20.353  0.00  0.00    +0.000 NA
ATOM     18  C   UNL     1       0.248  10.068  19.015  0.00  0.00    +0.000 C 
ATOM     19  C   UNL     1      -1.152  10.679  18.859  0.00  0.00    +0.000 C 
ATOM     20  S   UNL     1      -1.437  12.059  20.004  0.00  0.00    +0.000 S 
ATOM     21  C   UNL     1      -0.929  11.203  21.520  0.00  0.00    +0.000 C 
ATOM     22  C   UNL     1       0.453  10.549  21.386  0.00  0.00    +0.000 C 
ENDBRANCH  16  17
ENDBRANCH  15  16
ENDBRANCH  12  15
ENDBRANCH   9  11
BRANCH   1  23
ATOM     23  C   UNL     1       2.622   2.767  18.907  0.00  0.00    +0.000 C 
ATOM     24  O   UNL     1       2.563   1.549  18.784  0.00  0.00    +0.000 OA
BRANCH  23  25
ATOM     25  O   UNL     1       1.603   3.551  19.369  0.00  0.00    +0.000 OA
BRANCH  25  27
ATOM     26  C   UNL     1       1.940   3.197  21.733  0.00  0.00    +0.000 C 
ATOM     27  C   UNL     1       0.972   3.079  20.567  0.00  0.00    +0.000 C 
ENDBRANCH  25  27
ENDBRANCH  23  25
ENDBRANCH   1  23
BRANCH   5  28
ATOM     28  O   UNL     1       7.817   5.395  14.659  0.00  0.00    +0.000 OA
ATOM     29  C   UNL     1       7.209   4.795  13.529  0.00  0.00    +0.000 C 
ENDBRANCH   5  28
BRANCH   6  30
ATOM     30  O   UNL     1       7.459   7.743  16.786  0.00  0.00    +0.000 OA
ATOM     31  C   UNL     1       8.000   8.321  17.945  0.00  0.00    +0.000 C 
ENDBRANCH   6  30
TORSDOF 9
ENDMDL
MODEL 7
REMARK VINA RESULT:      -7.4      1.543      1.783
REMARK  Name = 
REMARK  12 active torsions:
REMARK  status: ('A' for Active; 'I' for Inactive)
REMARK    1  A    between atoms: C_1  and  C_2
REMARK    2  A    between atoms: C_2  and  O_3
REMARK    3  A    between atoms: O_3  and  C_4
REMARK    4  A    between atoms: C_4  and  C_6
REMARK    5  A    between atoms: C_10  and  O_11
REMARK    6  A    between atoms: O_11  and  C_12
REMARK    7  A    between atoms: C_13  and  O_14
REMARK    8  A    between atoms: O_14  and  C_15
REMARK    9  A    between atoms: C_18  and  N_19
REMARK   10  A    between atoms: C_20  and  C_22
REMARK   11  A    between atoms: C_22  and  C_23
REMARK   12  A    between atoms: C_23  and  N_24
REMARK                            x       y       z     vdW  Elec       q    Type
REMARK                         _______ _______ _______ _____ _____    ______ ____
ROOT
ATOM      1  C   UNL     1       2.796   4.574  18.430  0.00  0.00    +0.000 A 
ATOM      2  N   UNL     1       3.697   3.872  17.649  0.00  0.00    +0.000 N 
ATOM      3  C   UNL     1       4.739   4.676  17.250  0.00  0.00    +0.000 A 
ATOM      4  C   UNL     1       5.820   4.437  16.381  0.00  0.00    +0.000 A 
ATOM      5  C   UNL     1       6.773   5.469  16.153  0.00  0.00    +0.000 A 
ATOM      6  C   UNL     1       6.652   6.687  16.824  0.00  0.00    +0.000 A 
ATOM      7  C   UNL     1       5.533   6.886  17.666  0.00  0.00    +0.000 A 
ATOM      8  C   UNL     1       4.547   5.907  17.862  0.00  0.00    +0.000 A 
ATOM      9  C   UNL     1       3.313   5.851  18.578  0.00  0.00    +0.000 A 
ATOM     10  H   UNL     1       3.546   2.918  17.346  0.00  0.00    +0.000 HD
ENDROOT
BRANCH   9  11
ATOM     11  N   UNL     1       2.677   6.853  19.303  0.00  0.00    +0.000 N 
ATOM     12  C   UNL     1       2.166   7.978  18.680  0.00  0.00    +0.000 C 
ATOM     13  O   UNL     1       2.229   8.232  17.483  0.00  0.00    +0.000 OA
ATOM     14  H   UNL     1       2.149   6.535  20.108  0.00  0.00    +0.000 HD
BRANCH  12  15
ATOM     15  C   UNL     1       1.431   8.901  19.634  0.00  0.00    +0.000 C 
BRANCH  15  16
ATOM     16  C   UNL     1       0.565   9.896  18.853  0.00  0.00    +0.000 C 
BRANCH  16  17
ATOM     17  N   UNL     1       0.617  11.286  19.375  0.00  0.00    +0.000 NA
ATOM     18  C   UNL     1      -0.666  11.967  19.072  0.00  0.00    +0.000 C 
ATOM     19  C   UNL     1      -0.791  13.383  19.652  0.00  0.00    +0.000 C 
ATOM     20  S   UNL     1       0.472  14.513  19.000  0.00  0.00    +0.000 S 
ATOM     21  C   UNL     1       1.912  13.462  19.339  0.00  0.00    +0.000 C 
ATOM     22  C   UNL     1       1.744  12.043  18.778  0.00  0.00    +0.000 C 
ENDBRANCH  16  17
ENDBRANCH  15  16
ENDBRANCH  12  15
ENDBRANCH   9  11
BRANCH   1  23
ATOM     23  C   UNL     1       1.546   4.006  18.826  0.00  0.00    +0.000 C 
ATOM     24  O   UNL     1       0.836   3.314  18.105  0.00  0.00    +0.000 OA
BRANCH  23  25
ATOM     25  O   UNL     1       1.187   4.461  20.063  0.00  0.00    +0.000 OA
BRANCH  25  27
ATOM     26  C   UNL     1       1.431   2.586  21.562  0.00  0.00    +0.000 C 
ATOM     27  C   UNL     1       1.970   3.945  21.148  0.00  0.00    +0.000 C 
ENDBRANCH  25  27
ENDBRANCH  23  25
ENDBRANCH   1  23
BRANCH   5  28
ATOM     28  O   UNL     1       7.603   5.170  15.098  0.00  0.00    +0.000 OA
ATOM     29  C   UNL     1       7.030   4.624  13.923  0.00  0.00    +0.000 C 
ENDBRANCH   5  28
BRANCH   6  30
ATOM     30  O   UNL     1       7.362   7.848  16.811  0.00  0.00    +0.000 OA
ATOM     31  C   UNL     1       8.077   8.370  17.900  0.00  0.00    +0.000 C 
ENDBRANCH   6  30
TORSDOF 9
ENDMDL
MODEL 8
REMARK VINA RESULT:      -7.4      0.942      1.161
REMARK  Name = 
REMARK  12 active torsions:
REMARK  status: ('A' for Active; 'I' for Inactive)
REMARK    1  A    between atoms: C_1  and  C_2
REMARK    2  A    between atoms: C_2  and  O_3
REMARK    3  A    between atoms: O_3  and  C_4
REMARK    4  A    between atoms: C_4  and  C_6
REMARK    5  A    between atoms: C_10  and  O_11
REMARK    6  A    between atoms: O_11  and  C_12
REMARK    7  A    between atoms: C_13  and  O_14
REMARK    8  A    between atoms: O_14  and  C_15
REMARK    9  A    between atoms: C_18  and  N_19
REMARK   10  A    between atoms: C_20  and  C_22
REMARK   11  A    between atoms: C_22  and  C_23
REMARK   12  A    between atoms: C_23  and  N_24
REMARK                            x       y       z     vdW  Elec       q    Type
REMARK                         _______ _______ _______ _____ _____    ______ ____
ROOT
ATOM      1  C   UNL     1       2.739   4.559  18.258  0.00  0.00    +0.000 A 
ATOM      2  N   UNL     1       3.662   3.798  17.562  0.00  0.00    +0.000 N 
ATOM      3  C   UNL     1       4.752   4.554  17.196  0.00  0.00    +0.000 A 
ATOM      4  C   UNL     1       5.874   4.247  16.406  0.00  0.00    +0.000 A 
ATOM      5  C   UNL     1       6.872   5.239  16.195  0.00  0.00    +0.000 A 
ATOM      6  C   UNL     1       6.750   6.487  16.809  0.00  0.00    +0.000 A 
ATOM      7  C   UNL     1       5.589   6.754  17.572  0.00  0.00    +0.000 A 
ATOM      8  C   UNL     1       4.562   5.814  17.745  0.00  0.00    +0.000 A 
ATOM      9  C   UNL     1       3.287   5.825  18.385  0.00  0.00    +0.000 A 
ATOM     10  H   UNL     1       3.499   2.838  17.288  0.00  0.00    +0.000 HD
ENDROOT
BRANCH   9  11
ATOM     11  N   UNL     1       2.641   6.875  19.030  0.00  0.00    +0.000 N 
ATOM     12  C   UNL     1       2.283   8.026  18.348  0.00  0.00    +0.000 C 
ATOM     13  O   UNL     1       2.501   8.262  17.167  0.00  0.00    +0.000 OA
ATOM     14  H   UNL     1       2.002   6.601  19.768  0.00  0.00    +0.000 HD
BRANCH  12  15
ATOM     15  C   UNL     1       1.507   9.006  19.209  0.00  0.00    +0.000 C 
BRANCH  15  16
ATOM     16  C   UNL     1       1.301  10.327  18.459  0.00  0.00    +0.000 C 
BRANCH  16  17
ATOM     17  N   UNL     1       0.505  11.332  19.209  0.00  0.00    +0.000 NA
ATOM     18  C   UNL     1       1.429  12.254  19.916  0.00  0.00    +0.000 C 
ATOM     19  C   UNL     1       0.738  13.414  20.647  0.00  0.00    +0.000 C 
ATOM     20  S   UNL     1      -0.391  12.840  21.947  0.00  0.00    +0.000 S 
ATOM     21  C   UNL     1      -1.322  11.659  20.931  0.00  0.00    +0.000 C 
ATOM     22  C   UNL     1      -0.404  10.682  20.183  0.00  0.00    +0.000 C 
ENDBRANCH  16  17
ENDBRANCH  15  16
ENDBRANCH  12  15
ENDBRANCH   9  11
BRANCH   1  23
ATOM     23  C   UNL     1       1.449   4.046  18.598  0.00  0.00    +0.000 C 
ATOM     24  O   UNL     1       0.663   3.551  17.798  0.00  0.00    +0.000 OA
BRANCH  23  25
ATOM     25  O   UNL     1       1.159   4.315  19.905  0.00  0.00    +0.000 OA
BRANCH  25  27
ATOM     26  C   UNL     1       2.283   3.057  21.632  0.00  0.00    +0.000 C 
ATOM     27  C   UNL     1       1.049   3.162  20.751  0.00  0.00    +0.000 C 
ENDBRANCH  25  27
ENDBRANCH  23  25
ENDBRANCH   1  23
BRANCH   5  28
ATOM     28  O   UNL     1       7.754   4.871  15.207  0.00  0.00    +0.000 OA
ATOM     29  C   UNL     1       7.316   4.918  13.860  0.00  0.00    +0.000 C 
ENDBRANCH   5  28
BRANCH   6  30
ATOM     30  O   UNL     1       7.497   7.625  16.793  0.00  0.00    +0.000 OA
ATOM     31  C   UNL     1       8.038   8.251  17.926  0.00  0.00    +0.000 C 
ENDBRANCH   6  30
TORSDOF 9
ENDMDL
MODEL 9
REMARK VINA RESULT:      -7.3      1.229      1.622
REMARK  Name = 
REMARK  12 active torsions:
REMARK  status: ('A' for Active; 'I' for Inactive)
REMARK    1  A    between atoms: C_1  and  C_2
REMARK    2  A    between atoms: C_2  and  O_3
REMARK    3  A    between atoms: O_3  and  C_4
REMARK    4  A    between atoms: C_4  and  C_6
REMARK    5  A    between atoms: C_10  and  O_11
REMARK    6  A    between atoms: O_11  and  C_12
REMARK    7  A    between atoms: C_13  and  O_14
REMARK    8  A    between atoms: O_14  and  C_15
REMARK    9  A    between atoms: C_18  and  N_19
REMARK   10  A    between atoms: C_20  and  C_22
REMARK   11  A    between atoms: C_22  and  C_23
REMARK   12  A    between atoms: C_23  and  N_24
REMARK                            x       y       z     vdW  Elec       q    Type
REMARK                         _______ _______ _______ _____ _____    ______ ____
ROOT
ATOM      1  C   UNL     1       3.282   4.013  18.416  0.00  0.00    +0.000 A 
ATOM      2  N   UNL     1       4.101   3.454  17.450  0.00  0.00    +0.000 N 
ATOM      3  C   UNL     1       5.083   4.335  17.062  0.00  0.00    +0.000 A 
ATOM      4  C   UNL     1       6.065   4.252  16.058  0.00  0.00    +0.000 A 
ATOM      5  C   UNL     1       6.974   5.332  15.879  0.00  0.00    +0.000 A 
ATOM      6  C   UNL     1       6.913   6.439  16.727  0.00  0.00    +0.000 A 
ATOM      7  C   UNL     1       5.890   6.486  17.704  0.00  0.00    +0.000 A 
ATOM      8  C   UNL     1       4.943   5.462  17.861  0.00  0.00    +0.000 A 
ATOM      9  C   UNL     1       3.796   5.271  18.688  0.00  0.00    +0.000 A 
ATOM     10  H   UNL     1       3.930   2.549  17.031  0.00  0.00    +0.000 HD
ENDROOT
BRANCH   9  11
ATOM     11  N   UNL     1       3.231   6.142  19.613  0.00  0.00    +0.000 N 
ATOM     12  C   UNL     1       2.414   7.185  19.213  0.00  0.00    +0.000 C 
ATOM     13  O   UNL     1       2.123   7.472  18.058  0.00  0.00    +0.000 OA
ATOM     14  H   UNL     1       2.985   5.726  20.505  0.00  0.00    +0.000 HD
BRANCH  12  15
ATOM     15  C   UNL     1       1.826   7.958  20.379  0.00  0.00    +0.000 C 
BRANCH  15  16
ATOM     16  C   UNL     1       0.750   8.932  19.886  0.00  0.00    +0.000 C 
BRANCH  16  17
ATOM     17  N   UNL     1       1.086  10.364  20.094  0.00  0.00    +0.000 NA
ATOM     18  C   UNL     1      -0.010  11.014  20.854  0.00  0.00    +0.000 C 
ATOM     19  C   UNL     1       0.257  12.478  21.235  0.00  0.00    +0.000 C 
ATOM     20  S   UNL     1       0.478  13.543  19.782  0.00  0.00    +0.000 S 
ATOM     21  C   UNL     1       1.728  12.527  18.946  0.00  0.00    +0.000 C 
ATOM     22  C   UNL     1       1.290  11.063  18.803  0.00  0.00    +0.000 C 
ENDBRANCH  16  17
ENDBRANCH  15  16
ENDBRANCH  12  15
ENDBRANCH   9  11
BRANCH   1  23
ATOM     23  C   UNL     1       2.089   3.361  18.856  0.00  0.00    +0.000 C 
ATOM     24  O   UNL     1       0.956   3.798  18.694  0.00  0.00    +0.000 OA
BRANCH  23  25
ATOM     25  O   UNL     1       2.398   2.262  19.606  0.00  0.00    +0.000 OA
BRANCH  25  27
ATOM     26  C   UNL     1       1.787   2.846  21.867  0.00  0.00    +0.000 C 
ATOM     27  C   UNL     1       2.928   2.547  20.908  0.00  0.00    +0.000 C 
ENDBRANCH  25  27
ENDBRANCH  23  25
ENDBRANCH   1  23
BRANCH   5  28
ATOM     28  O   UNL     1       7.688   5.207  14.711  0.00  0.00    +0.000 OA
ATOM     29  C   UNL     1       7.035   4.664  13.576  0.00  0.00    +0.000 C 
ENDBRANCH   5  28
BRANCH   6  30
ATOM     30  O   UNL     1       7.603   7.610  16.805  0.00  0.00    +0.000 OA
ATOM     31  C   UNL     1       8.007   8.231  17.996  0.00  0.00    +0.000 C 
ENDBRANCH   6  30
TORSDOF 9
ENDMDL
