MODEL 1
REMARK VINA RESULT:      -7.5      0.000      0.000
REMARK  Name = 
REMARK  6 active torsions:
REMARK  status: ('A' for Active; 'I' for Inactive)
REMARK    1  A    between atoms: C_1  and  N_2
REMARK    2  A    between atoms: N_2  and  C_3
REMARK    3  A    between atoms: C_4  and  C_6
REMARK    4  A    between atoms: N_13  and  C_14
REMARK    5  A    between atoms: C_14  and  C_15
REMARK    6  A    between atoms: C_15  and  C_16
REMARK                            x       y       z     vdW  Elec       q    Type
REMARK                         _______ _______ _______ _____ _____    ______ ____
ROOT
ATOM      1  C   UNL     1       4.925   4.295  18.337  0.00  0.00    +0.000 C 
ATOM      2  C   UNL     1       4.182   3.513  17.249  0.00  0.00    +0.000 C 
ATOM      3  C   UNL     1       3.630   2.228  17.834  0.00  0.00    +0.000 C 
ATOM      4  O   UNL     1       2.827   2.470  18.981  0.00  0.00    +0.000 OA
ATOM      5  C   UNL     1       3.484   3.195  20.029  0.00  0.00    +0.000 C 
ATOM      6  C   UNL     1       2.500   3.338  21.183  0.00  0.00    +0.000 C 
ATOM      7  C   UNL     1       1.278   4.119  20.728  0.00  0.00    +0.000 C 
ATOM      8  N   UNL     1       1.625   5.430  20.205  0.00  0.00    +0.000 NA
ATOM      9  C   UNL     1       2.746   5.505  19.263  0.00  0.00    +0.000 C 
ATOM     10  C   UNL     1       3.965   4.577  19.541  0.00  0.00    +0.000 C 
ENDROOT
BRANCH   1  14
ATOM     11  C   UNL     1       7.434   7.132  17.515  0.00  0.00    +0.000 C 
ATOM     12  N   UNL     1       6.845   5.951  18.146  0.00  0.00    +0.000 N 
ATOM     13  C   UNL     1       7.374   5.615  19.459  0.00  0.00    +0.000 C 
ATOM     14  C   UNL     1       5.627   5.470  17.652  0.00  0.00    +0.000 C 
ATOM     15  O   UNL     1       5.118   5.979  16.649  0.00  0.00    +0.000 OA
ENDBRANCH   1  14
BRANCH   8  16
ATOM     16  C   UNL     1       1.283   6.543  21.082  0.00  0.00    +0.000 C 
BRANCH  16  17
ATOM     17  C   UNL     1       1.566   7.965  20.567  0.00  0.00    +0.000 C 
BRANCH  17  18
ATOM     18  C   UNL     1       0.705   9.078  21.121  0.00  0.00    +0.000 A 
ATOM     19  C   UNL     1       0.205  10.106  20.311  0.00  0.00    +0.000 A 
ATOM     20  C   UNL     1      -0.578  11.125  20.861  0.00  0.00    +0.000 A 
ATOM     21  C   UNL     1      -0.877  11.121  22.222  0.00  0.00    +0.000 A 
ATOM     22  C   UNL     1      -0.409  10.090  23.031  0.00  0.00    +0.000 A 
ATOM     23  C   UNL     1       0.369   9.071  22.483  0.00  0.00    +0.000 A 
ENDBRANCH  17  18
ENDBRANCH  16  17
ENDBRANCH   8  16
TORSDOF 4
ENDMDL
MODEL 2
REMARK VINA RESULT:      -7.5      0.202      1.023
REMARK  Name = 
REMARK  6 active torsions:
REMARK  status: ('A' for Active; 'I' for Inactive)
REMARK    1  A    between atoms: C_1  and  N_2
REMARK    2  A    between atoms: N_2  and  C_3
REMARK    3  A    between atoms: C_4  and  C_6
REMARK    4  A    between atoms: N_13  and  C_14
REMARK    5  A    between atoms: C_14  and  C_15
REMARK    6  A    between atoms: C_15  and  C_16
REMARK                            x       y       z     vdW  Elec       q    Type
REMARK                         _______ _______ _______ _____ _____    ______ ____
ROOT
ATOM      1  C   UNL     1       4.909   4.516  18.311  0.00  0.00    +0.000 C 
ATOM      2  C   UNL     1       4.176   3.782  17.182  0.00  0.00    +0.000 C 
ATOM      3  C   UNL     1       3.626   2.468  17.702  0.00  0.00    +0.000 C 
ATOM      4  O   UNL     1       2.815   2.652  18.853  0.00  0.00    +0.000 OA
ATOM      5  C   UNL     1       3.461   3.331  19.939  0.00  0.00    +0.000 C 
ATOM      6  C   UNL     1       2.469   3.415  21.092  0.00  0.00    +0.000 C 
ATOM      7  C   UNL     1       1.246   4.210  20.665  0.00  0.00    +0.000 C 
ATOM      8  N   UNL     1       1.590   5.546  20.208  0.00  0.00    +0.000 NA
ATOM      9  C   UNL     1       2.717   5.670  19.277  0.00  0.00    +0.000 C 
ATOM     10  C   UNL     1       3.939   4.736  19.520  0.00  0.00    +0.000 C 
ENDROOT
BRANCH   1  14
ATOM     11  C   UNL     1       7.483   7.310  17.552  0.00  0.00    +0.000 C 
ATOM     12  N   UNL     1       6.890   6.095  18.111  0.00  0.00    +0.000 N 
ATOM     13  C   UNL     1       7.515   5.597  19.327  0.00  0.00    +0.000 C 
ATOM     14  C   UNL     1       5.609   5.725  17.688  0.00  0.00    +0.000 C 
ATOM     15  O   UNL     1       5.041   6.360  16.794  0.00  0.00    +0.000 OA
ENDBRANCH   1  14
BRANCH   8  16
ATOM     16  C   UNL     1       1.236   6.614  21.134  0.00  0.00    +0.000 C 
BRANCH  16  17
ATOM     17  C   UNL     1       1.564   8.058  20.710  0.00  0.00    +0.000 C 
BRANCH  17  18
ATOM     18  C   UNL     1       0.662   9.148  21.243  0.00  0.00    +0.000 A 
ATOM     19  C   UNL     1       0.367   9.270  22.607  0.00  0.00    +0.000 A 
ATOM     20  C   UNL     1      -0.481  10.283  23.062  0.00  0.00    +0.000 A 
ATOM     21  C   UNL     1      -1.032  11.192  22.161  0.00  0.00    +0.000 A 
ATOM     22  C   UNL     1      -0.724  11.098  20.807  0.00  0.00    +0.000 A 
ATOM     23  C   UNL     1       0.124  10.089  20.352  0.00  0.00    +0.000 A 
ENDBRANCH  17  18
ENDBRANCH  16  17
ENDBRANCH   8  16
TORSDOF 4
ENDMDL
MODEL 3
REMARK VINA RESULT:      -7.4      2.637      6.618
REMARK  Name = 
REMARK  6 active torsions:
REMARK  status: ('A' for Active; 'I' for Inactive)
REMARK    1  A    between atoms: C_1  and  N_2
REMARK    2  A    between atoms: N_2  and  C_3
REMARK    3  A    between atoms: C_4  and  C_6
REMARK    4  A    between atoms: N_13  and  C_14
REMARK    5  A    between atoms: C_14  and  C_15
REMARK    6  A    between atoms: C_15  and  C_16
REMARK                            x       y       z     vdW  Elec       q    Type
REMARK                         _______ _______ _______ _____ _____    ______ ____
ROOT
ATOM      1  C   UNL     1       3.169   5.494  18.211  0.00  0.00    +0.000 C 
ATOM      2  C   UNL     1       3.190   3.997  18.540  0.00  0.00    +0.000 C 
ATOM      3  C   UNL     1       3.621   3.214  17.315  0.00  0.00    +0.000 C 
ATOM      4  O   UNL     1       4.859   3.679  16.797  0.00  0.00    +0.000 OA
ATOM      5  C   UNL     1       4.884   5.075  16.469  0.00  0.00    +0.000 C 
ATOM      6  C   UNL     1       6.261   5.396  15.904  0.00  0.00    +0.000 C 
ATOM      7  C   UNL     1       7.329   5.110  16.948  0.00  0.00    +0.000 C 
ATOM      8  N   UNL     1       7.111   5.856  18.177  0.00  0.00    +0.000 NA
ATOM      9  C   UNL     1       5.751   5.867  18.725  0.00  0.00    +0.000 C 
ATOM     10  C   UNL     1       4.578   5.949  17.704  0.00  0.00    +0.000 C 
ENDROOT
BRANCH   1  14
ATOM     11  C   UNL     1       1.548   8.199  20.463  0.00  0.00    +0.000 C 
ATOM     12  N   UNL     1       2.058   7.520  19.272  0.00  0.00    +0.000 N 
ATOM     13  C   UNL     1       2.375   8.385  18.146  0.00  0.00    +0.000 C 
ATOM     14  C   UNL     1       2.539   6.213  19.406  0.00  0.00    +0.000 C 
ATOM     15  O   UNL     1       2.444   5.622  20.487  0.00  0.00    +0.000 OA
ENDBRANCH   1  14
BRANCH   8  16
ATOM     16  C   UNL     1       8.034   6.964  18.386  0.00  0.00    +0.000 C 
BRANCH  16  17
ATOM     17  C   UNL     1       7.732   8.285  17.655  0.00  0.00    +0.000 C 
BRANCH  17  18
ATOM     18  C   UNL     1       8.397   9.532  18.194  0.00  0.00    +0.000 A 
ATOM     19  C   UNL     1       9.118   9.531  19.396  0.00  0.00    +0.000 A 
ATOM     20  C   UNL     1       9.708  10.705  19.870  0.00  0.00    +0.000 A 
ATOM     21  C   UNL     1       9.594  11.889  19.143  0.00  0.00    +0.000 A 
ATOM     22  C   UNL     1       8.904  11.896  17.934  0.00  0.00    +0.000 A 
ATOM     23  C   UNL     1       8.317  10.724  17.459  0.00  0.00    +0.000 A 
ENDBRANCH  17  18
ENDBRANCH  16  17
ENDBRANCH   8  16
TORSDOF 4
ENDMDL
MODEL 4
REMARK VINA RESULT:      -7.3      2.627      6.504
REMARK  Name = 
REMARK  6 active torsions:
REMARK  status: ('A' for Active; 'I' for Inactive)
REMARK    1  A    between atoms: C_1  and  N_2
REMARK    2  A    between atoms: N_2  and  C_3
REMARK    3  A    between atoms: C_4  and  C_6
REMARK    4  A    between atoms: N_13  and  C_14
REMARK    5  A    between atoms: C_14  and  C_15
REMARK    6  A    between atoms: C_15  and  C_16
REMARK                            x       y       z     vdW  Elec       q    Type
REMARK                         _______ _______ _______ _____ _____    ______ ____
ROOT
ATOM      1  C   UNL     1       3.078   5.533  18.205  0.00  0.00    +0.000 C 
ATOM      2  C   UNL     1       3.072   4.063  18.641  0.00  0.00    +0.000 C 
ATOM      3  C   UNL     1       3.494   3.186  17.478  0.00  0.00    +0.000 C 
ATOM      4  O   UNL     1       4.742   3.592  16.934  0.00  0.00    +0.000 OA
ATOM      5  C   UNL     1       4.793   4.960  16.507  0.00  0.00    +0.000 C 
ATOM      6  C   UNL     1       6.178   5.215  15.927  0.00  0.00    +0.000 C 
ATOM      7  C   UNL     1       7.236   4.987  16.994  0.00  0.00    +0.000 C 
ATOM      8  N   UNL     1       7.026   5.823  18.165  0.00  0.00    +0.000 NA
ATOM      9  C   UNL     1       5.665   5.896  18.705  0.00  0.00    +0.000 C 
ATOM     10  C   UNL     1       4.498   5.925  17.674  0.00  0.00    +0.000 C 
ENDROOT
BRANCH   1  14
ATOM     11  C   UNL     1       1.550   8.436  20.266  0.00  0.00    +0.000 C 
ATOM     12  N   UNL     1       2.055   7.669  19.128  0.00  0.00    +0.000 N 
ATOM     13  C   UNL     1       2.451   8.456  17.970  0.00  0.00    +0.000 C 
ATOM     14  C   UNL     1       2.457   6.346  19.343  0.00  0.00    +0.000 C 
ATOM     15  O   UNL     1       2.298   5.819  20.448  0.00  0.00    +0.000 OA
ENDBRANCH   1  14
BRANCH   8  16
ATOM     16  C   UNL     1       7.968   6.927  18.299  0.00  0.00    +0.000 C 
BRANCH  16  17
ATOM     17  C   UNL     1       7.632   8.238  17.566  0.00  0.00    +0.000 C 
BRANCH  17  18
ATOM     18  C   UNL     1       8.295   9.497  18.076  0.00  0.00    +0.000 A 
ATOM     19  C   UNL     1       8.166  10.727  17.418  0.00  0.00    +0.000 A 
ATOM     20  C   UNL     1       8.804  11.867  17.912  0.00  0.00    +0.000 A 
ATOM     21  C   UNL     1       9.569  11.793  19.075  0.00  0.00    +0.000 A 
ATOM     22  C   UNL     1       9.682  10.583  19.753  0.00  0.00    +0.000 A 
ATOM     23  C   UNL     1       9.043   9.445  19.262  0.00  0.00    +0.000 A 
ENDBRANCH  17  18
ENDBRANCH  16  17
ENDBRANCH   8  16
TORSDOF 4
ENDMDL
MODEL 5
REMARK VINA RESULT:      -7.2      3.551      8.165
REMARK  Name = 
REMARK  6 active torsions:
REMARK  status: ('A' for Active; 'I' for Inactive)
REMARK    1  A    between atoms: C_1  and  N_2
REMARK    2  A    between atoms: N_2  and  C_3
REMARK    3  A    between atoms: C_4  and  C_6
REMARK    4  A    between atoms: N_13  and  C_14
REMARK    5  A    between atoms: C_14  and  C_15
REMARK    6  A    between atoms: C_15  and  C_16
REMARK                            x       y       z     vdW  Elec       q    Type
REMARK                         _______ _______ _______ _____ _____    ______ ____
ROOT
ATOM      1  C   UNL     1      -1.239  11.062  19.565  0.00  0.00    +0.000 C 
ATOM      2  C   UNL     1      -0.310  12.281  19.580  0.00  0.00    +0.000 C 
ATOM      3  C   UNL     1      -0.127  12.763  21.006  0.00  0.00    +0.000 C 
ATOM      4  O   UNL     1       0.319  11.723  21.864  0.00  0.00    +0.000 OA
ATOM      5  C   UNL     1      -0.523  10.562  21.886  0.00  0.00    +0.000 C 
ATOM      6  C   UNL     1       0.080   9.568  22.870  0.00  0.00    +0.000 C 
ATOM      7  C   UNL     1       1.472   9.165  22.412  0.00  0.00    +0.000 C 
ATOM      8  N   UNL     1       1.468   8.598  21.073  0.00  0.00    +0.000 NA
ATOM      9  C   UNL     1       0.700   9.306  20.044  0.00  0.00    +0.000 C 
ATOM     10  C   UNL     1      -0.655   9.936  20.483  0.00  0.00    +0.000 C 
ENDROOT
BRANCH   1  14
ATOM     11  C   UNL     1      -3.030  10.791  16.140  0.00  0.00    +0.000 C 
ATOM     12  N   UNL     1      -2.735  11.195  17.515  0.00  0.00    +0.000 N 
ATOM     13  C   UNL     1      -3.869  11.702  18.273  0.00  0.00    +0.000 C 
ATOM     14  C   UNL     1      -1.547  10.744  18.100  0.00  0.00    +0.000 C 
ATOM     15  O   UNL     1      -0.729  10.102  17.434  0.00  0.00    +0.000 OA
ENDBRANCH   1  14
BRANCH   8  16
ATOM     16  C   UNL     1       1.672   7.156  21.024  0.00  0.00    +0.000 C 
BRANCH  16  17
ATOM     17  C   UNL     1       2.295   6.570  19.744  0.00  0.00    +0.000 C 
BRANCH  17  18
ATOM     18  C   UNL     1       1.913   5.153  19.384  0.00  0.00    +0.000 A 
ATOM     19  C   UNL     1       1.199   4.327  20.263  0.00  0.00    +0.000 A 
ATOM     20  C   UNL     1       0.874   3.017  19.901  0.00  0.00    +0.000 A 
ATOM     21  C   UNL     1       1.249   2.523  18.653  0.00  0.00    +0.000 A 
ATOM     22  C   UNL     1       1.934   3.342  17.760  0.00  0.00    +0.000 A 
ATOM     23  C   UNL     1       2.256   4.650  18.119  0.00  0.00    +0.000 A 
ENDBRANCH  17  18
ENDBRANCH  16  17
ENDBRANCH   8  16
TORSDOF 4
ENDMDL
MODEL 6
REMARK VINA RESULT:      -7.2      1.147      1.198
REMARK  Name = 
REMARK  6 active torsions:
REMARK  status: ('A' for Active; 'I' for Inactive)
REMARK    1  A    between atoms: C_1  and  N_2
REMARK    2  A    between atoms: N_2  and  C_3
REMARK    3  A    between atoms: C_4  and  C_6
REMARK    4  A    between atoms: N_13  and  C_14
REMARK    5  A    between atoms: C_14  and  C_15
REMARK    6  A    between atoms: C_15  and  C_16
REMARK                            x       y       z     vdW  Elec       q    Type
REMARK                         _______ _______ _______ _____ _____    ______ ____
ROOT
ATOM      1  C   UNL     1       4.476   3.587  17.906  0.00  0.00    +0.000 C 
ATOM      2  C   UNL     1       3.390   2.669  17.333  0.00  0.00    +0.000 C 
ATOM      3  C   UNL     1       2.756   1.870  18.455  0.00  0.00    +0.000 C 
ATOM      4  O   UNL     1       2.273   2.709  19.495  0.00  0.00    +0.000 OA
ATOM      5  C   UNL     1       3.257   3.583  20.066  0.00  0.00    +0.000 C 
ATOM      6  C   UNL     1       2.583   4.380  21.174  0.00  0.00    +0.000 C 
ATOM      7  C   UNL     1       1.451   5.214  20.598  0.00  0.00    +0.000 C 
ATOM      8  N   UNL     1       1.906   6.111  19.548  0.00  0.00    +0.000 NA
ATOM      9  C   UNL     1       2.794   5.552  18.524  0.00  0.00    +0.000 C 
ATOM     10  C   UNL     1       3.860   4.522  19.001  0.00  0.00    +0.000 C 
ENDROOT
BRANCH   1  14
ATOM     11  C   UNL     1       7.207   5.225  15.699  0.00  0.00    +0.000 C 
ATOM     12  N   UNL     1       6.568   4.546  16.826  0.00  0.00    +0.000 N 
ATOM     13  C   UNL     1       7.284   4.622  18.090  0.00  0.00    +0.000 C 
ATOM     14  C   UNL     1       5.213   4.213  16.720  0.00  0.00    +0.000 C 
ATOM     15  O   UNL     1       4.605   4.405  15.662  0.00  0.00    +0.000 OA
ENDBRANCH   1  14
BRANCH   8  16
ATOM     16  C   UNL     1       1.962   7.516  19.932  0.00  0.00    +0.000 C 
BRANCH  16  17
ATOM     17  C   UNL     1       1.494   7.882  21.352  0.00  0.00    +0.000 C 
BRANCH  17  18
ATOM     18  C   UNL     1       0.626   9.112  21.490  0.00  0.00    +0.000 A 
ATOM     19  C   UNL     1       0.353   9.956  20.405  0.00  0.00    +0.000 A 
ATOM     20  C   UNL     1      -0.444  11.092  20.573  0.00  0.00    +0.000 A 
ATOM     21  C   UNL     1      -0.986  11.389  21.823  0.00  0.00    +0.000 A 
ATOM     22  C   UNL     1      -0.744  10.543  22.901  0.00  0.00    +0.000 A 
ATOM     23  C   UNL     1       0.048   9.408  22.734  0.00  0.00    +0.000 A 
ENDBRANCH  17  18
ENDBRANCH  16  17
ENDBRANCH   8  16
TORSDOF 4
ENDMDL
MODEL 7
REMARK VINA RESULT:      -7.1      0.937      1.425
REMARK  Name = 
REMARK  6 active torsions:
REMARK  status: ('A' for Active; 'I' for Inactive)
REMARK    1  A    between atoms: C_1  and  N_2
REMARK    2  A    between atoms: N_2  and  C_3
REMARK    3  A    between atoms: C_4  and  C_6
REMARK    4  A    between atoms: N_13  and  C_14
REMARK    5  A    between atoms: C_14  and  C_15
REMARK    6  A    between atoms: C_15  and  C_16
REMARK                            x       y       z     vdW  Elec       q    Type
REMARK                         _______ _______ _______ _____ _____    ______ ____
ROOT
ATOM      1  C   UNL     1       4.974   4.704  18.280  0.00  0.00    +0.000 C 
ATOM      2  C   UNL     1       4.267   3.975  17.131  0.00  0.00    +0.000 C 
ATOM      3  C   UNL     1       3.736   2.643  17.625  0.00  0.00    +0.000 C 
ATOM      4  O   UNL     1       2.909   2.795  18.771  0.00  0.00    +0.000 OA
ATOM      5  C   UNL     1       3.531   3.468  19.874  0.00  0.00    +0.000 C 
ATOM      6  C   UNL     1       2.525   3.516  21.016  0.00  0.00    +0.000 C 
ATOM      7  C   UNL     1       1.292   4.295  20.589  0.00  0.00    +0.000 C 
ATOM      8  N   UNL     1       1.617   5.645  20.156  0.00  0.00    +0.000 NA
ATOM      9  C   UNL     1       2.751   5.803  19.240  0.00  0.00    +0.000 C 
ATOM     10  C   UNL     1       3.987   4.888  19.481  0.00  0.00    +0.000 C 
ENDROOT
BRANCH   1  14
ATOM     11  C   UNL     1       7.552   7.495  17.520  0.00  0.00    +0.000 C 
ATOM     12  N   UNL     1       6.970   6.260  18.046  0.00  0.00    +0.000 N 
ATOM     13  C   UNL     1       7.657   5.684  19.192  0.00  0.00    +0.000 C 
ATOM     14  C   UNL     1       5.659   5.935  17.683  0.00  0.00    +0.000 C 
ATOM     15  O   UNL     1       5.050   6.629  16.863  0.00  0.00    +0.000 OA
ENDBRANCH   1  14
BRANCH   8  16
ATOM     16  C   UNL     1       1.234   6.692  21.094  0.00  0.00    +0.000 C 
BRANCH  16  17
ATOM     17  C   UNL     1       1.811   8.100  20.860  0.00  0.00    +0.000 C 
BRANCH  17  18
ATOM     18  C   UNL     1       0.977   9.051  20.032  0.00  0.00    +0.000 A 
ATOM     19  C   UNL     1       1.188   9.224  18.657  0.00  0.00    +0.000 A 
ATOM     20  C   UNL     1       0.406  10.122  17.926  0.00  0.00    +0.000 A 
ATOM     21  C   UNL     1      -0.602  10.848  18.558  0.00  0.00    +0.000 A 
ATOM     22  C   UNL     1      -0.839  10.665  19.918  0.00  0.00    +0.000 A 
ATOM     23  C   UNL     1      -0.061   9.767  20.647  0.00  0.00    +0.000 A 
ENDBRANCH  17  18
ENDBRANCH  16  17
ENDBRANCH   8  16
TORSDOF 4
ENDMDL
MODEL 8
REMARK VINA RESULT:      -7.1      0.863      1.511
REMARK  Name = 
REMARK  6 active torsions:
REMARK  status: ('A' for Active; 'I' for Inactive)
REMARK    1  A    between atoms: C_1  and  N_2
REMARK    2  A    between atoms: N_2  and  C_3
REMARK    3  A    between atoms: C_4  and  C_6
REMARK    4  A    between atoms: N_13  and  C_14
REMARK    5  A    between atoms: C_14  and  C_15
REMARK    6  A    between atoms: C_15  and  C_16
REMARK                            x       y       z     vdW  Elec       q    Type
REMARK                         _______ _______ _______ _____ _____    ______ ____
ROOT
ATOM      1  C   UNL     1       4.972   4.856  18.286  0.00  0.00    +0.000 C 
ATOM      2  C   UNL     1       4.253   4.145  17.135  0.00  0.00    +0.000 C 
ATOM      3  C   UNL     1       3.674   2.834  17.631  0.00  0.00    +0.000 C 
ATOM      4  O   UNL     1       2.842   3.018  18.767  0.00  0.00    +0.000 OA
ATOM      5  C   UNL     1       3.476   3.676  19.873  0.00  0.00    +0.000 C 
ATOM      6  C   UNL     1       2.461   3.763  21.006  0.00  0.00    +0.000 C 
ATOM      7  C   UNL     1       1.259   4.580  20.563  0.00  0.00    +0.000 C 
ATOM      8  N   UNL     1       1.631   5.915  20.126  0.00  0.00    +0.000 NA
ATOM      9  C   UNL     1       2.777   6.032  19.220  0.00  0.00    +0.000 C 
ATOM     10  C   UNL     1       3.981   5.079  19.478  0.00  0.00    +0.000 C 
ENDROOT
BRANCH   1  14
ATOM     11  C   UNL     1       7.636   7.574  17.555  0.00  0.00    +0.000 C 
ATOM     12  N   UNL     1       7.011   6.361  18.084  0.00  0.00    +0.000 N 
ATOM     13  C   UNL     1       7.652   5.788  19.257  0.00  0.00    +0.000 C 
ATOM     14  C   UNL     1       5.702   6.061  17.689  0.00  0.00    +0.000 C 
ATOM     15  O   UNL     1       5.133   6.756  16.842  0.00  0.00    +0.000 OA
ENDBRANCH   1  14
BRANCH   8  16
ATOM     16  C   UNL     1       1.273   6.979  21.056  0.00  0.00    +0.000 C 
BRANCH  16  17
ATOM     17  C   UNL     1       1.781   8.398  20.739  0.00  0.00    +0.000 C 
BRANCH  17  18
ATOM     18  C   UNL     1       0.766   9.385  20.208  0.00  0.00    +0.000 A 
ATOM     19  C   UNL     1      -0.016  10.179  21.058  0.00  0.00    +0.000 A 
ATOM     20  C   UNL     1      -0.953  11.071  20.532  0.00  0.00    +0.000 A 
ATOM     21  C   UNL     1      -1.110  11.189  19.152  0.00  0.00    +0.000 A 
ATOM     22  C   UNL     1      -0.320  10.426  18.297  0.00  0.00    +0.000 A 
ATOM     23  C   UNL     1       0.618   9.537  18.821  0.00  0.00    +0.000 A 
ENDBRANCH  17  18
ENDBRANCH  16  17
ENDBRANCH   8  16
TORSDOF 4
ENDMDL
MODEL 9
REMARK VINA RESULT:      -7.1      1.246      1.665
REMARK  Name = 
REMARK  6 active torsions:
REMARK  status: ('A' for Active; 'I' for Inactive)
REMARK    1  A    between atoms: C_1  and  N_2
REMARK    2  A    between atoms: N_2  and  C_3
REMARK    3  A    between atoms: C_4  and  C_6
REMARK    4  A    between atoms: N_13  and  C_14
REMARK    5  A    between atoms: C_14  and  C_15
REMARK    6  A    between atoms: C_15  and  C_16
REMARK                            x       y       z     vdW  Elec       q    Type
REMARK                         _______ _______ _______ _____ _____    ______ ____
ROOT
ATOM      1  C   UNL     1       4.311   3.624  17.837  0.00  0.00    +0.000 C 
ATOM      2  C   UNL     1       3.130   2.834  17.264  0.00  0.00    +0.000 C 
ATOM      3  C   UNL     1       2.415   2.105  18.384  0.00  0.00    +0.000 C 
ATOM      4  O   UNL     1       2.029   2.987  19.429  0.00  0.00    +0.000 OA
ATOM      5  C   UNL     1       3.105   3.744  20.000  0.00  0.00    +0.000 C 
ATOM      6  C   UNL     1       2.527   4.606  21.115  0.00  0.00    +0.000 C 
ATOM      7  C   UNL     1       1.491   5.562  20.546  0.00  0.00    +0.000 C 
ATOM      8  N   UNL     1       2.040   6.408  19.499  0.00  0.00    +0.000 NA
ATOM      9  C   UNL     1       2.858   5.760  18.469  0.00  0.00    +0.000 C 
ATOM     10  C   UNL     1       3.806   4.616  18.938  0.00  0.00    +0.000 C 
ENDROOT
BRANCH   1  14
ATOM     11  C   UNL     1       7.163   5.095  15.664  0.00  0.00    +0.000 C 
ATOM     12  N   UNL     1       6.464   4.491  16.799  0.00  0.00    +0.000 N 
ATOM     13  C   UNL     1       7.126   4.630  18.087  0.00  0.00    +0.000 C 
ATOM     14  C   UNL     1       5.110   4.171  16.651  0.00  0.00    +0.000 C 
ATOM     15  O   UNL     1       4.552   4.310  15.558  0.00  0.00    +0.000 OA
ENDBRANCH   1  14
BRANCH   8  16
ATOM     16  C   UNL     1       2.251   7.796  19.888  0.00  0.00    +0.000 C 
BRANCH  16  17
ATOM     17  C   UNL     1       1.118   8.796  19.592  0.00  0.00    +0.000 C 
BRANCH  17  18
ATOM     18  C   UNL     1       0.447   9.441  20.783  0.00  0.00    +0.000 A 
ATOM     19  C   UNL     1       0.507   8.881  22.066  0.00  0.00    +0.000 A 
ATOM     20  C   UNL     1      -0.136   9.499  23.142  0.00  0.00    +0.000 A 
ATOM     21  C   UNL     1      -0.836  10.688  22.949  0.00  0.00    +0.000 A 
ATOM     22  C   UNL     1      -0.880  11.269  21.684  0.00  0.00    +0.000 A 
ATOM     23  C   UNL     1      -0.236  10.655  20.611  0.00  0.00    +0.000 A 
ENDBRANCH  17  18
ENDBRANCH  16  17
ENDBRANCH   8  16
TORSDOF 4
ENDMDL
