MODEL 1
REMARK VINA RESULT:      -6.4      0.000      0.000
REMARK  Name = 
REMARK  6 active torsions:
REMARK  status: ('A' for Active; 'I' for Inactive)
REMARK    1  A    between atoms: S_2  and  N_4
REMARK    2  A    between atoms: S_2  and  C_14
REMARK    3  A    between atoms: N_4  and  C_5
REMARK    4  A    between atoms: C_5  and  C_6
REMARK    5  A    between atoms: C_6  and  S_7
REMARK    6  A    between atoms: S_7  and  C_8
REMARK                            x       y       z     vdW  Elec       q    Type
REMARK                         _______ _______ _______ _____ _____    ______ ____
ROOT
ATOM      1  N   UNL     1       2.497   2.745  19.729  0.00  0.00    +0.000 NA
ATOM      2  H   UNL     1       3.053   3.400  20.283  0.00  0.00    +0.000 HD
ENDROOT
BRANCH   1   4
ATOM      3  O   UNL     1       3.991   1.237  18.354  0.00  0.00    +0.000 OA
ATOM      4  S   UNL     1       3.185   2.432  18.223  0.00  0.00    +0.000 S 
ATOM      5  O   UNL     1       2.146   2.555  17.226  0.00  0.00    +0.000 OA
BRANCH   4   6
ATOM      6  C   UNL     1       4.317   3.791  18.015  0.00  0.00    +0.000 A 
ATOM      7  C   UNL     1       5.084   4.216  19.106  0.00  0.00    +0.000 A 
ATOM      8  C   UNL     1       6.030   5.229  18.929  0.00  0.00    +0.000 A 
ATOM      9  C   UNL     1       6.207   5.799  17.667  0.00  0.00    +0.000 A 
ATOM     10 BR   UNL     1       7.529   7.125  17.415  0.00  0.00    +0.000 Br
ATOM     11  C   UNL     1       5.432   5.382  16.583  0.00  0.00    +0.000 A 
ATOM     12  C   UNL     1       4.480   4.375  16.755  0.00  0.00    +0.000 A 
ENDBRANCH   4   6
ENDBRANCH   1   4
BRANCH   1  13
ATOM     13  C   UNL     1       1.039   2.974  19.770  0.00  0.00    +0.000 C 
BRANCH  13  14
ATOM     14  C   UNL     1       0.713   4.396  20.231  0.00  0.00    +0.000 C 
BRANCH  14  15
ATOM     15  S   UNL     1       2.240   5.270  20.747  0.00  0.00    +0.000 S 
BRANCH  15  16
ATOM     16  C   UNL     1       2.039   6.821  19.887  0.00  0.00    +0.000 A 
ATOM     17  C   UNL     1       2.570   6.950  18.608  0.00  0.00    +0.000 A 
ATOM     18  C   UNL     1       2.448   8.170  17.947  0.00  0.00    +0.000 A 
ATOM     19  C   UNL     1       1.800   9.221  18.580  0.00  0.00    +0.000 A 
ATOM     20  C   UNL     1       1.289   9.003  19.848  0.00  0.00    +0.000 A 
ATOM     21  N   UNL     1       1.391   7.829  20.512  0.00  0.00    +0.000 NA
ENDBRANCH  15  16
ENDBRANCH  14  15
ENDBRANCH  13  14
ENDBRANCH   1  13
TORSDOF 6
ENDMDL
MODEL 2
REMARK VINA RESULT:      -6.3      3.070      5.712
REMARK  Name = 
REMARK  6 active torsions:
REMARK  status: ('A' for Active; 'I' for Inactive)
REMARK    1  A    between atoms: S_2  and  N_4
REMARK    2  A    between atoms: S_2  and  C_14
REMARK    3  A    between atoms: N_4  and  C_5
REMARK    4  A    between atoms: C_5  and  C_6
REMARK    5  A    between atoms: C_6  and  S_7
REMARK    6  A    between atoms: S_7  and  C_8
REMARK                            x       y       z     vdW  Elec       q    Type
REMARK                         _______ _______ _______ _____ _____    ______ ____
ROOT
ATOM      1  N   UNL     1       3.138   4.863  17.689  0.00  0.00    +0.000 NA
ATOM      2  H   UNL     1       2.933   5.632  17.049  0.00  0.00    +0.000 HD
ENDROOT
BRANCH   1   4
ATOM      3  O   UNL     1       2.263   4.527  20.038  0.00  0.00    +0.000 OA
ATOM      4  S   UNL     1       3.186   5.361  19.298  0.00  0.00    +0.000 S 
ATOM      5  O   UNL     1       4.573   5.502  19.679  0.00  0.00    +0.000 OA
BRANCH   4   6
ATOM      6  C   UNL     1       2.462   6.987  19.230  0.00  0.00    +0.000 A 
ATOM      7  C   UNL     1       2.451   7.682  18.014  0.00  0.00    +0.000 A 
ATOM      8  C   UNL     1       1.814   8.923  17.937  0.00  0.00    +0.000 A 
ATOM      9  C   UNL     1       1.191   9.453  19.068  0.00  0.00    +0.000 A 
ATOM     10 BR   UNL     1       0.277  11.103  18.947  0.00  0.00    +0.000 Br
ATOM     11  C   UNL     1       1.214   8.765  20.282  0.00  0.00    +0.000 A 
ATOM     12  C   UNL     1       1.854   7.527  20.368  0.00  0.00    +0.000 A 
ENDBRANCH   4   6
ENDBRANCH   1   4
BRANCH   1  13
ATOM     13  C   UNL     1       4.199   3.940  17.238  0.00  0.00    +0.000 C 
BRANCH  13  14
ATOM     14  C   UNL     1       4.660   4.277  15.818  0.00  0.00    +0.000 C 
BRANCH  14  15
ATOM     15  S   UNL     1       6.467   4.018  15.652  0.00  0.00    +0.000 S 
BRANCH  15  16
ATOM     16  C   UNL     1       7.075   5.105  16.932  0.00  0.00    +0.000 A 
ATOM     17  C   UNL     1       7.073   6.476  16.701  0.00  0.00    +0.000 A 
ATOM     18  C   UNL     1       7.580   7.326  17.681  0.00  0.00    +0.000 A 
ATOM     19  C   UNL     1       8.071   6.783  18.860  0.00  0.00    +0.000 A 
ATOM     20  C   UNL     1       8.023   5.408  19.013  0.00  0.00    +0.000 A 
ATOM     21  N   UNL     1       7.535   4.560  18.080  0.00  0.00    +0.000 NA
ENDBRANCH  15  16
ENDBRANCH  14  15
ENDBRANCH  13  14
ENDBRANCH   1  13
TORSDOF 6
ENDMDL
MODEL 3
REMARK VINA RESULT:      -6.3      3.052      5.223
REMARK  Name = 
REMARK  6 active torsions:
REMARK  status: ('A' for Active; 'I' for Inactive)
REMARK    1  A    between atoms: S_2  and  N_4
REMARK    2  A    between atoms: S_2  and  C_14
REMARK    3  A    between atoms: N_4  and  C_5
REMARK    4  A    between atoms: C_5  and  C_6
REMARK    5  A    between atoms: C_6  and  S_7
REMARK    6  A    between atoms: S_7  and  C_8
REMARK                            x       y       z     vdW  Elec       q    Type
REMARK                         _______ _______ _______ _____ _____    ______ ____
ROOT
ATOM      1  N   UNL     1       5.658   3.778  19.161  0.00  0.00    +0.000 NA
ATOM      2  H   UNL     1       6.361   3.334  18.567  0.00  0.00    +0.000 HD
ENDROOT
BRANCH   1   4
ATOM      3  O   UNL     1       4.062   3.364  17.244  0.00  0.00    +0.000 OA
ATOM      4  S   UNL     1       4.085   3.397  18.691  0.00  0.00    +0.000 S 
ATOM      5  O   UNL     1       3.638   2.283  19.495  0.00  0.00    +0.000 OA
BRANCH   4   6
ATOM      6  C   UNL     1       3.165   4.841  19.183  0.00  0.00    +0.000 A 
ATOM      7  C   UNL     1       2.532   4.856  20.432  0.00  0.00    +0.000 A 
ATOM      8  C   UNL     1       1.875   6.014  20.856  0.00  0.00    +0.000 A 
ATOM      9  C   UNL     1       1.864   7.143  20.036  0.00  0.00    +0.000 A 
ATOM     10 BR   UNL     1       1.028   8.729  20.636  0.00  0.00    +0.000 Br
ATOM     11  C   UNL     1       2.485   7.121  18.785  0.00  0.00    +0.000 A 
ATOM     12  C   UNL     1       3.138   5.965  18.353  0.00  0.00    +0.000 A 
ENDBRANCH   4   6
ENDBRANCH   1   4
BRANCH   1  13
ATOM     13  C   UNL     1       5.935   5.186  19.508  0.00  0.00    +0.000 C 
BRANCH  13  14
ATOM     14  C   UNL     1       7.429   5.500  19.405  0.00  0.00    +0.000 C 
BRANCH  14  15
ATOM     15  S   UNL     1       7.731   6.770  18.118  0.00  0.00    +0.000 S 
BRANCH  15  16
ATOM     16  C   UNL     1       6.967   5.993  16.703  0.00  0.00    +0.000 A 
ATOM     17  C   UNL     1       5.787   6.532  16.202  0.00  0.00    +0.000 A 
ATOM     18  C   UNL     1       5.166   5.908  15.122  0.00  0.00    +0.000 A 
ATOM     19  C   UNL     1       5.742   4.769  14.576  0.00  0.00    +0.000 A 
ATOM     20  C   UNL     1       6.925   4.308  15.128  0.00  0.00    +0.000 A 
ATOM     21  N   UNL     1       7.549   4.895  16.175  0.00  0.00    +0.000 NA
ENDBRANCH  15  16
ENDBRANCH  14  15
ENDBRANCH  13  14
ENDBRANCH   1  13
TORSDOF 6
ENDMDL
MODEL 4
REMARK VINA RESULT:      -6.3      3.767      6.401
REMARK  Name = 
REMARK  6 active torsions:
REMARK  status: ('A' for Active; 'I' for Inactive)
REMARK    1  A    between atoms: S_2  and  N_4
REMARK    2  A    between atoms: S_2  and  C_14
REMARK    3  A    between atoms: N_4  and  C_5
REMARK    4  A    between atoms: C_5  and  C_6
REMARK    5  A    between atoms: C_6  and  S_7
REMARK    6  A    between atoms: S_7  and  C_8
REMARK                            x       y       z     vdW  Elec       q    Type
REMARK                         _______ _______ _______ _____ _____    ______ ____
ROOT
ATOM      1  N   UNL     1       2.866   4.658  18.002  0.00  0.00    +0.000 NA
ATOM      2  H   UNL     1       2.172   5.161  17.447  0.00  0.00    +0.000 HD
ENDROOT
BRANCH   1   4
ATOM      3  O   UNL     1       2.425   4.706  20.492  0.00  0.00    +0.000 OA
ATOM      4  S   UNL     1       3.179   5.412  19.476  0.00  0.00    +0.000 S 
ATOM      5  O   UNL     1       4.605   5.617  19.578  0.00  0.00    +0.000 OA
BRANCH   4   6
ATOM      6  C   UNL     1       2.402   7.003  19.280  0.00  0.00    +0.000 A 
ATOM      7  C   UNL     1       1.776   7.600  20.380  0.00  0.00    +0.000 A 
ATOM      8  C   UNL     1       1.235   8.882  20.252  0.00  0.00    +0.000 A 
ATOM      9  C   UNL     1       1.331   9.555  19.033  0.00  0.00    +0.000 A 
ATOM     10 BR   UNL     1       0.653  11.312  18.878  0.00  0.00    +0.000 Br
ATOM     11  C   UNL     1       1.944   8.952  17.933  0.00  0.00    +0.000 A 
ATOM     12  C   UNL     1       2.481   7.669  18.053  0.00  0.00    +0.000 A 
ENDBRANCH   4   6
ENDBRANCH   1   4
BRANCH   1  13
ATOM     13  C   UNL     1       4.029   4.157  17.242  0.00  0.00    +0.000 C 
BRANCH  13  14
ATOM     14  C   UNL     1       4.760   5.298  16.531  0.00  0.00    +0.000 C 
BRANCH  14  15
ATOM     15  S   UNL     1       6.563   4.970  16.477  0.00  0.00    +0.000 S 
BRANCH  15  16
ATOM     16  C   UNL     1       6.805   4.748  14.722  0.00  0.00    +0.000 A 
ATOM     17  C   UNL     1       6.049   3.787  14.060  0.00  0.00    +0.000 A 
ATOM     18  C   UNL     1       6.260   3.583  12.698  0.00  0.00    +0.000 A 
ATOM     19  C   UNL     1       7.216   4.344  12.040  0.00  0.00    +0.000 A 
ATOM     20  C   UNL     1       7.915   5.288  12.773  0.00  0.00    +0.000 A 
ATOM     21  N   UNL     1       7.729   5.508  14.094  0.00  0.00    +0.000 NA
ENDBRANCH  15  16
ENDBRANCH  14  15
ENDBRANCH  13  14
ENDBRANCH   1  13
TORSDOF 6
ENDMDL
MODEL 5
REMARK VINA RESULT:      -6.2      3.357      4.908
REMARK  Name = 
REMARK  6 active torsions:
REMARK  status: ('A' for Active; 'I' for Inactive)
REMARK    1  A    between atoms: S_2  and  N_4
REMARK    2  A    between atoms: S_2  and  C_14
REMARK    3  A    between atoms: N_4  and  C_5
REMARK    4  A    between atoms: C_5  and  C_6
REMARK    5  A    between atoms: C_6  and  S_7
REMARK    6  A    between atoms: S_7  and  C_8
REMARK                            x       y       z     vdW  Elec       q    Type
REMARK                         _______ _______ _______ _____ _____    ______ ____
ROOT
ATOM      1  N   UNL     1       5.370   6.000  18.279  0.00  0.00    +0.000 NA
ATOM      2  H   UNL     1       5.310   6.038  19.299  0.00  0.00    +0.000 HD
ENDROOT
BRANCH   1   4
ATOM      3  O   UNL     1       7.590   6.909  17.479  0.00  0.00    +0.000 OA
ATOM      4  S   UNL     1       6.926   5.648  17.738  0.00  0.00    +0.000 S 
ATOM      5  O   UNL     1       7.487   4.648  18.617  0.00  0.00    +0.000 OA
BRANCH   4   6
ATOM      6  C   UNL     1       6.632   4.892  16.153  0.00  0.00    +0.000 A 
ATOM      7  C   UNL     1       5.576   3.983  16.013  0.00  0.00    +0.000 A 
ATOM      8  C   UNL     1       5.292   3.447  14.754  0.00  0.00    +0.000 A 
ATOM      9  C   UNL     1       6.057   3.828  13.651  0.00  0.00    +0.000 A 
ATOM     10 BR   UNL     1       5.633   3.150  11.938  0.00  0.00    +0.000 Br
ATOM     11  C   UNL     1       7.118   4.724  13.795  0.00  0.00    +0.000 A 
ATOM     12  C   UNL     1       7.411   5.258  15.051  0.00  0.00    +0.000 A 
ENDBRANCH   4   6
ENDBRANCH   1   4
BRANCH   1  13
ATOM     13  C   UNL     1       4.637   7.070  17.572  0.00  0.00    +0.000 C 
BRANCH  13  14
ATOM     14  C   UNL     1       3.124   6.911  17.741  0.00  0.00    +0.000 C 
BRANCH  14  15
ATOM     15  S   UNL     1       2.719   6.411  19.458  0.00  0.00    +0.000 S 
BRANCH  15  16
ATOM     16  C   UNL     1       2.144   4.743  19.187  0.00  0.00    +0.000 A 
ATOM     17  C   UNL     1       1.242   4.191  20.091  0.00  0.00    +0.000 A 
ATOM     18  C   UNL     1       0.820   2.877  19.906  0.00  0.00    +0.000 A 
ATOM     19  C   UNL     1       1.307   2.155  18.825  0.00  0.00    +0.000 A 
ATOM     20  C   UNL     1       2.191   2.785  17.966  0.00  0.00    +0.000 A 
ATOM     21  N   UNL     1       2.617   4.060  18.121  0.00  0.00    +0.000 NA
ENDBRANCH  15  16
ENDBRANCH  14  15
ENDBRANCH  13  14
ENDBRANCH   1  13
TORSDOF 6
ENDMDL
MODEL 6
REMARK VINA RESULT:      -6.2      3.185      3.886
REMARK  Name = 
REMARK  6 active torsions:
REMARK  status: ('A' for Active; 'I' for Inactive)
REMARK    1  A    between atoms: S_2  and  N_4
REMARK    2  A    between atoms: S_2  and  C_14
REMARK    3  A    between atoms: N_4  and  C_5
REMARK    4  A    between atoms: C_5  and  C_6
REMARK    5  A    between atoms: C_6  and  S_7
REMARK    6  A    between atoms: S_7  and  C_8
REMARK                            x       y       z     vdW  Elec       q    Type
REMARK                         _______ _______ _______ _____ _____    ______ ____
ROOT
ATOM      1  N   UNL     1       6.197   4.221  18.722  0.00  0.00    +0.000 NA
ATOM      2  H   UNL     1       6.561   3.484  19.328  0.00  0.00    +0.000 HD
ENDROOT
BRANCH   1   4
ATOM      3  O   UNL     1       7.362   6.299  17.873  0.00  0.00    +0.000 OA
ATOM      4  S   UNL     1       7.378   4.861  17.705  0.00  0.00    +0.000 S 
ATOM      5  O   UNL     1       8.581   4.079  17.873  0.00  0.00    +0.000 OA
BRANCH   4   6
ATOM      6  C   UNL     1       6.723   4.530  16.082  0.00  0.00    +0.000 A 
ATOM      7  C   UNL     1       7.446   4.941  14.955  0.00  0.00    +0.000 A 
ATOM      8  C   UNL     1       6.976   4.615  13.680  0.00  0.00    +0.000 A 
ATOM      9  C   UNL     1       5.799   3.879  13.543  0.00  0.00    +0.000 A 
ATOM     10 BR   UNL     1       5.197   3.386  11.821  0.00  0.00    +0.000 Br
ATOM     11  C   UNL     1       5.073   3.482  14.668  0.00  0.00    +0.000 A 
ATOM     12  C   UNL     1       5.533   3.810  15.944  0.00  0.00    +0.000 A 
ENDBRANCH   4   6
ENDBRANCH   1   4
BRANCH   1  13
ATOM     13  C   UNL     1       5.287   5.178  19.383  0.00  0.00    +0.000 C 
BRANCH  13  14
ATOM     14  C   UNL     1       3.841   4.978  18.923  0.00  0.00    +0.000 C 
BRANCH  14  15
ATOM     15  S   UNL     1       2.671   5.545  20.216  0.00  0.00    +0.000 S 
BRANCH  15  16
ATOM     16  C   UNL     1       2.190   7.130  19.551  0.00  0.00    +0.000 A 
ATOM     17  C   UNL     1       2.515   7.429  18.232  0.00  0.00    +0.000 A 
ATOM     18  C   UNL     1       2.175   8.678  17.719  0.00  0.00    +0.000 A 
ATOM     19  C   UNL     1       1.520   9.590  18.536  0.00  0.00    +0.000 A 
ATOM     20  C   UNL     1       1.223   9.206  19.833  0.00  0.00    +0.000 A 
ATOM     21  N   UNL     1       1.539   8.000  20.355  0.00  0.00    +0.000 NA
ENDBRANCH  15  16
ENDBRANCH  14  15
ENDBRANCH  13  14
ENDBRANCH   1  13
TORSDOF 6
ENDMDL
MODEL 7
REMARK VINA RESULT:      -6.2      5.872      7.147
REMARK  Name = 
REMARK  6 active torsions:
REMARK  status: ('A' for Active; 'I' for Inactive)
REMARK    1  A    between atoms: S_2  and  N_4
REMARK    2  A    between atoms: S_2  and  C_14
REMARK    3  A    between atoms: N_4  and  C_5
REMARK    4  A    between atoms: C_5  and  C_6
REMARK    5  A    between atoms: C_6  and  S_7
REMARK    6  A    between atoms: S_7  and  C_8
REMARK                            x       y       z     vdW  Elec       q    Type
REMARK                         _______ _______ _______ _____ _____    ______ ____
ROOT
ATOM      1  N   UNL     1       6.448   7.294  17.373  0.00  0.00    +0.000 NA
ATOM      2  H   UNL     1       5.712   7.403  18.074  0.00  0.00    +0.000 HD
ENDROOT
BRANCH   1   4
ATOM      3  O   UNL     1       6.002   6.208  15.133  0.00  0.00    +0.000 OA
ATOM      4  S   UNL     1       6.302   5.857  16.506  0.00  0.00    +0.000 S 
ATOM      5  O   UNL     1       7.419   5.009  16.858  0.00  0.00    +0.000 OA
BRANCH   4   6
ATOM      6  C   UNL     1       4.822   5.134  17.183  0.00  0.00    +0.000 A 
ATOM      7  C   UNL     1       4.414   3.870  16.742  0.00  0.00    +0.000 A 
ATOM      8  C   UNL     1       3.298   3.264  17.326  0.00  0.00    +0.000 A 
ATOM      9  C   UNL     1       2.608   3.922  18.346  0.00  0.00    +0.000 A 
ATOM     10 BR   UNL     1       1.137   3.076  19.178  0.00  0.00    +0.000 Br
ATOM     11  C   UNL     1       3.009   5.188  18.775  0.00  0.00    +0.000 A 
ATOM     12  C   UNL     1       4.120   5.801  18.191  0.00  0.00    +0.000 A 
ENDBRANCH   4   6
ENDBRANCH   1   4
BRANCH   1  13
ATOM     13  C   UNL     1       7.801   7.674  17.826  0.00  0.00    +0.000 C 
BRANCH  13  14
ATOM     14  C   UNL     1       8.028   9.181  17.694  0.00  0.00    +0.000 C 
BRANCH  14  15
ATOM     15  S   UNL     1       9.107   9.789  19.045  0.00  0.00    +0.000 S 
BRANCH  15  16
ATOM     16  C   UNL     1       9.674  11.331  18.346  0.00  0.00    +0.000 A 
ATOM     17  C   UNL     1      11.010  11.446  17.975  0.00  0.00    +0.000 A 
ATOM     18  C   UNL     1      11.465  12.658  17.464  0.00  0.00    +0.000 A 
ATOM     19  C   UNL     1      10.576  13.716  17.336  0.00  0.00    +0.000 A 
ATOM     20  C   UNL     1       9.261  13.511  17.715  0.00  0.00    +0.000 A 
ATOM     21  N   UNL     1       8.791  12.345  18.213  0.00  0.00    +0.000 NA
ENDBRANCH  15  16
ENDBRANCH  14  15
ENDBRANCH  13  14
ENDBRANCH   1  13
TORSDOF 6
ENDMDL
MODEL 8
REMARK VINA RESULT:      -6.1      3.027      5.757
REMARK  Name = 
REMARK  6 active torsions:
REMARK  status: ('A' for Active; 'I' for Inactive)
REMARK    1  A    between atoms: S_2  and  N_4
REMARK    2  A    between atoms: S_2  and  C_14
REMARK    3  A    between atoms: N_4  and  C_5
REMARK    4  A    between atoms: C_5  and  C_6
REMARK    5  A    between atoms: C_6  and  S_7
REMARK    6  A    between atoms: S_7  and  C_8
REMARK                            x       y       z     vdW  Elec       q    Type
REMARK                         _______ _______ _______ _____ _____    ______ ____
ROOT
ATOM      1  N   UNL     1       3.356   5.747  19.939  0.00  0.00    +0.000 NA
ATOM      2  H   UNL     1       3.439   6.388  20.731  0.00  0.00    +0.000 HD
ENDROOT
BRANCH   1   4
ATOM      3  O   UNL     1       4.138   7.027  17.902  0.00  0.00    +0.000 OA
ATOM      4  S   UNL     1       2.921   6.537  18.516  0.00  0.00    +0.000 S 
ATOM      5  O   UNL     1       1.986   5.694  17.807  0.00  0.00    +0.000 OA
BRANCH   4   6
ATOM      6  C   UNL     1       2.039   7.966  19.110  0.00  0.00    +0.000 A 
ATOM      7  C   UNL     1       1.704   8.986  18.212  0.00  0.00    +0.000 A 
ATOM      8  C   UNL     1       0.944  10.072  18.656  0.00  0.00    +0.000 A 
ATOM      9  C   UNL     1       0.522  10.123  19.985  0.00  0.00    +0.000 A 
ATOM     10 BR   UNL     1      -0.557  11.560  20.570  0.00  0.00    +0.000 Br
ATOM     11  C   UNL     1       0.869   9.111  20.883  0.00  0.00    +0.000 A 
ATOM     12  C   UNL     1       1.633   8.027  20.446  0.00  0.00    +0.000 A 
ENDBRANCH   4   6
ENDBRANCH   1   4
BRANCH   1  13
ATOM     13  C   UNL     1       2.674   4.472  20.237  0.00  0.00    +0.000 C 
BRANCH  13  14
ATOM     14  C   UNL     1       3.631   3.286  20.102  0.00  0.00    +0.000 C 
BRANCH  14  15
ATOM     15  S   UNL     1       3.658   2.676  18.373  0.00  0.00    +0.000 S 
BRANCH  15  16
ATOM     16  C   UNL     1       4.997   3.649  17.703  0.00  0.00    +0.000 A 
ATOM     17  C   UNL     1       5.055   3.848  16.327  0.00  0.00    +0.000 A 
ATOM     18  C   UNL     1       6.118   4.574  15.795  0.00  0.00    +0.000 A 
ATOM     19  C   UNL     1       7.087   5.080  16.650  0.00  0.00    +0.000 A 
ATOM     20  C   UNL     1       6.945   4.847  18.008  0.00  0.00    +0.000 A 
ATOM     21  N   UNL     1       5.923   4.147  18.551  0.00  0.00    +0.000 NA
ENDBRANCH  15  16
ENDBRANCH  14  15
ENDBRANCH  13  14
ENDBRANCH   1  13
TORSDOF 6
ENDMDL
MODEL 9
REMARK VINA RESULT:      -6.1      3.586      6.111
REMARK  Name = 
REMARK  6 active torsions:
REMARK  status: ('A' for Active; 'I' for Inactive)
REMARK    1  A    between atoms: S_2  and  N_4
REMARK    2  A    between atoms: S_2  and  C_14
REMARK    3  A    between atoms: N_4  and  C_5
REMARK    4  A    between atoms: C_5  and  C_6
REMARK    5  A    between atoms: C_6  and  S_7
REMARK    6  A    between atoms: S_7  and  C_8
REMARK                            x       y       z     vdW  Elec       q    Type
REMARK                         _______ _______ _______ _____ _____    ______ ____
ROOT
ATOM      1  N   UNL     1       4.919   3.620  17.728  0.00  0.00    +0.000 NA
ATOM      2  H   UNL     1       4.590   4.110  16.894  0.00  0.00    +0.000 HD
ENDROOT
BRANCH   1   4
ATOM      3  O   UNL     1       2.633   2.545  17.864  0.00  0.00    +0.000 OA
ATOM      4  S   UNL     1       3.652   3.118  18.719  0.00  0.00    +0.000 S 
ATOM      5  O   UNL     1       4.219   2.395  19.834  0.00  0.00    +0.000 OA
BRANCH   4   6
ATOM      6  C   UNL     1       2.996   4.657  19.331  0.00  0.00    +0.000 A 
ATOM      7  C   UNL     1       3.223   5.834  18.608  0.00  0.00    +0.000 A 
ATOM      8  C   UNL     1       2.645   7.030  19.042  0.00  0.00    +0.000 A 
ATOM      9  C   UNL     1       1.843   7.037  20.184  0.00  0.00    +0.000 A 
ATOM     10 BR   UNL     1       1.012   8.643  20.735  0.00  0.00    +0.000 Br
ATOM     11  C   UNL     1       1.629   5.865  20.911  0.00  0.00    +0.000 A 
ATOM     12  C   UNL     1       2.209   4.668  20.487  0.00  0.00    +0.000 A 
ENDBRANCH   4   6
ENDBRANCH   1   4
BRANCH   1  13
ATOM     13  C   UNL     1       6.091   4.228  18.388  0.00  0.00    +0.000 C 
BRANCH  13  14
ATOM     14  C   UNL     1       7.233   4.452  17.396  0.00  0.00    +0.000 C 
BRANCH  14  15
ATOM     15  S   UNL     1       6.894   5.916  16.345  0.00  0.00    +0.000 S 
BRANCH  15  16
ATOM     16  C   UNL     1       6.860   5.160  14.728  0.00  0.00    +0.000 A 
ATOM     17  C   UNL     1       5.882   4.209  14.455  0.00  0.00    +0.000 A 
ATOM     18  C   UNL     1       5.875   3.589  13.208  0.00  0.00    +0.000 A 
ATOM     19  C   UNL     1       6.840   3.937  12.273  0.00  0.00    +0.000 A 
ATOM     20  C   UNL     1       7.768   4.903  12.622  0.00  0.00    +0.000 A 
ATOM     21  N   UNL     1       7.798   5.522  13.824  0.00  0.00    +0.000 NA
ENDBRANCH  15  16
ENDBRANCH  14  15
ENDBRANCH  13  14
ENDBRANCH   1  13
TORSDOF 6
ENDMDL
