MODEL 1
REMARK VINA RESULT:      -7.1      0.000      0.000
REMARK  Name = 
REMARK  7 active torsions:
REMARK  status: ('A' for Active; 'I' for Inactive)
REMARK    1  A    between atoms: C_1  and  O_2
REMARK    2  A    between atoms: O_2  and  C_3
REMARK    3  A    between atoms: C_8  and  N_9
REMARK    4  A    between atoms: N_9  and  C_10
REMARK    5  A    between atoms: C_10  and  C_11
REMARK    6  A    between atoms: N_13  and  C_14
REMARK    7  A    between atoms: C_14  and  C_15
REMARK                            x       y       z     vdW  Elec       q    Type
REMARK                         _______ _______ _______ _____ _____    ______ ____
ROOT
ATOM      1  N   UNL     1       5.745   4.439  16.180  0.00  0.00    +0.000 N 
ATOM      2  H   UNL     1       4.758   4.668  16.302  0.00  0.00    +0.000 HD
ENDROOT
BRANCH   1   8
ATOM      3  C   UNL     1       5.992   3.462  12.584  0.00  0.00    +0.000 A 
ATOM      4  C   UNL     1       7.057   4.262  12.185  0.00  0.00    +0.000 A 
ATOM      5  C   UNL     1       7.684   5.066  13.126  0.00  0.00    +0.000 A 
ATOM      6  F   UNL     1       8.700   5.852  12.744  0.00  0.00    +0.000 F 
ATOM      7  C   UNL     1       7.267   5.087  14.454  0.00  0.00    +0.000 A 
ATOM      8  C   UNL     1       6.195   4.295  14.880  0.00  0.00    +0.000 A 
ATOM      9  C   UNL     1       5.554   3.503  13.917  0.00  0.00    +0.000 A 
BRANCH   3  11
ATOM     10  C   UNL     1       4.091   3.205  11.202  0.00  0.00    +0.000 C 
ATOM     11  O   UNL     1       5.275   2.640  11.756  0.00  0.00    +0.000 OA
ENDBRANCH   3  11
ENDBRANCH   1   8
BRANCH   1  12
ATOM     12  C   UNL     1       6.584   4.904  17.281  0.00  0.00    +0.000 C 
BRANCH  12  13
ATOM     13  C   UNL     1       5.973   4.468  18.625  0.00  0.00    +0.000 C 
ATOM     14  O   UNL     1       6.196   5.057  19.682  0.00  0.00    +0.000 OA
ATOM     15  N   UNL     1       5.190   3.337  18.552  0.00  0.00    +0.000 N 
ATOM     16  H   UNL     1       4.899   2.977  17.651  0.00  0.00    +0.000 HD
BRANCH  15  17
ATOM     17  C   UNL     1       4.505   2.823  19.715  0.00  0.00    +0.000 C 
BRANCH  17  18
ATOM     18  C   UNL     1       3.050   2.800  19.440  0.00  0.00    +0.000 A 
ATOM     19  C   UNL     1       2.278   2.145  18.501  0.00  0.00    +0.000 A 
ATOM     20  C   UNL     1       0.939   2.524  18.754  0.00  0.00    +0.000 A 
ATOM     21  C   UNL     1       0.976   3.386  19.823  0.00  0.00    +0.000 A 
ATOM     22  O   UNL     1       2.254   3.564  20.247  0.00  0.00    +0.000 OA
ENDBRANCH  17  18
ENDBRANCH  15  17
ENDBRANCH  12  13
ENDBRANCH   1  12
TORSDOF 6
ENDMDL
MODEL 2
REMARK VINA RESULT:      -6.9      3.360      4.590
REMARK  Name = 
REMARK  7 active torsions:
REMARK  status: ('A' for Active; 'I' for Inactive)
REMARK    1  A    between atoms: C_1  and  O_2
REMARK    2  A    between atoms: O_2  and  C_3
REMARK    3  A    between atoms: C_8  and  N_9
REMARK    4  A    between atoms: N_9  and  C_10
REMARK    5  A    between atoms: C_10  and  C_11
REMARK    6  A    between atoms: N_13  and  C_14
REMARK    7  A    between atoms: C_14  and  C_15
REMARK                            x       y       z     vdW  Elec       q    Type
REMARK                         _______ _______ _______ _____ _____    ______ ____
ROOT
ATOM      1  N   UNL     1       5.438   3.640  19.186  0.00  0.00    +0.000 N 
ATOM      2  H   UNL     1       6.007   3.051  19.795  0.00  0.00    +0.000 HD
ENDROOT
BRANCH   1   8
ATOM      3  C   UNL     1       6.524   5.647  16.230  0.00  0.00    +0.000 A 
ATOM      4  C   UNL     1       7.372   6.559  16.850  0.00  0.00    +0.000 A 
ATOM      5  C   UNL     1       7.588   6.454  18.216  0.00  0.00    +0.000 A 
ATOM      6  F   UNL     1       8.391   7.339  18.823  0.00  0.00    +0.000 F 
ATOM      7  C   UNL     1       6.974   5.459  18.973  0.00  0.00    +0.000 A 
ATOM      8  C   UNL     1       6.114   4.533  18.374  0.00  0.00    +0.000 A 
ATOM      9  C   UNL     1       5.884   4.661  16.997  0.00  0.00    +0.000 A 
BRANCH   3  11
ATOM     10  C   UNL     1       6.226   4.377  14.259  0.00  0.00    +0.000 C 
ATOM     11  O   UNL     1       6.209   5.650  14.897  0.00  0.00    +0.000 OA
ENDBRANCH   3  11
ENDBRANCH   1   8
BRANCH   1  12
ATOM     12  C   UNL     1       4.155   3.037  18.836  0.00  0.00    +0.000 C 
BRANCH  12  13
ATOM     13  C   UNL     1       3.007   3.846  19.465  0.00  0.00    +0.000 C 
ATOM     14  O   UNL     1       1.931   3.342  19.785  0.00  0.00    +0.000 OA
ATOM     15  N   UNL     1       3.270   5.191  19.600  0.00  0.00    +0.000 N 
ATOM     16  H   UNL     1       4.213   5.541  19.481  0.00  0.00    +0.000 HD
BRANCH  15  17
ATOM     17  C   UNL     1       2.315   6.084  20.217  0.00  0.00    +0.000 C 
BRANCH  17  18
ATOM     18  C   UNL     1       2.161   7.282  19.361  0.00  0.00    +0.000 A 
ATOM     19  C   UNL     1       2.542   7.571  18.065  0.00  0.00    +0.000 A 
ATOM     20  C   UNL     1       2.101   8.890  17.807  0.00  0.00    +0.000 A 
ATOM     21  C   UNL     1       1.485   9.324  18.956  0.00  0.00    +0.000 A 
ATOM     22  O   UNL     1       1.517   8.357  19.908  0.00  0.00    +0.000 OA
ENDBRANCH  17  18
ENDBRANCH  15  17
ENDBRANCH  12  13
ENDBRANCH   1  12
TORSDOF 6
ENDMDL
MODEL 3
REMARK VINA RESULT:      -6.9      0.797      1.027
REMARK  Name = 
REMARK  7 active torsions:
REMARK  status: ('A' for Active; 'I' for Inactive)
REMARK    1  A    between atoms: C_1  and  O_2
REMARK    2  A    between atoms: O_2  and  C_3
REMARK    3  A    between atoms: C_8  and  N_9
REMARK    4  A    between atoms: N_9  and  C_10
REMARK    5  A    between atoms: C_10  and  C_11
REMARK    6  A    between atoms: N_13  and  C_14
REMARK    7  A    between atoms: C_14  and  C_15
REMARK                            x       y       z     vdW  Elec       q    Type
REMARK                         _______ _______ _______ _____ _____    ______ ____
ROOT
ATOM      1  N   UNL     1       6.080   3.945  16.220  0.00  0.00    +0.000 N 
ATOM      2  H   UNL     1       5.919   3.019  16.616  0.00  0.00    +0.000 HD
ENDROOT
BRANCH   1   8
ATOM      3  C   UNL     1       6.068   3.463  12.516  0.00  0.00    +0.000 A 
ATOM      4  C   UNL     1       7.058   4.368  12.147  0.00  0.00    +0.000 A 
ATOM      5  C   UNL     1       7.723   5.076  13.137  0.00  0.00    +0.000 A 
ATOM      6  F   UNL     1       8.667   5.961  12.787  0.00  0.00    +0.000 F 
ATOM      7  C   UNL     1       7.420   4.899  14.484  0.00  0.00    +0.000 A 
ATOM      8  C   UNL     1       6.426   3.998  14.880  0.00  0.00    +0.000 A 
ATOM      9  C   UNL     1       5.743   3.304  13.872  0.00  0.00    +0.000 A 
BRANCH   3  11
ATOM     10  C   UNL     1       4.044   3.250  11.313  0.00  0.00    +0.000 C 
ATOM     11  O   UNL     1       5.323   2.716  11.643  0.00  0.00    +0.000 OA
ENDBRANCH   3  11
ENDBRANCH   1   8
BRANCH   1  12
ATOM     12  C   UNL     1       5.349   5.004  16.910  0.00  0.00    +0.000 C 
BRANCH  12  13
ATOM     13  C   UNL     1       5.020   4.562  18.346  0.00  0.00    +0.000 C 
ATOM     14  O   UNL     1       4.974   5.347  19.293  0.00  0.00    +0.000 OA
ATOM     15  N   UNL     1       4.821   3.207  18.491  0.00  0.00    +0.000 N 
ATOM     16  H   UNL     1       4.705   2.619  17.675  0.00  0.00    +0.000 HD
BRANCH  15  17
ATOM     17  C   UNL     1       4.456   2.635  19.767  0.00  0.00    +0.000 C 
BRANCH  17  18
ATOM     18  C   UNL     1       3.004   2.833  19.980  0.00  0.00    +0.000 A 
ATOM     19  C   UNL     1       2.267   3.356  21.025  0.00  0.00    +0.000 A 
ATOM     20  C   UNL     1       0.911   3.282  20.629  0.00  0.00    +0.000 A 
ATOM     21  C   UNL     1       0.903   2.719  19.376  0.00  0.00    +0.000 A 
ATOM     22  O   UNL     1       2.169   2.438  18.972  0.00  0.00    +0.000 OA
ENDBRANCH  17  18
ENDBRANCH  15  17
ENDBRANCH  12  13
ENDBRANCH   1  12
TORSDOF 6
ENDMDL
MODEL 4
REMARK VINA RESULT:      -6.7      1.116      1.312
REMARK  Name = 
REMARK  7 active torsions:
REMARK  status: ('A' for Active; 'I' for Inactive)
REMARK    1  A    between atoms: C_1  and  O_2
REMARK    2  A    between atoms: O_2  and  C_3
REMARK    3  A    between atoms: C_8  and  N_9
REMARK    4  A    between atoms: N_9  and  C_10
REMARK    5  A    between atoms: C_10  and  C_11
REMARK    6  A    between atoms: N_13  and  C_14
REMARK    7  A    between atoms: C_14  and  C_15
REMARK                            x       y       z     vdW  Elec       q    Type
REMARK                         _______ _______ _______ _____ _____    ______ ____
ROOT
ATOM      1  N   UNL     1       5.637   4.394  16.034  0.00  0.00    +0.000 N 
ATOM      2  H   UNL     1       4.664   4.679  16.147  0.00  0.00    +0.000 HD
ENDROOT
BRANCH   1   8
ATOM      3  C   UNL     1       5.887   3.475  12.422  0.00  0.00    +0.000 A 
ATOM      4  C   UNL     1       6.995   4.230  12.053  0.00  0.00    +0.000 A 
ATOM      5  C   UNL     1       7.646   4.984  13.018  0.00  0.00    +0.000 A 
ATOM      6  F   UNL     1       8.705   5.726  12.665  0.00  0.00    +0.000 F 
ATOM      7  C   UNL     1       7.212   4.999  14.340  0.00  0.00    +0.000 A 
ATOM      8  C   UNL     1       6.098   4.253  14.736  0.00  0.00    +0.000 A 
ATOM      9  C   UNL     1       5.433   3.512  13.750  0.00  0.00    +0.000 A 
BRANCH   3  11
ATOM     10  C   UNL     1       3.899   3.265  11.160  0.00  0.00    +0.000 C 
ATOM     11  O   UNL     1       5.142   2.704  11.569  0.00  0.00    +0.000 OA
ENDBRANCH   3  11
ENDBRANCH   1   8
BRANCH   1  12
ATOM     12  C   UNL     1       6.486   4.780  17.157  0.00  0.00    +0.000 C 
BRANCH  12  13
ATOM     13  C   UNL     1       5.658   4.806  18.454  0.00  0.00    +0.000 C 
ATOM     14  O   UNL     1       5.987   4.193  19.469  0.00  0.00    +0.000 OA
ATOM     15  N   UNL     1       4.495   5.539  18.370  0.00  0.00    +0.000 N 
ATOM     16  H   UNL     1       4.338   6.157  17.583  0.00  0.00    +0.000 HD
BRANCH  15  17
ATOM     17  C   UNL     1       3.628   5.703  19.515  0.00  0.00    +0.000 C 
BRANCH  17  18
ATOM     18  C   UNL     1       2.610   4.627  19.500  0.00  0.00    +0.000 A 
ATOM     19  C   UNL     1       1.935   3.953  20.498  0.00  0.00    +0.000 A 
ATOM     20  C   UNL     1       1.079   3.035  19.848  0.00  0.00    +0.000 A 
ATOM     21  C   UNL     1       1.286   3.200  18.500  0.00  0.00    +0.000 A 
ATOM     22  O   UNL     1       2.216   4.163  18.276  0.00  0.00    +0.000 OA
ENDBRANCH  17  18
ENDBRANCH  15  17
ENDBRANCH  12  13
ENDBRANCH   1  12
TORSDOF 6
ENDMDL
MODEL 5
REMARK VINA RESULT:      -6.7      1.332      1.549
REMARK  Name = 
REMARK  7 active torsions:
REMARK  status: ('A' for Active; 'I' for Inactive)
REMARK    1  A    between atoms: C_1  and  O_2
REMARK    2  A    between atoms: O_2  and  C_3
REMARK    3  A    between atoms: C_8  and  N_9
REMARK    4  A    between atoms: N_9  and  C_10
REMARK    5  A    between atoms: C_10  and  C_11
REMARK    6  A    between atoms: N_13  and  C_14
REMARK    7  A    between atoms: C_14  and  C_15
REMARK                            x       y       z     vdW  Elec       q    Type
REMARK                         _______ _______ _______ _____ _____    ______ ____
ROOT
ATOM      1  N   UNL     1       5.210   4.766  15.768  0.00  0.00    +0.000 N 
ATOM      2  H   UNL     1       4.593   5.578  15.751  0.00  0.00    +0.000 HD
ENDROOT
BRANCH   1   8
ATOM      3  C   UNL     1       6.026   3.384  12.395  0.00  0.00    +0.000 A 
ATOM      4  C   UNL     1       7.184   4.099  12.110  0.00  0.00    +0.000 A 
ATOM      5  C   UNL     1       7.679   4.982  13.058  0.00  0.00    +0.000 A 
ATOM      6  F   UNL     1       8.786   5.687  12.783  0.00  0.00    +0.000 F 
ATOM      7  C   UNL     1       7.040   5.165  14.281  0.00  0.00    +0.000 A 
ATOM      8  C   UNL     1       5.871   4.462  14.590  0.00  0.00    +0.000 A 
ATOM      9  C   UNL     1       5.366   3.589  13.618  0.00  0.00    +0.000 A 
BRANCH   3  11
ATOM     10  C   UNL     1       6.200   1.361  11.184  0.00  0.00    +0.000 C 
ATOM     11  O   UNL     1       5.422   2.498  11.543  0.00  0.00    +0.000 OA
ENDBRANCH   3  11
ENDBRANCH   1   8
BRANCH   1  12
ATOM     12  C   UNL     1       5.744   4.473  17.095  0.00  0.00    +0.000 C 
BRANCH  12  13
ATOM     13  C   UNL     1       4.791   3.527  17.846  0.00  0.00    +0.000 C 
ATOM     14  O   UNL     1       3.804   3.016  17.317  0.00  0.00    +0.000 OA
ATOM     15  N   UNL     1       5.112   3.333  19.171  0.00  0.00    +0.000 N 
ATOM     16  H   UNL     1       6.011   3.633  19.526  0.00  0.00    +0.000 HD
BRANCH  15  17
ATOM     17  C   UNL     1       4.345   2.435  20.004  0.00  0.00    +0.000 C 
BRANCH  17  18
ATOM     18  C   UNL     1       3.004   3.023  20.231  0.00  0.00    +0.000 A 
ATOM     19  C   UNL     1       2.579   4.253  20.692  0.00  0.00    +0.000 A 
ATOM     20  C   UNL     1       1.166   4.216  20.677  0.00  0.00    +0.000 A 
ATOM     21  C   UNL     1       0.816   2.971  20.213  0.00  0.00    +0.000 A 
ATOM     22  O   UNL     1       1.925   2.235  19.941  0.00  0.00    +0.000 OA
ENDBRANCH  17  18
ENDBRANCH  15  17
ENDBRANCH  12  13
ENDBRANCH   1  12
TORSDOF 6
ENDMDL
MODEL 6
REMARK VINA RESULT:      -6.6      1.483      1.734
REMARK  Name = 
REMARK  7 active torsions:
REMARK  status: ('A' for Active; 'I' for Inactive)
REMARK    1  A    between atoms: C_1  and  O_2
REMARK    2  A    between atoms: O_2  and  C_3
REMARK    3  A    between atoms: C_8  and  N_9
REMARK    4  A    between atoms: N_9  and  C_10
REMARK    5  A    between atoms: C_10  and  C_11
REMARK    6  A    between atoms: N_13  and  C_14
REMARK    7  A    between atoms: C_14  and  C_15
REMARK                            x       y       z     vdW  Elec       q    Type
REMARK                         _______ _______ _______ _____ _____    ______ ____
ROOT
ATOM      1  N   UNL     1       5.901   4.359  16.240  0.00  0.00    +0.000 N 
ATOM      2  H   UNL     1       6.117   3.570  16.849  0.00  0.00    +0.000 HD
ENDROOT
BRANCH   1   8
ATOM      3  C   UNL     1       6.068   3.506  12.607  0.00  0.00    +0.000 A 
ATOM      4  C   UNL     1       7.116   4.329  12.210  0.00  0.00    +0.000 A 
ATOM      5  C   UNL     1       7.759   5.105  13.162  0.00  0.00    +0.000 A 
ATOM      6  F   UNL     1       8.760   5.912  12.782  0.00  0.00    +0.000 F 
ATOM      7  C   UNL     1       7.375   5.077  14.500  0.00  0.00    +0.000 A 
ATOM      8  C   UNL     1       6.321   4.262  14.924  0.00  0.00    +0.000 A 
ATOM      9  C   UNL     1       5.663   3.498  13.951  0.00  0.00    +0.000 A 
BRANCH   3  11
ATOM     10  C   UNL     1       4.128   3.274  11.276  0.00  0.00    +0.000 C 
ATOM     11  O   UNL     1       5.337   2.706  11.769  0.00  0.00    +0.000 OA
ENDBRANCH   3  11
ENDBRANCH   1   8
BRANCH   1  12
ATOM     12  C   UNL     1       4.720   5.107  16.660  0.00  0.00    +0.000 C 
BRANCH  12  13
ATOM     13  C   UNL     1       3.653   4.140  17.202  0.00  0.00    +0.000 C 
ATOM     14  O   UNL     1       2.461   4.437  17.282  0.00  0.00    +0.000 OA
ATOM     15  N   UNL     1       4.150   2.928  17.628  0.00  0.00    +0.000 N 
ATOM     16  H   UNL     1       5.098   2.658  17.399  0.00  0.00    +0.000 HD
BRANCH  15  17
ATOM     17  C   UNL     1       3.274   1.889  18.120  0.00  0.00    +0.000 C 
BRANCH  17  18
ATOM     18  C   UNL     1       2.816   2.256  19.480  0.00  0.00    +0.000 A 
ATOM     19  C   UNL     1       3.482   2.513  20.662  0.00  0.00    +0.000 A 
ATOM     20  C   UNL     1       2.487   2.819  21.619  0.00  0.00    +0.000 A 
ATOM     21  C   UNL     1       1.281   2.727  20.968  0.00  0.00    +0.000 A 
ATOM     22  O   UNL     1       1.468   2.382  19.667  0.00  0.00    +0.000 OA
ENDBRANCH  17  18
ENDBRANCH  15  17
ENDBRANCH  12  13
ENDBRANCH   1  12
TORSDOF 6
ENDMDL
MODEL 7
REMARK VINA RESULT:      -6.6      3.426      5.141
REMARK  Name = 
REMARK  7 active torsions:
REMARK  status: ('A' for Active; 'I' for Inactive)
REMARK    1  A    between atoms: C_1  and  O_2
REMARK    2  A    between atoms: O_2  and  C_3
REMARK    3  A    between atoms: C_8  and  N_9
REMARK    4  A    between atoms: N_9  and  C_10
REMARK    5  A    between atoms: C_10  and  C_11
REMARK    6  A    between atoms: N_13  and  C_14
REMARK    7  A    between atoms: C_14  and  C_15
REMARK                            x       y       z     vdW  Elec       q    Type
REMARK                         _______ _______ _______ _____ _____    ______ ____
ROOT
ATOM      1  N   UNL     1       4.968   3.170  18.552  0.00  0.00    +0.000 N 
ATOM      2  H   UNL     1       4.633   2.460  17.902  0.00  0.00    +0.000 HD
ENDROOT
BRANCH   1   8
ATOM      3  C   UNL     1       6.961   6.263  17.905  0.00  0.00    +0.000 A 
ATOM      4  C   UNL     1       6.458   6.622  16.659  0.00  0.00    +0.000 A 
ATOM      5  C   UNL     1       5.449   5.856  16.095  0.00  0.00    +0.000 A 
ATOM      6  F   UNL     1       4.972   6.188  14.887  0.00  0.00    +0.000 F 
ATOM      7  C   UNL     1       4.936   4.739  16.748  0.00  0.00    +0.000 A 
ATOM      8  C   UNL     1       5.428   4.353  17.999  0.00  0.00    +0.000 A 
ATOM      9  C   UNL     1       6.462   5.120  18.551  0.00  0.00    +0.000 A 
BRANCH   3  11
ATOM     10  C   UNL     1       8.214   8.254  18.138  0.00  0.00    +0.000 C 
ATOM     11  O   UNL     1       7.967   6.918  18.564  0.00  0.00    +0.000 OA
ENDBRANCH   3  11
ENDBRANCH   1   8
BRANCH   1  12
ATOM     12  C   UNL     1       4.355   3.080  19.874  0.00  0.00    +0.000 C 
BRANCH  12  13
ATOM     13  C   UNL     1       3.035   3.870  19.894  0.00  0.00    +0.000 C 
ATOM     14  O   UNL     1       1.968   3.398  19.501  0.00  0.00    +0.000 OA
ATOM     15  N   UNL     1       3.155   5.164  20.350  0.00  0.00    +0.000 N 
ATOM     16  H   UNL     1       4.004   5.463  20.813  0.00  0.00    +0.000 HD
BRANCH  15  17
ATOM     17  C   UNL     1       2.002   6.025  20.476  0.00  0.00    +0.000 C 
BRANCH  17  18
ATOM     18  C   UNL     1       2.103   7.108  19.471  0.00  0.00    +0.000 A 
ATOM     19  C   UNL     1       2.625   7.164  18.194  0.00  0.00    +0.000 A 
ATOM     20  C   UNL     1       2.415   8.485  17.737  0.00  0.00    +0.000 A 
ATOM     21  C   UNL     1       1.786   9.153  18.759  0.00  0.00    +0.000 A 
ATOM     22  O   UNL     1       1.593   8.328  19.820  0.00  0.00    +0.000 OA
ENDBRANCH  17  18
ENDBRANCH  15  17
ENDBRANCH  12  13
ENDBRANCH   1  12
TORSDOF 6
ENDMDL
MODEL 8
REMARK VINA RESULT:      -6.6      1.638      2.016
REMARK  Name = 
REMARK  7 active torsions:
REMARK  status: ('A' for Active; 'I' for Inactive)
REMARK    1  A    between atoms: C_1  and  O_2
REMARK    2  A    between atoms: O_2  and  C_3
REMARK    3  A    between atoms: C_8  and  N_9
REMARK    4  A    between atoms: N_9  and  C_10
REMARK    5  A    between atoms: C_10  and  C_11
REMARK    6  A    between atoms: N_13  and  C_14
REMARK    7  A    between atoms: C_14  and  C_15
REMARK                            x       y       z     vdW  Elec       q    Type
REMARK                         _______ _______ _______ _____ _____    ______ ____
ROOT
ATOM      1  N   UNL     1       5.915   4.228  16.155  0.00  0.00    +0.000 N 
ATOM      2  H   UNL     1       6.097   3.399  16.720  0.00  0.00    +0.000 HD
ENDROOT
BRANCH   1   8
ATOM      3  C   UNL     1       6.050   3.490  12.496  0.00  0.00    +0.000 A 
ATOM      4  C   UNL     1       7.077   4.345  12.111  0.00  0.00    +0.000 A 
ATOM      5  C   UNL     1       7.717   5.105  13.078  0.00  0.00    +0.000 A 
ATOM      6  F   UNL     1       8.696   5.944  12.711  0.00  0.00    +0.000 F 
ATOM      7  C   UNL     1       7.351   5.029  14.419  0.00  0.00    +0.000 A 
ATOM      8  C   UNL     1       6.319   4.180  14.832  0.00  0.00    +0.000 A 
ATOM      9  C   UNL     1       5.663   3.433  13.845  0.00  0.00    +0.000 A 
BRANCH   3  11
ATOM     10  C   UNL     1       4.032   3.191  11.302  0.00  0.00    +0.000 C 
ATOM     11  O   UNL     1       5.325   2.701  11.644  0.00  0.00    +0.000 OA
ENDBRANCH   3  11
ENDBRANCH   1   8
BRANCH   1  12
ATOM     12  C   UNL     1       4.776   5.010  16.626  0.00  0.00    +0.000 C 
BRANCH  12  13
ATOM     13  C   UNL     1       3.681   4.071  17.160  0.00  0.00    +0.000 C 
ATOM     14  O   UNL     1       3.817   2.849  17.213  0.00  0.00    +0.000 OA
ATOM     15  N   UNL     1       2.519   4.709  17.534  0.00  0.00    +0.000 N 
ATOM     16  H   UNL     1       2.500   5.716  17.630  0.00  0.00    +0.000 HD
BRANCH  15  17
ATOM     17  C   UNL     1       1.410   3.976  18.100  0.00  0.00    +0.000 C 
BRANCH  17  18
ATOM     18  C   UNL     1       1.674   3.750  19.540  0.00  0.00    +0.000 A 
ATOM     19  C   UNL     1       2.345   4.478  20.502  0.00  0.00    +0.000 A 
ATOM     20  C   UNL     1       2.245   3.738  21.702  0.00  0.00    +0.000 A 
ATOM     21  C   UNL     1       1.526   2.607  21.401  0.00  0.00    +0.000 A 
ATOM     22  O   UNL     1       1.176   2.601  20.089  0.00  0.00    +0.000 OA
ENDBRANCH  17  18
ENDBRANCH  15  17
ENDBRANCH  12  13
ENDBRANCH   1  12
TORSDOF 6
ENDMDL
MODEL 9
REMARK VINA RESULT:      -6.5      2.675      7.055
REMARK  Name = 
REMARK  7 active torsions:
REMARK  status: ('A' for Active; 'I' for Inactive)
REMARK    1  A    between atoms: C_1  and  O_2
REMARK    2  A    between atoms: O_2  and  C_3
REMARK    3  A    between atoms: C_8  and  N_9
REMARK    4  A    between atoms: N_9  and  C_10
REMARK    5  A    between atoms: C_10  and  C_11
REMARK    6  A    between atoms: N_13  and  C_14
REMARK    7  A    between atoms: C_14  and  C_15
REMARK                            x       y       z     vdW  Elec       q    Type
REMARK                         _______ _______ _______ _____ _____    ______ ____
ROOT
ATOM      1  N   UNL     1       5.334   5.909  18.324  0.00  0.00    +0.000 N 
ATOM      2  H   UNL     1       5.691   6.453  19.109  0.00  0.00    +0.000 HD
ENDROOT
BRANCH   1   8
ATOM      3  C   UNL     1       2.879   3.627  19.973  0.00  0.00    +0.000 A 
ATOM      4  C   UNL     1       1.814   3.731  19.085  0.00  0.00    +0.000 A 
ATOM      5  C   UNL     1       1.957   4.517  17.952  0.00  0.00    +0.000 A 
ATOM      6  F   UNL     1       0.928   4.634  17.101  0.00  0.00    +0.000 F 
ATOM      7  C   UNL     1       3.140   5.202  17.689  0.00  0.00    +0.000 A 
ATOM      8  C   UNL     1       4.225   5.118  18.568  0.00  0.00    +0.000 A 
ATOM      9  C   UNL     1       4.063   4.339  19.722  0.00  0.00    +0.000 A 
BRANCH   3  11
ATOM     10  C   UNL     1       1.574   2.579  21.643  0.00  0.00    +0.000 C 
ATOM     11  O   UNL     1       2.865   2.903  21.135  0.00  0.00    +0.000 OA
ENDBRANCH   3  11
ENDBRANCH   1   8
BRANCH   1  12
ATOM     12  C   UNL     1       5.634   6.504  17.025  0.00  0.00    +0.000 C 
BRANCH  12  13
ATOM     13  C   UNL     1       6.630   5.616  16.260  0.00  0.00    +0.000 C 
ATOM     14  O   UNL     1       7.610   5.097  16.794  0.00  0.00    +0.000 OA
ATOM     15  N   UNL     1       6.356   5.483  14.917  0.00  0.00    +0.000 N 
ATOM     16  H   UNL     1       5.462   5.784  14.547  0.00  0.00    +0.000 HD
BRANCH  15  17
ATOM     17  C   UNL     1       7.167   4.643  14.065  0.00  0.00    +0.000 C 
BRANCH  17  18
ATOM     18  C   UNL     1       6.282   3.939  13.109  0.00  0.00    +0.000 A 
ATOM     19  C   UNL     1       4.914   3.919  12.928  0.00  0.00    +0.000 A 
ATOM     20  C   UNL     1       4.670   3.054  11.837  0.00  0.00    +0.000 A 
ATOM     21  C   UNL     1       5.897   2.596  11.424  0.00  0.00    +0.000 A 
ATOM     22  O   UNL     1       6.885   3.125  12.191  0.00  0.00    +0.000 OA
ENDBRANCH  17  18
ENDBRANCH  15  17
ENDBRANCH  12  13
ENDBRANCH   1  12
TORSDOF 6
ENDMDL
