MODEL 1
REMARK VINA RESULT:      -8.6      0.000      0.000
REMARK  Name = 
REMARK  7 active torsions:
REMARK  status: ('A' for Active; 'I' for Inactive)
REMARK    1  A    between atoms: C_1  and  O_2
REMARK    2  A    between atoms: O_2  and  C_3
REMARK    3  A    between atoms: C_6  and  C_7
REMARK    4  A    between atoms: C_9  and  C_10
REMARK    5  A    between atoms: C_18  and  N_19
REMARK    6  A    between atoms: C_27  and  O_28
REMARK    7  A    between atoms: O_28  and  C_29
REMARK                            x       y       z     vdW  Elec       q    Type
REMARK                         _______ _______ _______ _____ _____    ______ ____
ROOT
ATOM      1  C   UNL     1       8.515   9.148  18.518  0.00  0.00    +0.000 A 
ATOM      2  C   UNL     1       7.632   8.990  17.422  0.00  0.00    +0.000 A 
ATOM      3  C   UNL     1       7.386   7.649  17.398  0.00  0.00    +0.000 A 
ATOM      4  N   UNL     1       8.105   7.092  18.422  0.00  0.00    +0.000 N 
ATOM      5  N   UNL     1       8.743   7.993  19.164  0.00  0.00    +0.000 NA
ATOM      6  H   UNL     1       8.255   6.104  18.614  0.00  0.00    +0.000 HD
ENDROOT
BRANCH   3   7
ATOM      7  C   UNL     1       6.876   6.733  16.490  0.00  0.00    +0.000 C 
ATOM      8  C   UNL     1       6.091   5.708  16.858  0.00  0.00    +0.000 C 
ATOM      9  C   UNL     1       6.622   4.476  16.186  0.00  0.00    +0.000 C 
ATOM     10  O   UNL     1       7.753   4.291  15.771  0.00  0.00    +0.000 OA
ATOM     11  N   UNL     1       5.650   3.542  16.369  0.00  0.00    +0.000 N 
ATOM     12  C   UNL     1       4.758   3.954  17.374  0.00  0.00    +0.000 A 
ATOM     13  C   UNL     1       3.790   3.119  17.884  0.00  0.00    +0.000 A 
ATOM     14  C   UNL     1       3.037   3.629  18.936  0.00  0.00    +0.000 A 
ATOM     15  C   UNL     1       3.242   4.967  19.353  0.00  0.00    +0.000 A 
ATOM     16  C   UNL     1       4.216   5.814  18.760  0.00  0.00    +0.000 A 
ATOM     17  C   UNL     1       5.033   5.271  17.779  0.00  0.00    +0.000 A 
ATOM     18  H   UNL     1       5.365   2.989  15.574  0.00  0.00    +0.000 HD
BRANCH  15  19
ATOM     19  N   UNL     1       2.395   5.452  20.462  0.00  0.00    +0.000 N 
ATOM     20  O   UNL     1       1.945   6.602  20.383  0.00  0.00    +0.000 OA
ATOM     21  O   UNL     1       2.195   4.676  21.409  0.00  0.00    +0.000 OA
ENDBRANCH  15  19
ENDBRANCH   3   7
BRANCH   1  25
ATOM     22  C   UNL     1      10.931  12.388  19.689  0.00  0.00    +0.000 A 
ATOM     23  C   UNL     1      10.087  11.760  20.627  0.00  0.00    +0.000 A 
ATOM     24  C   UNL     1       9.254  10.717  20.247  0.00  0.00    +0.000 A 
ATOM     25  C   UNL     1       9.230  10.337  18.907  0.00  0.00    +0.000 A 
ATOM     26  C   UNL     1       9.975  11.048  17.956  0.00  0.00    +0.000 A 
ATOM     27  C   UNL     1      10.828  12.080  18.331  0.00  0.00    +0.000 A 
BRANCH  22  29
ATOM     28  C   UNL     1      11.302  14.602  20.357  0.00  0.00    +0.000 C 
ATOM     29  O   UNL     1      11.859  13.305  20.121  0.00  0.00    +0.000 OA
ENDBRANCH  22  29
BRANCH  27  30
ATOM     30  O   UNL     1      11.494  12.591  17.254  0.00  0.00    +0.000 OA
ATOM     31  C   UNL     1      11.104  13.866  16.774  0.00  0.00    +0.000 C 
ENDBRANCH  27  30
ENDBRANCH   1  25
TORSDOF 5
ENDMDL
MODEL 2
REMARK VINA RESULT:      -8.5      4.883      8.333
REMARK  Name = 
REMARK  7 active torsions:
REMARK  status: ('A' for Active; 'I' for Inactive)
REMARK    1  A    between atoms: C_1  and  O_2
REMARK    2  A    between atoms: O_2  and  C_3
REMARK    3  A    between atoms: C_6  and  C_7
REMARK    4  A    between atoms: C_9  and  C_10
REMARK    5  A    between atoms: C_18  and  N_19
REMARK    6  A    between atoms: C_27  and  O_28
REMARK    7  A    between atoms: O_28  and  C_29
REMARK                            x       y       z     vdW  Elec       q    Type
REMARK                         _______ _______ _______ _____ _____    ______ ____
ROOT
ATOM      1  C   UNL     1       1.057   8.206  20.706  0.00  0.00    +0.000 A 
ATOM      2  C   UNL     1       1.157   6.843  21.081  0.00  0.00    +0.000 A 
ATOM      3  C   UNL     1       1.915   6.291  20.090  0.00  0.00    +0.000 A 
ATOM      4  N   UNL     1       2.209   7.296  19.206  0.00  0.00    +0.000 N 
ATOM      5  N   UNL     1       1.761   8.485  19.597  0.00  0.00    +0.000 NA
ATOM      6  H   UNL     1       2.645   7.213  18.290  0.00  0.00    +0.000 HD
ENDROOT
BRANCH   3   7
ATOM      7  C   UNL     1       2.189   5.016  19.621  0.00  0.00    +0.000 C 
ATOM      8  C   UNL     1       3.096   4.776  18.661  0.00  0.00    +0.000 C 
ATOM      9  C   UNL     1       2.456   3.854  17.664  0.00  0.00    +0.000 C 
ATOM     10  O   UNL     1       1.264   3.695  17.464  0.00  0.00    +0.000 OA
ATOM     11  N   UNL     1       3.485   3.435  16.878  0.00  0.00    +0.000 N 
ATOM     12  C   UNL     1       4.605   4.266  17.053  0.00  0.00    +0.000 A 
ATOM     13  C   UNL     1       5.718   4.177  16.249  0.00  0.00    +0.000 A 
ATOM     14  C   UNL     1       6.714   5.120  16.479  0.00  0.00    +0.000 A 
ATOM     15  C   UNL     1       6.570   6.035  17.552  0.00  0.00    +0.000 A 
ATOM     16  C   UNL     1       5.427   6.054  18.394  0.00  0.00    +0.000 A 
ATOM     17  C   UNL     1       4.392   5.179  18.100  0.00  0.00    +0.000 A 
ATOM     18  H   UNL     1       3.558   2.449  16.675  0.00  0.00    +0.000 HD
BRANCH  15  19
ATOM     19  N   UNL     1       7.674   6.996  17.753  0.00  0.00    +0.000 N 
ATOM     20  O   UNL     1       8.338   6.901  18.792  0.00  0.00    +0.000 OA
ATOM     21  O   UNL     1       7.859   7.846  16.869  0.00  0.00    +0.000 OA
ENDBRANCH  15  19
ENDBRANCH   3   7
BRANCH   1  25
ATOM     22  C   UNL     1      -1.011  11.391  22.517  0.00  0.00    +0.000 A 
ATOM     23  C   UNL     1      -0.704  10.234  23.260  0.00  0.00    +0.000 A 
ATOM     24  C   UNL     1      -0.059   9.159  22.666  0.00  0.00    +0.000 A 
ATOM     25  C   UNL     1       0.233   9.224  21.306  0.00  0.00    +0.000 A 
ATOM     26  C   UNL     1      -0.188  10.322  20.543  0.00  0.00    +0.000 A 
ATOM     27  C   UNL     1      -0.815  11.413  21.134  0.00  0.00    +0.000 A 
BRANCH  22  29
ATOM     28  C   UNL     1      -2.924  12.480  23.315  0.00  0.00    +0.000 C 
ATOM     29  O   UNL     1      -1.501  12.501  23.163  0.00  0.00    +0.000 OA
ENDBRANCH  22  29
BRANCH  27  30
ATOM     30  O   UNL     1      -1.085  12.389  20.217  0.00  0.00    +0.000 OA
ATOM     31  C   UNL     1      -1.768  12.018  19.032  0.00  0.00    +0.000 C 
ENDBRANCH  27  30
ENDBRANCH   1  25
TORSDOF 5
ENDMDL
MODEL 3
REMARK VINA RESULT:      -8.5      5.489      8.714
REMARK  Name = 
REMARK  7 active torsions:
REMARK  status: ('A' for Active; 'I' for Inactive)
REMARK    1  A    between atoms: C_1  and  O_2
REMARK    2  A    between atoms: O_2  and  C_3
REMARK    3  A    between atoms: C_6  and  C_7
REMARK    4  A    between atoms: C_9  and  C_10
REMARK    5  A    between atoms: C_18  and  N_19
REMARK    6  A    between atoms: C_27  and  O_28
REMARK    7  A    between atoms: O_28  and  C_29
REMARK                            x       y       z     vdW  Elec       q    Type
REMARK                         _______ _______ _______ _____ _____    ______ ____
ROOT
ATOM      1  C   UNL     1       3.082   7.235  18.081  0.00  0.00    +0.000 A 
ATOM      2  C   UNL     1       2.346   7.066  19.279  0.00  0.00    +0.000 A 
ATOM      3  C   UNL     1       1.617   8.215  19.374  0.00  0.00    +0.000 A 
ATOM      4  N   UNL     1       1.943   8.985  18.289  0.00  0.00    +0.000 N 
ATOM      5  N   UNL     1       2.778   8.380  17.449  0.00  0.00    +0.000 NA
ATOM      6  H   UNL     1       1.686   9.954  18.112  0.00  0.00    +0.000 HD
ENDROOT
BRANCH   3   7
ATOM      7  C   UNL     1       0.915   8.885  20.363  0.00  0.00    +0.000 C 
ATOM      8  C   UNL     1       0.036   9.863  20.093  0.00  0.00    +0.000 C 
ATOM      9  C   UNL     1       0.341  11.005  21.019  0.00  0.00    +0.000 C 
ATOM     10  O   UNL     1       1.397  11.240  21.579  0.00  0.00    +0.000 OA
ATOM     11  N   UNL     1      -0.727  11.839  20.893  0.00  0.00    +0.000 N 
ATOM     12  C   UNL     1      -1.467  11.519  19.742  0.00  0.00    +0.000 A 
ATOM     13  C   UNL     1      -2.489  12.316  19.280  0.00  0.00    +0.000 A 
ATOM     14  C   UNL     1      -3.075  11.924  18.081  0.00  0.00    +0.000 A 
ATOM     15  C   UNL     1      -2.659  10.716  17.467  0.00  0.00    +0.000 A 
ATOM     16  C   UNL     1      -1.637   9.893  18.009  0.00  0.00    +0.000 A 
ATOM     17  C   UNL     1      -0.987  10.338  19.150  0.00  0.00    +0.000 A 
ATOM     18  H   UNL     1      -1.150  12.201  21.735  0.00  0.00    +0.000 HD
BRANCH  15  19
ATOM     19  N   UNL     1      -3.337  10.349  16.207  0.00  0.00    +0.000 N 
ATOM     20  O   UNL     1      -4.448  10.847  15.984  0.00  0.00    +0.000 OA
ATOM     21  O   UNL     1      -2.753   9.554  15.455  0.00  0.00    +0.000 OA
ENDBRANCH  15  19
ENDBRANCH   3   7
BRANCH   1  25
ATOM     22  C   UNL     1       6.086   4.939  16.233  0.00  0.00    +0.000 A 
ATOM     23  C   UNL     1       4.839   4.358  16.539  0.00  0.00    +0.000 A 
ATOM     24  C   UNL     1       3.854   5.090  17.186  0.00  0.00    +0.000 A 
ATOM     25  C   UNL     1       4.139   6.397  17.573  0.00  0.00    +0.000 A 
ATOM     26  C   UNL     1       5.422   6.928  17.381  0.00  0.00    +0.000 A 
ATOM     27  C   UNL     1       6.408   6.209  16.715  0.00  0.00    +0.000 A 
BRANCH  22  29
ATOM     28  C   UNL     1       6.858   4.543  14.058  0.00  0.00    +0.000 C 
ATOM     29  O   UNL     1       6.982   4.249  15.453  0.00  0.00    +0.000 OA
ENDBRANCH  22  29
BRANCH  27  30
ATOM     30  O   UNL     1       7.557   6.939  16.591  0.00  0.00    +0.000 OA
ATOM     31  C   UNL     1       7.811   7.948  17.553  0.00  0.00    +0.000 C 
ENDBRANCH  27  30
ENDBRANCH   1  25
TORSDOF 5
ENDMDL
MODEL 4
REMARK VINA RESULT:      -8.5      0.992      1.993
REMARK  Name = 
REMARK  7 active torsions:
REMARK  status: ('A' for Active; 'I' for Inactive)
REMARK    1  A    between atoms: C_1  and  O_2
REMARK    2  A    between atoms: O_2  and  C_3
REMARK    3  A    between atoms: C_6  and  C_7
REMARK    4  A    between atoms: C_9  and  C_10
REMARK    5  A    between atoms: C_18  and  N_19
REMARK    6  A    between atoms: C_27  and  O_28
REMARK    7  A    between atoms: O_28  and  C_29
REMARK                            x       y       z     vdW  Elec       q    Type
REMARK                         _______ _______ _______ _____ _____    ______ ____
ROOT
ATOM      1  C   UNL     1       8.668   9.281  18.635  0.00  0.00    +0.000 A 
ATOM      2  C   UNL     1       7.849   9.038  17.505  0.00  0.00    +0.000 A 
ATOM      3  C   UNL     1       7.617   7.695  17.559  0.00  0.00    +0.000 A 
ATOM      4  N   UNL     1       8.284   7.219  18.656  0.00  0.00    +0.000 N 
ATOM      5  N   UNL     1       8.871   8.175  19.369  0.00  0.00    +0.000 NA
ATOM      6  H   UNL     1       8.434   6.247  18.922  0.00  0.00    +0.000 HD
ENDROOT
BRANCH   3   7
ATOM      7  C   UNL     1       7.167   6.713  16.690  0.00  0.00    +0.000 C 
ATOM      8  C   UNL     1       6.256   5.793  17.044  0.00  0.00    +0.000 C 
ATOM      9  C   UNL     1       6.774   4.457  16.596  0.00  0.00    +0.000 C 
ATOM     10  O   UNL     1       7.933   4.150  16.378  0.00  0.00    +0.000 OA
ATOM     11  N   UNL     1       5.712   3.618  16.731  0.00  0.00    +0.000 N 
ATOM     12  C   UNL     1       4.724   4.204  17.540  0.00  0.00    +0.000 A 
ATOM     13  C   UNL     1       3.627   3.502  17.986  0.00  0.00    +0.000 A 
ATOM     14  C   UNL     1       2.778   4.181  18.851  0.00  0.00    +0.000 A 
ATOM     15  C   UNL     1       3.032   5.543  19.147  0.00  0.00    +0.000 A 
ATOM     16  C   UNL     1       4.146   6.247  18.619  0.00  0.00    +0.000 A 
ATOM     17  C   UNL     1       5.046   5.539  17.837  0.00  0.00    +0.000 A 
ATOM     18  H   UNL     1       5.498   2.995  15.966  0.00  0.00    +0.000 HD
BRANCH  15  19
ATOM     19  N   UNL     1       2.078   6.210  20.057  0.00  0.00    +0.000 N 
ATOM     20  O   UNL     1       1.402   5.496  20.808  0.00  0.00    +0.000 OA
ATOM     21  O   UNL     1       2.008   7.448  20.005  0.00  0.00    +0.000 OA
ENDBRANCH  15  19
ENDBRANCH   3   7
BRANCH   1  25
ATOM     22  C   UNL     1      10.295  13.035  19.616  0.00  0.00    +0.000 A 
ATOM     23  C   UNL     1      10.410  12.536  18.304  0.00  0.00    +0.000 A 
ATOM     24  C   UNL     1       9.915  11.283  17.975  0.00  0.00    +0.000 A 
ATOM     25  C   UNL     1       9.348  10.504  18.980  0.00  0.00    +0.000 A 
ATOM     26  C   UNL     1       9.352  10.951  20.309  0.00  0.00    +0.000 A 
ATOM     27  C   UNL     1       9.826  12.214  20.644  0.00  0.00    +0.000 A 
BRANCH  22  29
ATOM     28  C   UNL     1      11.246  14.996  18.759  0.00  0.00    +0.000 C 
ATOM     29  O   UNL     1      10.646  14.338  19.879  0.00  0.00    +0.000 OA
ENDBRANCH  22  29
BRANCH  27  30
ATOM     30  O   UNL     1       9.681  12.462  21.980  0.00  0.00    +0.000 OA
ATOM     31  C   UNL     1       8.466  12.079  22.599  0.00  0.00    +0.000 C 
ENDBRANCH  27  30
ENDBRANCH   1  25
TORSDOF 5
ENDMDL
MODEL 5
REMARK VINA RESULT:      -8.4      4.973      8.620
REMARK  Name = 
REMARK  7 active torsions:
REMARK  status: ('A' for Active; 'I' for Inactive)
REMARK    1  A    between atoms: C_1  and  O_2
REMARK    2  A    between atoms: O_2  and  C_3
REMARK    3  A    between atoms: C_6  and  C_7
REMARK    4  A    between atoms: C_9  and  C_10
REMARK    5  A    between atoms: C_18  and  N_19
REMARK    6  A    between atoms: C_27  and  O_28
REMARK    7  A    between atoms: O_28  and  C_29
REMARK                            x       y       z     vdW  Elec       q    Type
REMARK                         _______ _______ _______ _____ _____    ______ ____
ROOT
ATOM      1  C   UNL     1       3.166   6.586  18.436  0.00  0.00    +0.000 A 
ATOM      2  C   UNL     1       2.469   6.221  19.614  0.00  0.00    +0.000 A 
ATOM      3  C   UNL     1       1.762   7.345  19.929  0.00  0.00    +0.000 A 
ATOM      4  N   UNL     1       2.062   8.285  18.980  0.00  0.00    +0.000 N 
ATOM      5  N   UNL     1       2.857   7.824  18.019  0.00  0.00    +0.000 NA
ATOM      6  H   UNL     1       1.814   9.272  18.979  0.00  0.00    +0.000 HD
ENDROOT
BRANCH   3   7
ATOM      7  C   UNL     1       1.105   7.843  21.044  0.00  0.00    +0.000 C 
ATOM      8  C   UNL     1       0.417   8.996  21.024  0.00  0.00    +0.000 C 
ATOM      9  C   UNL     1       0.832   9.783  22.234  0.00  0.00    +0.000 C 
ATOM     10  O   UNL     1       1.867   9.673  22.866  0.00  0.00    +0.000 OA
ATOM     11  N   UNL     1      -0.076  10.794  22.310  0.00  0.00    +0.000 N 
ATOM     12  C   UNL     1      -0.770  10.922  21.094  0.00  0.00    +0.000 A 
ATOM     13  C   UNL     1      -1.613  11.978  20.838  0.00  0.00    +0.000 A 
ATOM     14  C   UNL     1      -2.163  12.024  19.561  0.00  0.00    +0.000 A 
ATOM     15  C   UNL     1      -1.903  10.967  18.654  0.00  0.00    +0.000 A 
ATOM     16  C   UNL     1      -1.070   9.865  18.981  0.00  0.00    +0.000 A 
ATOM     17  C   UNL     1      -0.443   9.873  20.218  0.00  0.00    +0.000 A 
ATOM     18  H   UNL     1      -0.496  10.990  23.206  0.00  0.00    +0.000 HD
BRANCH  15  19
ATOM     19  N   UNL     1      -2.535  11.069  17.323  0.00  0.00    +0.000 N 
ATOM     20  O   UNL     1      -3.593  11.706  17.234  0.00  0.00    +0.000 OA
ATOM     21  O   UNL     1      -1.970  10.499  16.377  0.00  0.00    +0.000 OA
ENDBRANCH  15  19
ENDBRANCH   3   7
BRANCH   1  25
ATOM     22  C   UNL     1       6.042   4.583  16.107  0.00  0.00    +0.000 A 
ATOM     23  C   UNL     1       4.841   3.935  16.458  0.00  0.00    +0.000 A 
ATOM     24  C   UNL     1       3.901   4.567  17.260  0.00  0.00    +0.000 A 
ATOM     25  C   UNL     1       4.191   5.837  17.755  0.00  0.00    +0.000 A 
ATOM     26  C   UNL     1       5.440   6.424  17.508  0.00  0.00    +0.000 A 
ATOM     27  C   UNL     1       6.378   5.807  16.688  0.00  0.00    +0.000 A 
BRANCH  22  29
ATOM     28  C   UNL     1       6.574   4.372  13.836  0.00  0.00    +0.000 C 
ATOM     29  O   UNL     1       6.880   4.003  15.185  0.00  0.00    +0.000 OA
ENDBRANCH  22  29
BRANCH  27  30
ATOM     30  O   UNL     1       7.495   6.580  16.541  0.00  0.00    +0.000 OA
ATOM     31  C   UNL     1       7.724   7.605  17.493  0.00  0.00    +0.000 C 
ENDBRANCH  27  30
ENDBRANCH   1  25
TORSDOF 5
ENDMDL
MODEL 6
REMARK VINA RESULT:      -8.3      1.463      1.621
REMARK  Name = 
REMARK  7 active torsions:
REMARK  status: ('A' for Active; 'I' for Inactive)
REMARK    1  A    between atoms: C_1  and  O_2
REMARK    2  A    between atoms: O_2  and  C_3
REMARK    3  A    between atoms: C_6  and  C_7
REMARK    4  A    between atoms: C_9  and  C_10
REMARK    5  A    between atoms: C_18  and  N_19
REMARK    6  A    between atoms: C_27  and  O_28
REMARK    7  A    between atoms: O_28  and  C_29
REMARK                            x       y       z     vdW  Elec       q    Type
REMARK                         _______ _______ _______ _____ _____    ______ ____
ROOT
ATOM      1  C   UNL     1       8.673   9.676  18.476  0.00  0.00    +0.000 A 
ATOM      2  C   UNL     1       7.838   9.255  17.413  0.00  0.00    +0.000 A 
ATOM      3  C   UNL     1       7.714   7.912  17.613  0.00  0.00    +0.000 A 
ATOM      4  N   UNL     1       8.452   7.605  18.725  0.00  0.00    +0.000 N 
ATOM      5  N   UNL     1       8.986   8.672  19.311  0.00  0.00    +0.000 NA
ATOM      6  H   UNL     1       8.686   6.681  19.083  0.00  0.00    +0.000 HD
ENDROOT
BRANCH   3   7
ATOM      7  C   UNL     1       7.313   6.813  16.869  0.00  0.00    +0.000 C 
ATOM      8  C   UNL     1       6.386   5.944  17.301  0.00  0.00    +0.000 C 
ATOM      9  C   UNL     1       6.930   4.563  17.074  0.00  0.00    +0.000 C 
ATOM     10  O   UNL     1       8.100   4.239  16.964  0.00  0.00    +0.000 OA
ATOM     11  N   UNL     1       5.864   3.741  17.270  0.00  0.00    +0.000 N 
ATOM     12  C   UNL     1       4.833   4.425  17.935  0.00  0.00    +0.000 A 
ATOM     13  C   UNL     1       3.715   3.782  18.417  0.00  0.00    +0.000 A 
ATOM     14  C   UNL     1       2.819   4.569  19.131  0.00  0.00    +0.000 A 
ATOM     15  C   UNL     1       3.054   5.961  19.245  0.00  0.00    +0.000 A 
ATOM     16  C   UNL     1       4.194   6.595  18.682  0.00  0.00    +0.000 A 
ATOM     17  C   UNL     1       5.136   5.792  18.057  0.00  0.00    +0.000 A 
ATOM     18  H   UNL     1       5.693   3.014  16.591  0.00  0.00    +0.000 HD
BRANCH  15  19
ATOM     19  N   UNL     1       2.051   6.741  20.000  0.00  0.00    +0.000 N 
ATOM     20  O   UNL     1       1.902   7.932  19.698  0.00  0.00    +0.000 OA
ATOM     21  O   UNL     1       1.429   6.154  20.898  0.00  0.00    +0.000 OA
ENDBRANCH  15  19
ENDBRANCH   3   7
BRANCH   1  25
ATOM     22  C   UNL     1      10.554  13.436  18.655  0.00  0.00    +0.000 A 
ATOM     23  C   UNL     1      11.158  12.314  19.258  0.00  0.00    +0.000 A 
ATOM     24  C   UNL     1      10.530  11.077  19.243  0.00  0.00    +0.000 A 
ATOM     25  C   UNL     1       9.266  10.976  18.666  0.00  0.00    +0.000 A 
ATOM     26  C   UNL     1       8.616  12.119  18.182  0.00  0.00    +0.000 A 
ATOM     27  C   UNL     1       9.246  13.359  18.174  0.00  0.00    +0.000 A 
BRANCH  22  29
ATOM     28  C   UNL     1      12.206  14.593  17.464  0.00  0.00    +0.000 C 
ATOM     29  O   UNL     1      11.264  14.607  18.542  0.00  0.00    +0.000 OA
ENDBRANCH  22  29
BRANCH  27  30
ATOM     30  O   UNL     1       8.452  14.316  17.608  0.00  0.00    +0.000 OA
ATOM     31  C   UNL     1       7.525  14.989  18.441  0.00  0.00    +0.000 C 
ENDBRANCH  27  30
ENDBRANCH   1  25
TORSDOF 5
ENDMDL
MODEL 7
REMARK VINA RESULT:      -8.2      1.995      2.407
REMARK  Name = 
REMARK  7 active torsions:
REMARK  status: ('A' for Active; 'I' for Inactive)
REMARK    1  A    between atoms: C_1  and  O_2
REMARK    2  A    between atoms: O_2  and  C_3
REMARK    3  A    between atoms: C_6  and  C_7
REMARK    4  A    between atoms: C_9  and  C_10
REMARK    5  A    between atoms: C_18  and  N_19
REMARK    6  A    between atoms: C_27  and  O_28
REMARK    7  A    between atoms: O_28  and  C_29
REMARK                            x       y       z     vdW  Elec       q    Type
REMARK                         _______ _______ _______ _____ _____    ______ ____
ROOT
ATOM      1  C   UNL     1       8.861  10.045  18.358  0.00  0.00    +0.000 A 
ATOM      2  C   UNL     1       8.075   9.450  17.340  0.00  0.00    +0.000 A 
ATOM      3  C   UNL     1       7.943   8.156  17.752  0.00  0.00    +0.000 A 
ATOM      4  N   UNL     1       8.630   8.040  18.931  0.00  0.00    +0.000 N 
ATOM      5  N   UNL     1       9.136   9.193  19.358  0.00  0.00    +0.000 NA
ATOM      6  H   UNL     1       8.849   7.189  19.445  0.00  0.00    +0.000 HD
ENDROOT
BRANCH   3   7
ATOM      7  C   UNL     1       7.578   6.947  17.180  0.00  0.00    +0.000 C 
ATOM      8  C   UNL     1       6.432   6.317  17.485  0.00  0.00    +0.000 C 
ATOM      9  C   UNL     1       6.771   4.878  17.744  0.00  0.00    +0.000 C 
ATOM     10  O   UNL     1       7.852   4.421  18.072  0.00  0.00    +0.000 OA
ATOM     11  N   UNL     1       5.566   4.246  17.777  0.00  0.00    +0.000 N 
ATOM     12  C   UNL     1       4.527   5.180  17.926  0.00  0.00    +0.000 A 
ATOM     13  C   UNL     1       3.227   4.799  18.170  0.00  0.00    +0.000 A 
ATOM     14  C   UNL     1       2.319   5.831  18.385  0.00  0.00    +0.000 A 
ATOM     15  C   UNL     1       2.751   7.174  18.258  0.00  0.00    +0.000 A 
ATOM     16  C   UNL     1       4.092   7.522  17.948  0.00  0.00    +0.000 A 
ATOM     17  C   UNL     1       5.016   6.494  17.834  0.00  0.00    +0.000 A 
ATOM     18  H   UNL     1       5.464   3.388  17.255  0.00  0.00    +0.000 HD
BRANCH  15  19
ATOM     19  N   UNL     1       1.731   8.219  18.478  0.00  0.00    +0.000 N 
ATOM     20  O   UNL     1       1.430   8.493  19.647  0.00  0.00    +0.000 OA
ATOM     21  O   UNL     1       1.231   8.751  17.475  0.00  0.00    +0.000 OA
ENDBRANCH  15  19
ENDBRANCH   3   7
BRANCH   1  25
ATOM     22  C   UNL     1      10.573  13.868  17.958  0.00  0.00    +0.000 A 
ATOM     23  C   UNL     1      11.382  12.762  18.286  0.00  0.00    +0.000 A 
ATOM     24  C   UNL     1      10.826  11.503  18.461  0.00  0.00    +0.000 A 
ATOM     25  C   UNL     1       9.444  11.363  18.359  0.00  0.00    +0.000 A 
ATOM     26  C   UNL     1       8.632  12.488  18.160  0.00  0.00    +0.000 A 
ATOM     27  C   UNL     1       9.182  13.749  17.962  0.00  0.00    +0.000 A 
BRANCH  22  29
ATOM     28  C   UNL     1      11.782  15.711  18.749  0.00  0.00    +0.000 C 
ATOM     29  O   UNL     1      11.163  15.066  17.632  0.00  0.00    +0.000 OA
ENDBRANCH  22  29
BRANCH  27  30
ATOM     30  O   UNL     1       8.212  14.684  17.732  0.00  0.00    +0.000 OA
ATOM     31  C   UNL     1       6.861  14.259  17.750  0.00  0.00    +0.000 C 
ENDBRANCH  27  30
ENDBRANCH   1  25
TORSDOF 5
ENDMDL
MODEL 8
REMARK VINA RESULT:      -7.9      1.802      2.546
REMARK  Name = 
REMARK  7 active torsions:
REMARK  status: ('A' for Active; 'I' for Inactive)
REMARK    1  A    between atoms: C_1  and  O_2
REMARK    2  A    between atoms: O_2  and  C_3
REMARK    3  A    between atoms: C_6  and  C_7
REMARK    4  A    between atoms: C_9  and  C_10
REMARK    5  A    between atoms: C_18  and  N_19
REMARK    6  A    between atoms: C_27  and  O_28
REMARK    7  A    between atoms: O_28  and  C_29
REMARK                            x       y       z     vdW  Elec       q    Type
REMARK                         _______ _______ _______ _____ _____    ______ ____
ROOT
ATOM      1  C   UNL     1       8.910   9.975  18.491  0.00  0.00    +0.000 A 
ATOM      2  C   UNL     1       8.141   9.432  17.432  0.00  0.00    +0.000 A 
ATOM      3  C   UNL     1       7.976   8.127  17.791  0.00  0.00    +0.000 A 
ATOM      4  N   UNL     1       8.630   7.954  18.982  0.00  0.00    +0.000 N 
ATOM      5  N   UNL     1       9.144   9.081  19.466  0.00  0.00    +0.000 NA
ATOM      6  H   UNL     1       8.819   7.081  19.469  0.00  0.00    +0.000 HD
ENDROOT
BRANCH   3   7
ATOM      7  C   UNL     1       7.605   6.947  17.164  0.00  0.00    +0.000 C 
ATOM      8  C   UNL     1       6.451   6.316  17.431  0.00  0.00    +0.000 C 
ATOM      9  C   UNL     1       6.773   4.863  17.631  0.00  0.00    +0.000 C 
ATOM     10  O   UNL     1       7.846   4.383  17.949  0.00  0.00    +0.000 OA
ATOM     11  N   UNL     1       5.562   4.243  17.627  0.00  0.00    +0.000 N 
ATOM     12  C   UNL     1       4.530   5.179  17.806  0.00  0.00    +0.000 A 
ATOM     13  C   UNL     1       3.224   4.802  18.020  0.00  0.00    +0.000 A 
ATOM     14  C   UNL     1       2.324   5.832  18.270  0.00  0.00    +0.000 A 
ATOM     15  C   UNL     1       2.770   7.175  18.205  0.00  0.00    +0.000 A 
ATOM     16  C   UNL     1       4.118   7.522  17.924  0.00  0.00    +0.000 A 
ATOM     17  C   UNL     1       5.033   6.491  17.775  0.00  0.00    +0.000 A 
ATOM     18  H   UNL     1       5.457   3.409  17.067  0.00  0.00    +0.000 HD
BRANCH  15  19
ATOM     19  N   UNL     1       1.757   8.220  18.461  0.00  0.00    +0.000 N 
ATOM     20  O   UNL     1       1.262   8.794  17.483  0.00  0.00    +0.000 OA
ATOM     21  O   UNL     1       1.475   8.465  19.644  0.00  0.00    +0.000 OA
ENDBRANCH  15  19
ENDBRANCH   3   7
BRANCH   1  25
ATOM     22  C   UNL     1      10.346  13.930  18.505  0.00  0.00    +0.000 A 
ATOM     23  C   UNL     1      10.782  13.023  17.519  0.00  0.00    +0.000 A 
ATOM     24  C   UNL     1      10.349  11.705  17.525  0.00  0.00    +0.000 A 
ATOM     25  C   UNL     1       9.516  11.280  18.557  0.00  0.00    +0.000 A 
ATOM     26  C   UNL     1       9.189  12.151  19.606  0.00  0.00    +0.000 A 
ATOM     27  C   UNL     1       9.600  13.479  19.596  0.00  0.00    +0.000 A 
BRANCH  22  29
ATOM     28  C   UNL     1      11.250  15.592  17.125  0.00  0.00    +0.000 C 
ATOM     29  O   UNL     1      10.658  15.263  18.386  0.00  0.00    +0.000 OA
ENDBRANCH  22  29
BRANCH  27  30
ATOM     30  O   UNL     1       9.121  14.156  20.683  0.00  0.00    +0.000 OA
ATOM     31  C   UNL     1       9.171  13.511  21.943  0.00  0.00    +0.000 C 
ENDBRANCH  27  30
ENDBRANCH   1  25
TORSDOF 5
ENDMDL
MODEL 9
REMARK VINA RESULT:      -7.9      5.479      8.019
REMARK  Name = 
REMARK  7 active torsions:
REMARK  status: ('A' for Active; 'I' for Inactive)
REMARK    1  A    between atoms: C_1  and  O_2
REMARK    2  A    between atoms: O_2  and  C_3
REMARK    3  A    between atoms: C_6  and  C_7
REMARK    4  A    between atoms: C_9  and  C_10
REMARK    5  A    between atoms: C_18  and  N_19
REMARK    6  A    between atoms: C_27  and  O_28
REMARK    7  A    between atoms: O_28  and  C_29
REMARK                            x       y       z     vdW  Elec       q    Type
REMARK                         _______ _______ _______ _____ _____    ______ ____
ROOT
ATOM      1  C   UNL     1       1.143   9.842  19.444  0.00  0.00    +0.000 A 
ATOM      2  C   UNL     1       1.731   8.558  19.335  0.00  0.00    +0.000 A 
ATOM      3  C   UNL     1       2.423   8.619  18.161  0.00  0.00    +0.000 A 
ATOM      4  N   UNL     1       2.219   9.870  17.642  0.00  0.00    +0.000 N 
ATOM      5  N   UNL     1       1.504  10.658  18.440  0.00  0.00    +0.000 NA
ATOM      6  H   UNL     1       2.479  10.214  16.720  0.00  0.00    +0.000 HD
ENDROOT
BRANCH   3   7
ATOM      7  C   UNL     1       2.989   7.716  17.275  0.00  0.00    +0.000 C 
ATOM      8  C   UNL     1       3.499   6.537  17.667  0.00  0.00    +0.000 C 
ATOM      9  C   UNL     1       4.843   6.394  17.015  0.00  0.00    +0.000 C 
ATOM     10  O   UNL     1       5.559   7.287  16.596  0.00  0.00    +0.000 OA
ATOM     11  N   UNL     1       5.185   5.094  17.222  0.00  0.00    +0.000 N 
ATOM     12  C   UNL     1       4.379   4.529  18.225  0.00  0.00    +0.000 A 
ATOM     13  C   UNL     1       4.632   3.285  18.757  0.00  0.00    +0.000 A 
ATOM     14  C   UNL     1       3.807   2.890  19.805  0.00  0.00    +0.000 A 
ATOM     15  C   UNL     1       2.731   3.725  20.195  0.00  0.00    +0.000 A 
ATOM     16  C   UNL     1       2.471   4.978  19.579  0.00  0.00    +0.000 A 
ATOM     17  C   UNL     1       3.356   5.415  18.604  0.00  0.00    +0.000 A 
ATOM     18  H   UNL     1       5.541   4.565  16.440  0.00  0.00    +0.000 HD
BRANCH  15  19
ATOM     19  N   UNL     1       1.882   3.236  21.300  0.00  0.00    +0.000 N 
ATOM     20  O   UNL     1       2.397   3.132  22.420  0.00  0.00    +0.000 OA
ATOM     21  O   UNL     1       0.705   2.949  21.032  0.00  0.00    +0.000 OA
ENDBRANCH  15  19
ENDBRANCH   3   7
BRANCH   1  25
ATOM     22  C   UNL     1      -1.446  11.439  22.351  0.00  0.00    +0.000 A 
ATOM     23  C   UNL     1      -0.611  10.349  22.670  0.00  0.00    +0.000 A 
ATOM     24  C   UNL     1       0.218   9.786  21.711  0.00  0.00    +0.000 A 
ATOM     25  C   UNL     1       0.171  10.284  20.411  0.00  0.00    +0.000 A 
ATOM     26  C   UNL     1      -0.753  11.281  20.068  0.00  0.00    +0.000 A 
ATOM     27  C   UNL     1      -1.572  11.866  21.027  0.00  0.00    +0.000 A 
BRANCH  22  29
ATOM     28  C   UNL     1      -1.660  13.408  23.601  0.00  0.00    +0.000 C 
ATOM     29  O   UNL     1      -2.135  12.081  23.352  0.00  0.00    +0.000 OA
ENDBRANCH  22  29
BRANCH  27  30
ATOM     30  O   UNL     1      -2.349  12.850  20.484  0.00  0.00    +0.000 OA
ATOM     31  C   UNL     1      -3.575  12.473  19.881  0.00  0.00    +0.000 C 
ENDBRANCH  27  30
ENDBRANCH   1  25
TORSDOF 5
ENDMDL
