MODEL 1
REMARK VINA RESULT:      -7.0      0.000      0.000
REMARK  Name = 
REMARK  19 active torsions:
REMARK  status: ('A' for Active; 'I' for Inactive)
REMARK    1  A    between atoms: C_1  and  C_2
REMARK    2  A    between atoms: C_2  and  C_3
REMARK    3  A    between atoms: C_3  and  C_4
REMARK    4  A    between atoms: C_4  and  C_5
REMARK    5  A    between atoms: C_5  and  C_6
REMARK    6  A    between atoms: C_6  and  C_7
REMARK    7  A    between atoms: C_7  and  C_8
REMARK    8  A    between atoms: C_8  and  O_9
REMARK    9  A    between atoms: C_8  and  C_10
REMARK   10  A    between atoms: C_11  and  C_12
REMARK   11  A    between atoms: C_13  and  O_14
REMARK   12  A    between atoms: C_18  and  C_19
REMARK   13  A    between atoms: C_19  and  C_20
REMARK   14  A    between atoms: C_20  and  C_21
REMARK   15  A    between atoms: C_21  and  C_22
REMARK   16  A    between atoms: C_22  and  C_23
REMARK   17  A    between atoms: C_23  and  C_24
REMARK   18  A    between atoms: C_24  and  C_25
REMARK   19  A    between atoms: C_25  and  O_27
REMARK                            x       y       z     vdW  Elec       q    Type
REMARK                         _______ _______ _______ _____ _____    ______ ____
ROOT
ATOM      1  C   UNL     1       4.155   3.939  19.587  0.00  0.00    +0.000 C 
ATOM      2  C   UNL     1       4.008   2.411  19.797  0.00  0.00    +0.000 C 
ATOM      3  C   UNL     1       3.510   1.881  18.462  0.00  0.00    +0.000 C 
ATOM      4  C   UNL     1       2.588   2.993  18.059  0.00  0.00    +0.000 C 
ATOM      5  O   UNL     1       1.723   2.838  17.203  0.00  0.00    +0.000 OA
ATOM      6  C   UNL     1       2.829   4.279  18.849  0.00  0.00    +0.000 C 
ENDROOT
BRANCH   2   7
ATOM      7  O   UNL     1       5.194   1.775  20.241  0.00  0.00    +0.000 OA
ATOM      8  H   UNL     1       5.953   2.131  19.749  0.00  0.00    +0.000 HD
ENDBRANCH   2   7
BRANCH   1  10
ATOM      9  C   UNL     1       6.283   5.265  19.151  0.00  0.00    +0.000 C 
ATOM     10  C   UNL     1       5.404   4.307  18.809  0.00  0.00    +0.000 C 
BRANCH   9  11
ATOM     11  C   UNL     1       7.526   5.551  18.349  0.00  0.00    +0.000 C 
BRANCH  11  12
ATOM     12  O   UNL     1       7.962   4.340  17.744  0.00  0.00    +0.000 OA
ATOM     13  H   UNL     1       8.903   4.226  17.939  0.00  0.00    +0.000 HD
ENDBRANCH  11  12
BRANCH  11  14
ATOM     14  C   UNL     1       7.315   6.610  17.261  0.00  0.00    +0.000 C 
BRANCH  14  15
ATOM     15  C   UNL     1       5.864   6.671  16.786  0.00  0.00    +0.000 C 
BRANCH  15  16
ATOM     16  C   UNL     1       5.704   6.155  15.359  0.00  0.00    +0.000 C 
BRANCH  16  17
ATOM     17  C   UNL     1       5.156   4.727  15.376  0.00  0.00    +0.000 C 
BRANCH  17  18
ATOM     18  C   UNL     1       6.160   3.735  14.798  0.00  0.00    +0.000 C 
BRANCH  18  20
ATOM     19  C   UNL     1       5.767   3.329  12.348  0.00  0.00    +0.000 C 
ATOM     20  C   UNL     1       6.555   4.124  13.374  0.00  0.00    +0.000 C 
ENDBRANCH  18  20
ENDBRANCH  17  18
ENDBRANCH  16  17
ENDBRANCH  15  16
ENDBRANCH  14  15
ENDBRANCH  11  14
ENDBRANCH   9  11
ENDBRANCH   1  10
BRANCH   6  21
ATOM     21  C   UNL     1       2.859   5.553  17.997  0.00  0.00    +0.000 C 
BRANCH  21  22
ATOM     22  C   UNL     1       2.547   6.811  18.810  0.00  0.00    +0.000 C 
BRANCH  22  23
ATOM     23  C   UNL     1       2.811   8.087  18.016  0.00  0.00    +0.000 C 
BRANCH  23  24
ATOM     24  C   UNL     1       1.495   8.801  17.710  0.00  0.00    +0.000 C 
BRANCH  24  25
ATOM     25  C   UNL     1       1.115   9.760  18.834  0.00  0.00    +0.000 C 
BRANCH  25  26
ATOM     26  C   UNL     1      -0.312  10.276  18.678  0.00  0.00    +0.000 C 
BRANCH  26  27
ATOM     27  C   UNL     1      -0.399  11.765  18.918  0.00  0.00    +0.000 C 
ATOM     28  O   UNL     1      -0.345  12.310  20.012  0.00  0.00    +0.000 OA
BRANCH  27  29
ATOM     29  O   UNL     1      -0.552  12.465  17.770  0.00  0.00    +0.000 OA
ATOM     30  H   UNL     1      -0.914  11.934  17.036  0.00  0.00    +0.000 HD
ENDBRANCH  27  29
ENDBRANCH  26  27
ENDBRANCH  25  26
ENDBRANCH  24  25
ENDBRANCH  23  24
ENDBRANCH  22  23
ENDBRANCH  21  22
ENDBRANCH   6  21
TORSDOF 18
ENDMDL
MODEL 2
REMARK VINA RESULT:      -6.7      1.761      2.004
REMARK  Name = 
REMARK  19 active torsions:
REMARK  status: ('A' for Active; 'I' for Inactive)
REMARK    1  A    between atoms: C_1  and  C_2
REMARK    2  A    between atoms: C_2  and  C_3
REMARK    3  A    between atoms: C_3  and  C_4
REMARK    4  A    between atoms: C_4  and  C_5
REMARK    5  A    between atoms: C_5  and  C_6
REMARK    6  A    between atoms: C_6  and  C_7
REMARK    7  A    between atoms: C_7  and  C_8
REMARK    8  A    between atoms: C_8  and  O_9
REMARK    9  A    between atoms: C_8  and  C_10
REMARK   10  A    between atoms: C_11  and  C_12
REMARK   11  A    between atoms: C_13  and  O_14
REMARK   12  A    between atoms: C_18  and  C_19
REMARK   13  A    between atoms: C_19  and  C_20
REMARK   14  A    between atoms: C_20  and  C_21
REMARK   15  A    between atoms: C_21  and  C_22
REMARK   16  A    between atoms: C_22  and  C_23
REMARK   17  A    between atoms: C_23  and  C_24
REMARK   18  A    between atoms: C_24  and  C_25
REMARK   19  A    between atoms: C_25  and  O_27
REMARK                            x       y       z     vdW  Elec       q    Type
REMARK                         _______ _______ _______ _____ _____    ______ ____
ROOT
ATOM      1  C   UNL     1       4.115   4.014  19.567  0.00  0.00    +0.000 C 
ATOM      2  C   UNL     1       3.897   2.495  19.772  0.00  0.00    +0.000 C 
ATOM      3  C   UNL     1       3.310   2.005  18.457  0.00  0.00    +0.000 C 
ATOM      4  C   UNL     1       2.432   3.168  18.106  0.00  0.00    +0.000 C 
ATOM      5  O   UNL     1       1.521   3.068  17.290  0.00  0.00    +0.000 OA
ATOM      6  C   UNL     1       2.777   4.432  18.893  0.00  0.00    +0.000 C 
ENDROOT
BRANCH   2   7
ATOM      7  O   UNL     1       5.065   1.791  20.155  0.00  0.00    +0.000 OA
ATOM      8  H   UNL     1       5.422   2.182  20.971  0.00  0.00    +0.000 HD
ENDBRANCH   2   7
BRANCH   1  10
ATOM      9  C   UNL     1       6.335   5.163  19.085  0.00  0.00    +0.000 C 
ATOM     10  C   UNL     1       5.345   4.323  18.735  0.00  0.00    +0.000 C 
BRANCH   9  11
ATOM     11  C   UNL     1       7.549   5.393  18.224  0.00  0.00    +0.000 C 
BRANCH  11  12
ATOM     12  O   UNL     1       7.929   4.153  17.639  0.00  0.00    +0.000 OA
ATOM     13  H   UNL     1       7.160   3.789  17.179  0.00  0.00    +0.000 HD
ENDBRANCH  11  12
BRANCH  11  14
ATOM     14  C   UNL     1       7.318   6.424  17.113  0.00  0.00    +0.000 C 
BRANCH  14  15
ATOM     15  C   UNL     1       6.074   6.111  16.283  0.00  0.00    +0.000 C 
BRANCH  15  16
ATOM     16  C   UNL     1       6.425   5.521  14.920  0.00  0.00    +0.000 C 
BRANCH  16  17
ATOM     17  C   UNL     1       5.518   4.329  14.615  0.00  0.00    +0.000 C 
BRANCH  17  18
ATOM     18  C   UNL     1       6.143   3.400  13.579  0.00  0.00    +0.000 C 
BRANCH  18  20
ATOM     19  C   UNL     1       4.489   3.222  11.694  0.00  0.00    +0.000 C 
ATOM     20  C   UNL     1       5.792   3.847  12.161  0.00  0.00    +0.000 C 
ENDBRANCH  18  20
ENDBRANCH  17  18
ENDBRANCH  16  17
ENDBRANCH  15  16
ENDBRANCH  14  15
ENDBRANCH  11  14
ENDBRANCH   9  11
ENDBRANCH   1  10
BRANCH   6  21
ATOM     21  C   UNL     1       2.837   5.711  18.051  0.00  0.00    +0.000 C 
BRANCH  21  22
ATOM     22  C   UNL     1       2.892   6.977  18.908  0.00  0.00    +0.000 C 
BRANCH  22  23
ATOM     23  C   UNL     1       1.930   8.050  18.408  0.00  0.00    +0.000 C 
BRANCH  23  24
ATOM     24  C   UNL     1       1.536   8.983  19.553  0.00  0.00    +0.000 C 
BRANCH  24  25
ATOM     25  C   UNL     1       1.137   8.192  20.795  0.00  0.00    +0.000 C 
BRANCH  25  26
ATOM     26  C   UNL     1      -0.140   8.737  21.425  0.00  0.00    +0.000 C 
BRANCH  26  27
ATOM     27  C   UNL     1       0.135   9.440  22.733  0.00  0.00    +0.000 C 
ATOM     28  O   UNL     1       1.245   9.702  23.176  0.00  0.00    +0.000 OA
BRANCH  27  29
ATOM     29  O   UNL     1      -1.000   9.761  23.396  0.00  0.00    +0.000 OA
ATOM     30  H   UNL     1      -1.540  10.434  22.939  0.00  0.00    +0.000 HD
ENDBRANCH  27  29
ENDBRANCH  26  27
ENDBRANCH  25  26
ENDBRANCH  24  25
ENDBRANCH  23  24
ENDBRANCH  22  23
ENDBRANCH  21  22
ENDBRANCH   6  21
TORSDOF 18
ENDMDL
MODEL 3
REMARK VINA RESULT:      -6.7      1.453      1.664
REMARK  Name = 
REMARK  19 active torsions:
REMARK  status: ('A' for Active; 'I' for Inactive)
REMARK    1  A    between atoms: C_1  and  C_2
REMARK    2  A    between atoms: C_2  and  C_3
REMARK    3  A    between atoms: C_3  and  C_4
REMARK    4  A    between atoms: C_4  and  C_5
REMARK    5  A    between atoms: C_5  and  C_6
REMARK    6  A    between atoms: C_6  and  C_7
REMARK    7  A    between atoms: C_7  and  C_8
REMARK    8  A    between atoms: C_8  and  O_9
REMARK    9  A    between atoms: C_8  and  C_10
REMARK   10  A    between atoms: C_11  and  C_12
REMARK   11  A    between atoms: C_13  and  O_14
REMARK   12  A    between atoms: C_18  and  C_19
REMARK   13  A    between atoms: C_19  and  C_20
REMARK   14  A    between atoms: C_20  and  C_21
REMARK   15  A    between atoms: C_21  and  C_22
REMARK   16  A    between atoms: C_22  and  C_23
REMARK   17  A    between atoms: C_23  and  C_24
REMARK   18  A    between atoms: C_24  and  C_25
REMARK   19  A    between atoms: C_25  and  O_27
REMARK                            x       y       z     vdW  Elec       q    Type
REMARK                         _______ _______ _______ _____ _____    ______ ____
ROOT
ATOM      1  C   UNL     1       4.059   3.786  19.683  0.00  0.00    +0.000 C 
ATOM      2  C   UNL     1       3.825   2.255  19.684  0.00  0.00    +0.000 C 
ATOM      3  C   UNL     1       3.259   1.948  18.306  0.00  0.00    +0.000 C 
ATOM      4  C   UNL     1       2.396   3.156  18.096  0.00  0.00    +0.000 C 
ATOM      5  O   UNL     1       1.499   3.173  17.259  0.00  0.00    +0.000 OA
ATOM      6  C   UNL     1       2.737   4.302  19.048  0.00  0.00    +0.000 C 
ENDROOT
BRANCH   2   7
ATOM      7  O   UNL     1       4.981   1.496  19.991  0.00  0.00    +0.000 OA
ATOM      8  H   UNL     1       5.765   2.068  19.937  0.00  0.00    +0.000 HD
ENDBRANCH   2   7
BRANCH   1  10
ATOM      9  C   UNL     1       6.125   5.206  19.241  0.00  0.00    +0.000 C 
ATOM     10  C   UNL     1       5.306   4.189  18.920  0.00  0.00    +0.000 C 
BRANCH   9  11
ATOM     11  C   UNL     1       7.370   5.526  18.458  0.00  0.00    +0.000 C 
BRANCH  11  12
ATOM     12  O   UNL     1       7.836   4.331  17.842  0.00  0.00    +0.000 OA
ATOM     13  H   UNL     1       7.430   3.580  18.297  0.00  0.00    +0.000 HD
ENDBRANCH  11  12
BRANCH  11  14
ATOM     14  C   UNL     1       7.151   6.595  17.380  0.00  0.00    +0.000 C 
BRANCH  14  15
ATOM     15  C   UNL     1       5.683   6.999  17.256  0.00  0.00    +0.000 C 
BRANCH  15  16
ATOM     16  C   UNL     1       5.113   6.681  15.876  0.00  0.00    +0.000 C 
BRANCH  16  17
ATOM     17  C   UNL     1       5.356   5.211  15.535  0.00  0.00    +0.000 C 
BRANCH  17  18
ATOM     18  C   UNL     1       6.007   5.054  14.165  0.00  0.00    +0.000 C 
BRANCH  18  20
ATOM     19  C   UNL     1       6.267   3.436  12.257  0.00  0.00    +0.000 C 
ATOM     20  C   UNL     1       6.074   3.583  13.757  0.00  0.00    +0.000 C 
ENDBRANCH  18  20
ENDBRANCH  17  18
ENDBRANCH  16  17
ENDBRANCH  15  16
ENDBRANCH  14  15
ENDBRANCH  11  14
ENDBRANCH   9  11
ENDBRANCH   1  10
BRANCH   6  21
ATOM     21  C   UNL     1       2.821   5.679  18.382  0.00  0.00    +0.000 C 
BRANCH  21  22
ATOM     22  C   UNL     1       2.113   6.768  19.191  0.00  0.00    +0.000 C 
BRANCH  22  23
ATOM     23  C   UNL     1       2.014   8.081  18.421  0.00  0.00    +0.000 C 
BRANCH  23  24
ATOM     24  C   UNL     1       1.507   9.195  19.338  0.00  0.00    +0.000 C 
BRANCH  24  25
ATOM     25  C   UNL     1       1.211   8.664  20.737  0.00  0.00    +0.000 C 
BRANCH  25  26
ATOM     26  C   UNL     1      -0.113   9.196  21.274  0.00  0.00    +0.000 C 
BRANCH  26  27
ATOM     27  C   UNL     1       0.094  10.195  22.389  0.00  0.00    +0.000 C 
ATOM     28  O   UNL     1       0.160   9.922  23.580  0.00  0.00    +0.000 OA
BRANCH  27  29
ATOM     29  O   UNL     1       0.198  11.464  21.932  0.00  0.00    +0.000 OA
ATOM     30  H   UNL     1       0.073  11.542  20.968  0.00  0.00    +0.000 HD
ENDBRANCH  27  29
ENDBRANCH  26  27
ENDBRANCH  25  26
ENDBRANCH  24  25
ENDBRANCH  23  24
ENDBRANCH  22  23
ENDBRANCH  21  22
ENDBRANCH   6  21
TORSDOF 18
ENDMDL
MODEL 4
REMARK VINA RESULT:      -6.6      2.415      3.998
REMARK  Name = 
REMARK  19 active torsions:
REMARK  status: ('A' for Active; 'I' for Inactive)
REMARK    1  A    between atoms: C_1  and  C_2
REMARK    2  A    between atoms: C_2  and  C_3
REMARK    3  A    between atoms: C_3  and  C_4
REMARK    4  A    between atoms: C_4  and  C_5
REMARK    5  A    between atoms: C_5  and  C_6
REMARK    6  A    between atoms: C_6  and  C_7
REMARK    7  A    between atoms: C_7  and  C_8
REMARK    8  A    between atoms: C_8  and  O_9
REMARK    9  A    between atoms: C_8  and  C_10
REMARK   10  A    between atoms: C_11  and  C_12
REMARK   11  A    between atoms: C_13  and  O_14
REMARK   12  A    between atoms: C_18  and  C_19
REMARK   13  A    between atoms: C_19  and  C_20
REMARK   14  A    between atoms: C_20  and  C_21
REMARK   15  A    between atoms: C_21  and  C_22
REMARK   16  A    between atoms: C_22  and  C_23
REMARK   17  A    between atoms: C_23  and  C_24
REMARK   18  A    between atoms: C_24  and  C_25
REMARK   19  A    between atoms: C_25  and  O_27
REMARK                            x       y       z     vdW  Elec       q    Type
REMARK                         _______ _______ _______ _____ _____    ______ ____
ROOT
ATOM      1  C   UNL     1       4.257   3.902  19.465  0.00  0.00    +0.000 C 
ATOM      2  C   UNL     1       3.966   2.384  19.574  0.00  0.00    +0.000 C 
ATOM      3  C   UNL     1       3.418   1.995  18.210  0.00  0.00    +0.000 C 
ATOM      4  C   UNL     1       2.606   3.214  17.889  0.00  0.00    +0.000 C 
ATOM      5  O   UNL     1       1.729   3.200  17.031  0.00  0.00    +0.000 OA
ATOM      6  C   UNL     1       2.969   4.416  18.761  0.00  0.00    +0.000 C 
ENDROOT
BRANCH   2   7
ATOM      7  O   UNL     1       5.085   1.610  19.965  0.00  0.00    +0.000 OA
ATOM      8  H   UNL     1       5.045   0.742  19.528  0.00  0.00    +0.000 HD
ENDBRANCH   2   7
BRANCH   1  10
ATOM      9  C   UNL     1       6.400   5.191  18.987  0.00  0.00    +0.000 C 
ATOM     10  C   UNL     1       5.535   4.201  18.704  0.00  0.00    +0.000 C 
BRANCH   9  11
ATOM     11  C   UNL     1       7.672   5.406  18.211  0.00  0.00    +0.000 C 
BRANCH  11  12
ATOM     12  O   UNL     1       8.141   4.143  17.755  0.00  0.00    +0.000 OA
ATOM     13  H   UNL     1       7.447   3.488  17.914  0.00  0.00    +0.000 HD
ENDBRANCH  11  12
BRANCH  11  14
ATOM     14  C   UNL     1       7.498   6.342  17.010  0.00  0.00    +0.000 C 
BRANCH  14  15
ATOM     15  C   UNL     1       7.311   7.799  17.433  0.00  0.00    +0.000 C 
BRANCH  15  16
ATOM     16  C   UNL     1       8.430   8.278  18.354  0.00  0.00    +0.000 C 
BRANCH  16  17
ATOM     17  C   UNL     1       8.569   9.798  18.264  0.00  0.00    +0.000 C 
BRANCH  17  18
ATOM     18  C   UNL     1       9.335  10.362  19.456  0.00  0.00    +0.000 C 
BRANCH  18  20
ATOM     19  C   UNL     1      10.760  11.579  17.779  0.00  0.00    +0.000 C 
ATOM     20  C   UNL     1      10.009  11.685  19.095  0.00  0.00    +0.000 C 
ENDBRANCH  18  20
ENDBRANCH  17  18
ENDBRANCH  16  17
ENDBRANCH  15  16
ENDBRANCH  14  15
ENDBRANCH  11  14
ENDBRANCH   9  11
ENDBRANCH   1  10
BRANCH   6  21
ATOM     21  C   UNL     1       3.120   5.735  17.996  0.00  0.00    +0.000 C 
BRANCH  21  22
ATOM     22  C   UNL     1       2.082   6.779  18.414  0.00  0.00    +0.000 C 
BRANCH  22  23
ATOM     23  C   UNL     1       2.294   7.258  19.846  0.00  0.00    +0.000 C 
BRANCH  23  24
ATOM     24  C   UNL     1       1.367   8.434  20.153  0.00  0.00    +0.000 C 
BRANCH  24  25
ATOM     25  C   UNL     1       1.153   8.590  21.655  0.00  0.00    +0.000 C 
BRANCH  25  26
ATOM     26  C   UNL     1      -0.161   9.297  21.968  0.00  0.00    +0.000 C 
BRANCH  26  27
ATOM     27  C   UNL     1      -0.214  10.677  21.355  0.00  0.00    +0.000 C 
ATOM     28  O   UNL     1      -1.099  11.090  20.618  0.00  0.00    +0.000 OA
BRANCH  27  29
ATOM     29  O   UNL     1       0.846  11.441  21.708  0.00  0.00    +0.000 OA
ATOM     30  H   UNL     1       0.762  12.373  21.432  0.00  0.00    +0.000 HD
ENDBRANCH  27  29
ENDBRANCH  26  27
ENDBRANCH  25  26
ENDBRANCH  24  25
ENDBRANCH  23  24
ENDBRANCH  22  23
ENDBRANCH  21  22
ENDBRANCH   6  21
TORSDOF 18
ENDMDL
MODEL 5
REMARK VINA RESULT:      -6.5      2.202      7.105
REMARK  Name = 
REMARK  19 active torsions:
REMARK  status: ('A' for Active; 'I' for Inactive)
REMARK    1  A    between atoms: C_1  and  C_2
REMARK    2  A    between atoms: C_2  and  C_3
REMARK    3  A    between atoms: C_3  and  C_4
REMARK    4  A    between atoms: C_4  and  C_5
REMARK    5  A    between atoms: C_5  and  C_6
REMARK    6  A    between atoms: C_6  and  C_7
REMARK    7  A    between atoms: C_7  and  C_8
REMARK    8  A    between atoms: C_8  and  O_9
REMARK    9  A    between atoms: C_8  and  C_10
REMARK   10  A    between atoms: C_11  and  C_12
REMARK   11  A    between atoms: C_13  and  O_14
REMARK   12  A    between atoms: C_18  and  C_19
REMARK   13  A    between atoms: C_19  and  C_20
REMARK   14  A    between atoms: C_20  and  C_21
REMARK   15  A    between atoms: C_21  and  C_22
REMARK   16  A    between atoms: C_22  and  C_23
REMARK   17  A    between atoms: C_23  and  C_24
REMARK   18  A    between atoms: C_24  and  C_25
REMARK   19  A    between atoms: C_25  and  O_27
REMARK                            x       y       z     vdW  Elec       q    Type
REMARK                         _______ _______ _______ _____ _____    ______ ____
ROOT
ATOM      1  C   UNL     1       2.346   3.757  18.703  0.00  0.00    +0.000 C 
ATOM      2  C   UNL     1       1.630   3.092  19.905  0.00  0.00    +0.000 C 
ATOM      3  C   UNL     1       2.724   2.875  20.938  0.00  0.00    +0.000 C 
ATOM      4  C   UNL     1       3.867   2.503  20.043  0.00  0.00    +0.000 C 
ATOM      5  O   UNL     1       4.863   1.927  20.470  0.00  0.00    +0.000 OA
ATOM      6  C   UNL     1       3.626   2.882  18.582  0.00  0.00    +0.000 C 
ENDROOT
BRANCH   2   7
ATOM      7  O   UNL     1       0.533   3.837  20.405  0.00  0.00    +0.000 OA
ATOM      8  H   UNL     1      -0.181   3.841  19.745  0.00  0.00    +0.000 HD
ENDBRANCH   2   7
BRANCH   1  10
ATOM      9  C   UNL     1       2.132   6.242  18.196  0.00  0.00    +0.000 C 
ATOM     10  C   UNL     1       2.627   5.231  18.929  0.00  0.00    +0.000 C 
BRANCH   9  11
ATOM     11  C   UNL     1       2.423   7.688  18.502  0.00  0.00    +0.000 C 
BRANCH  11  12
ATOM     12  O   UNL     1       3.676   8.029  17.920  0.00  0.00    +0.000 OA
ATOM     13  H   UNL     1       3.541   8.793  17.341  0.00  0.00    +0.000 HD
ENDBRANCH  11  12
BRANCH  11  14
ATOM     14  C   UNL     1       1.348   8.647  17.979  0.00  0.00    +0.000 C 
BRANCH  14  15
ATOM     15  C   UNL     1       1.839  10.094  17.926  0.00  0.00    +0.000 C 
BRANCH  15  16
ATOM     16  C   UNL     1       1.073  10.997  18.887  0.00  0.00    +0.000 C 
BRANCH  16  17
ATOM     17  C   UNL     1       0.012  10.188  19.634  0.00  0.00    +0.000 C 
BRANCH  17  18
ATOM     18  C   UNL     1      -0.297  10.794  20.999  0.00  0.00    +0.000 C 
BRANCH  18  20
ATOM     19  C   UNL     1       0.102   8.367  21.521  0.00  0.00    +0.000 C 
ATOM     20  C   UNL     1      -0.272   9.725  22.090  0.00  0.00    +0.000 C 
ENDBRANCH  18  20
ENDBRANCH  17  18
ENDBRANCH  16  17
ENDBRANCH  15  16
ENDBRANCH  14  15
ENDBRANCH  11  14
ENDBRANCH   9  11
ENDBRANCH   1  10
BRANCH   6  21
ATOM     21  C   UNL     1       4.818   3.554  17.893  0.00  0.00    +0.000 C 
BRANCH  21  22
ATOM     22  C   UNL     1       4.567   3.816  16.406  0.00  0.00    +0.000 C 
BRANCH  22  23
ATOM     23  C   UNL     1       5.717   4.579  15.756  0.00  0.00    +0.000 C 
BRANCH  23  24
ATOM     24  C   UNL     1       5.708   6.038  16.212  0.00  0.00    +0.000 C 
BRANCH  24  25
ATOM     25  C   UNL     1       7.068   6.449  16.768  0.00  0.00    +0.000 C 
BRANCH  25  26
ATOM     26  C   UNL     1       7.053   6.532  18.290  0.00  0.00    +0.000 C 
BRANCH  26  27
ATOM     27  C   UNL     1       7.783   5.369  18.922  0.00  0.00    +0.000 C 
ATOM     28  O   UNL     1       8.181   4.376  18.328  0.00  0.00    +0.000 OA
BRANCH  27  29
ATOM     29  O   UNL     1       7.958   5.532  20.254  0.00  0.00    +0.000 OA
ATOM     30  H   UNL     1       7.226   5.172  20.790  0.00  0.00    +0.000 HD
ENDBRANCH  27  29
ENDBRANCH  26  27
ENDBRANCH  25  26
ENDBRANCH  24  25
ENDBRANCH  23  24
ENDBRANCH  22  23
ENDBRANCH  21  22
ENDBRANCH   6  21
TORSDOF 18
ENDMDL
MODEL 6
REMARK VINA RESULT:      -6.5      1.088      1.743
REMARK  Name = 
REMARK  19 active torsions:
REMARK  status: ('A' for Active; 'I' for Inactive)
REMARK    1  A    between atoms: C_1  and  C_2
REMARK    2  A    between atoms: C_2  and  C_3
REMARK    3  A    between atoms: C_3  and  C_4
REMARK    4  A    between atoms: C_4  and  C_5
REMARK    5  A    between atoms: C_5  and  C_6
REMARK    6  A    between atoms: C_6  and  C_7
REMARK    7  A    between atoms: C_7  and  C_8
REMARK    8  A    between atoms: C_8  and  O_9
REMARK    9  A    between atoms: C_8  and  C_10
REMARK   10  A    between atoms: C_11  and  C_12
REMARK   11  A    between atoms: C_13  and  O_14
REMARK   12  A    between atoms: C_18  and  C_19
REMARK   13  A    between atoms: C_19  and  C_20
REMARK   14  A    between atoms: C_20  and  C_21
REMARK   15  A    between atoms: C_21  and  C_22
REMARK   16  A    between atoms: C_22  and  C_23
REMARK   17  A    between atoms: C_23  and  C_24
REMARK   18  A    between atoms: C_24  and  C_25
REMARK   19  A    between atoms: C_25  and  O_27
REMARK                            x       y       z     vdW  Elec       q    Type
REMARK                         _______ _______ _______ _____ _____    ______ ____
ROOT
ATOM      1  C   UNL     1       4.036   4.472  19.197  0.00  0.00    +0.000 C 
ATOM      2  C   UNL     1       3.867   2.995  19.629  0.00  0.00    +0.000 C 
ATOM      3  C   UNL     1       2.912   2.398  18.608  0.00  0.00    +0.000 C 
ATOM      4  C   UNL     1       1.984   3.557  18.398  0.00  0.00    +0.000 C 
ATOM      5  O   UNL     1       0.872   3.415  17.900  0.00  0.00    +0.000 OA
ATOM      6  C   UNL     1       2.564   4.879  18.900  0.00  0.00    +0.000 C 
ENDROOT
BRANCH   2   7
ATOM      7  O   UNL     1       5.087   2.282  19.733  0.00  0.00    +0.000 OA
ATOM      8  H   UNL     1       5.381   2.019  18.844  0.00  0.00    +0.000 HD
ENDBRANCH   2   7
BRANCH   1  10
ATOM      9  C   UNL     1       6.181   5.216  18.046  0.00  0.00    +0.000 C 
ATOM     10  C   UNL     1       4.969   4.634  18.012  0.00  0.00    +0.000 C 
BRANCH   9  11
ATOM     11  C   UNL     1       7.073   5.308  16.836  0.00  0.00    +0.000 C 
BRANCH  11  12
ATOM     12  O   UNL     1       7.894   4.147  16.792  0.00  0.00    +0.000 OA
ATOM     13  H   UNL     1       8.474   4.159  17.567  0.00  0.00    +0.000 HD
ENDBRANCH  11  12
BRANCH  11  14
ATOM     14  C   UNL     1       6.297   5.425  15.518  0.00  0.00    +0.000 C 
BRANCH  14  15
ATOM     15  C   UNL     1       6.618   4.283  14.554  0.00  0.00    +0.000 C 
BRANCH  15  16
ATOM     16  C   UNL     1       6.980   4.792  13.162  0.00  0.00    +0.000 C 
BRANCH  16  17
ATOM     17  C   UNL     1       6.870   3.656  12.144  0.00  0.00    +0.000 C 
BRANCH  17  18
ATOM     18  C   UNL     1       5.529   2.938  12.249  0.00  0.00    +0.000 C 
BRANCH  18  20
ATOM     19  C   UNL     1       3.555   3.003  10.692  0.00  0.00    +0.000 C 
ATOM     20  C   UNL     1       4.404   3.796  11.671  0.00  0.00    +0.000 C 
ENDBRANCH  18  20
ENDBRANCH  17  18
ENDBRANCH  16  17
ENDBRANCH  15  16
ENDBRANCH  14  15
ENDBRANCH  11  14
ENDBRANCH   9  11
ENDBRANCH   1  10
BRANCH   6  21
ATOM     21  C   UNL     1       2.390   6.058  17.937  0.00  0.00    +0.000 C 
BRANCH  21  22
ATOM     22  C   UNL     1       2.961   7.363  18.494  0.00  0.00    +0.000 C 
BRANCH  22  23
ATOM     23  C   UNL     1       1.866   8.317  18.960  0.00  0.00    +0.000 C 
BRANCH  23  24
ATOM     24  C   UNL     1       1.484   9.275  17.831  0.00  0.00    +0.000 C 
BRANCH  24  25
ATOM     25  C   UNL     1       0.063   9.801  18.012  0.00  0.00    +0.000 C 
BRANCH  25  26
ATOM     26  C   UNL     1       0.008  10.937  19.027  0.00  0.00    +0.000 C 
BRANCH  26  27
ATOM     27  C   UNL     1      -1.048  11.957  18.670  0.00  0.00    +0.000 C 
ATOM     28  O   UNL     1      -1.808  12.497  19.462  0.00  0.00    +0.000 OA
BRANCH  27  29
ATOM     29  O   UNL     1      -1.080  12.225  17.344  0.00  0.00    +0.000 OA
ATOM     30  H   UNL     1      -1.231  13.168  17.142  0.00  0.00    +0.000 HD
ENDBRANCH  27  29
ENDBRANCH  26  27
ENDBRANCH  25  26
ENDBRANCH  24  25
ENDBRANCH  23  24
ENDBRANCH  22  23
ENDBRANCH  21  22
ENDBRANCH   6  21
TORSDOF 18
ENDMDL
MODEL 7
REMARK VINA RESULT:      -6.4      1.573      2.480
REMARK  Name = 
REMARK  19 active torsions:
REMARK  status: ('A' for Active; 'I' for Inactive)
REMARK    1  A    between atoms: C_1  and  C_2
REMARK    2  A    between atoms: C_2  and  C_3
REMARK    3  A    between atoms: C_3  and  C_4
REMARK    4  A    between atoms: C_4  and  C_5
REMARK    5  A    between atoms: C_5  and  C_6
REMARK    6  A    between atoms: C_6  and  C_7
REMARK    7  A    between atoms: C_7  and  C_8
REMARK    8  A    between atoms: C_8  and  O_9
REMARK    9  A    between atoms: C_8  and  C_10
REMARK   10  A    between atoms: C_11  and  C_12
REMARK   11  A    between atoms: C_13  and  O_14
REMARK   12  A    between atoms: C_18  and  C_19
REMARK   13  A    between atoms: C_19  and  C_20
REMARK   14  A    between atoms: C_20  and  C_21
REMARK   15  A    between atoms: C_21  and  C_22
REMARK   16  A    between atoms: C_22  and  C_23
REMARK   17  A    between atoms: C_23  and  C_24
REMARK   18  A    between atoms: C_24  and  C_25
REMARK   19  A    between atoms: C_25  and  O_27
REMARK                            x       y       z     vdW  Elec       q    Type
REMARK                         _______ _______ _______ _____ _____    ______ ____
ROOT
ATOM      1  C   UNL     1       4.085   4.782  19.084  0.00  0.00    +0.000 C 
ATOM      2  C   UNL     1       4.150   3.350  19.670  0.00  0.00    +0.000 C 
ATOM      3  C   UNL     1       2.959   2.627  19.062  0.00  0.00    +0.000 C 
ATOM      4  C   UNL     1       1.945   3.732  19.064  0.00  0.00    +0.000 C 
ATOM      5  O   UNL     1       0.743   3.508  18.962  0.00  0.00    +0.000 OA
ATOM      6  C   UNL     1       2.574   5.114  19.241  0.00  0.00    +0.000 C 
ENDROOT
BRANCH   2   7
ATOM      7  O   UNL     1       5.381   2.688  19.436  0.00  0.00    +0.000 OA
ATOM      8  H   UNL     1       5.238   1.727  19.460  0.00  0.00    +0.000 HD
ENDBRANCH   2   7
BRANCH   1  10
ATOM      9  C   UNL     1       5.462   5.756  17.177  0.00  0.00    +0.000 C 
ATOM     10  C   UNL     1       4.585   4.855  17.653  0.00  0.00    +0.000 C 
BRANCH   9  11
ATOM     11  C   UNL     1       5.945   5.745  15.750  0.00  0.00    +0.000 C 
BRANCH  11  12
ATOM     12  O   UNL     1       7.367   5.735  15.755  0.00  0.00    +0.000 OA
ATOM     13  H   UNL     1       7.674   6.623  15.988  0.00  0.00    +0.000 HD
ENDBRANCH  11  12
BRANCH  11  14
ATOM     14  C   UNL     1       5.436   4.542  14.948  0.00  0.00    +0.000 C 
BRANCH  14  15
ATOM     15  C   UNL     1       6.555   3.853  14.166  0.00  0.00    +0.000 C 
BRANCH  15  16
ATOM     16  C   UNL     1       6.267   3.809  12.668  0.00  0.00    +0.000 C 
BRANCH  16  17
ATOM     17  C   UNL     1       4.779   3.551  12.428  0.00  0.00    +0.000 C 
BRANCH  17  18
ATOM     18  C   UNL     1       4.546   2.786  11.129  0.00  0.00    +0.000 C 
BRANCH  18  20
ATOM     19  C   UNL     1       3.088   4.303   9.753  0.00  0.00    +0.000 C 
ATOM     20  C   UNL     1       3.138   3.038  10.591  0.00  0.00    +0.000 C 
ENDBRANCH  18  20
ENDBRANCH  17  18
ENDBRANCH  16  17
ENDBRANCH  15  16
ENDBRANCH  14  15
ENDBRANCH  11  14
ENDBRANCH   9  11
ENDBRANCH   1  10
BRANCH   6  21
ATOM     21  C   UNL     1       2.034   6.186  18.289  0.00  0.00    +0.000 C 
BRANCH  21  22
ATOM     22  C   UNL     1       2.410   7.604  18.726  0.00  0.00    +0.000 C 
BRANCH  22  23
ATOM     23  C   UNL     1       2.010   8.649  17.689  0.00  0.00    +0.000 C 
BRANCH  23  24
ATOM     24  C   UNL     1       1.498   9.911  18.382  0.00  0.00    +0.000 C 
BRANCH  24  25
ATOM     25  C   UNL     1       0.572   9.566  19.544  0.00  0.00    +0.000 C 
BRANCH  25  26
ATOM     26  C   UNL     1       0.781  10.501  20.729  0.00  0.00    +0.000 C 
BRANCH  26  27
ATOM     27  C   UNL     1       0.649  11.952  20.329  0.00  0.00    +0.000 C 
ATOM     28  O   UNL     1      -0.359  12.471  19.869  0.00  0.00    +0.000 OA
BRANCH  27  29
ATOM     29  O   UNL     1       1.791  12.649  20.530  0.00  0.00    +0.000 OA
ATOM     30  H   UNL     1       1.733  13.286  21.268  0.00  0.00    +0.000 HD
ENDBRANCH  27  29
ENDBRANCH  26  27
ENDBRANCH  25  26
ENDBRANCH  24  25
ENDBRANCH  23  24
ENDBRANCH  22  23
ENDBRANCH  21  22
ENDBRANCH   6  21
TORSDOF 18
ENDMDL
MODEL 8
REMARK VINA RESULT:      -6.3      1.292      1.673
REMARK  Name = 
REMARK  19 active torsions:
REMARK  status: ('A' for Active; 'I' for Inactive)
REMARK    1  A    between atoms: C_1  and  C_2
REMARK    2  A    between atoms: C_2  and  C_3
REMARK    3  A    between atoms: C_3  and  C_4
REMARK    4  A    between atoms: C_4  and  C_5
REMARK    5  A    between atoms: C_5  and  C_6
REMARK    6  A    between atoms: C_6  and  C_7
REMARK    7  A    between atoms: C_7  and  C_8
REMARK    8  A    between atoms: C_8  and  O_9
REMARK    9  A    between atoms: C_8  and  C_10
REMARK   10  A    between atoms: C_11  and  C_12
REMARK   11  A    between atoms: C_13  and  O_14
REMARK   12  A    between atoms: C_18  and  C_19
REMARK   13  A    between atoms: C_19  and  C_20
REMARK   14  A    between atoms: C_20  and  C_21
REMARK   15  A    between atoms: C_21  and  C_22
REMARK   16  A    between atoms: C_22  and  C_23
REMARK   17  A    between atoms: C_23  and  C_24
REMARK   18  A    between atoms: C_24  and  C_25
REMARK   19  A    between atoms: C_25  and  O_27
REMARK                            x       y       z     vdW  Elec       q    Type
REMARK                         _______ _______ _______ _____ _____    ______ ____
ROOT
ATOM      1  C   UNL     1       4.301   3.935  19.528  0.00  0.00    +0.000 C 
ATOM      2  C   UNL     1       3.836   2.458  19.502  0.00  0.00    +0.000 C 
ATOM      3  C   UNL     1       3.095   2.308  18.182  0.00  0.00    +0.000 C 
ATOM      4  C   UNL     1       2.412   3.640  18.105  0.00  0.00    +0.000 C 
ATOM      5  O   UNL     1       1.450   3.832  17.368  0.00  0.00    +0.000 OA
ATOM      6  C   UNL     1       3.018   4.674  19.053  0.00  0.00    +0.000 C 
ENDROOT
BRANCH   2   7
ATOM      7  O   UNL     1       4.886   1.521  19.659  0.00  0.00    +0.000 OA
ATOM      8  H   UNL     1       5.562   1.892  20.251  0.00  0.00    +0.000 HD
ENDBRANCH   2   7
BRANCH   1  10
ATOM      9  C   UNL     1       6.389   5.195  18.795  0.00  0.00    +0.000 C 
ATOM     10  C   UNL     1       5.514   4.185  18.651  0.00  0.00    +0.000 C 
BRANCH   9  11
ATOM     11  C   UNL     1       7.595   5.359  17.909  0.00  0.00    +0.000 C 
BRANCH  11  12
ATOM     12  O   UNL     1       8.164   4.076  17.678  0.00  0.00    +0.000 OA
ATOM     13  H   UNL     1       8.490   4.050  16.767  0.00  0.00    +0.000 HD
ENDBRANCH  11  12
BRANCH  11  14
ATOM     14  C   UNL     1       7.273   6.016  16.562  0.00  0.00    +0.000 C 
BRANCH  14  15
ATOM     15  C   UNL     1       5.770   6.198  16.351  0.00  0.00    +0.000 C 
BRANCH  15  16
ATOM     16  C   UNL     1       5.304   5.627  15.015  0.00  0.00    +0.000 C 
BRANCH  16  17
ATOM     17  C   UNL     1       6.044   4.322  14.716  0.00  0.00    +0.000 C 
BRANCH  17  18
ATOM     18  C   UNL     1       6.611   4.313  13.300  0.00  0.00    +0.000 C 
BRANCH  18  20
ATOM     19  C   UNL     1       4.716   3.517  11.852  0.00  0.00    +0.000 C 
ATOM     20  C   UNL     1       6.043   3.147  12.491  0.00  0.00    +0.000 C 
ENDBRANCH  18  20
ENDBRANCH  17  18
ENDBRANCH  16  17
ENDBRANCH  15  16
ENDBRANCH  14  15
ENDBRANCH  11  14
ENDBRANCH   9  11
ENDBRANCH   1  10
BRANCH   6  21
ATOM     21  C   UNL     1       3.247   6.054  18.429  0.00  0.00    +0.000 C 
BRANCH  21  22
ATOM     22  C   UNL     1       2.179   7.070  18.839  0.00  0.00    +0.000 C 
BRANCH  22  23
ATOM     23  C   UNL     1       1.670   6.827  20.257  0.00  0.00    +0.000 C 
BRANCH  23  24
ATOM     24  C   UNL     1       1.660   8.135  21.047  0.00  0.00    +0.000 C 
BRANCH  24  25
ATOM     25  C   UNL     1       0.234   8.590  21.342  0.00  0.00    +0.000 C 
BRANCH  25  26
ATOM     26  C   UNL     1      -0.202   9.719  20.415  0.00  0.00    +0.000 C 
BRANCH  26  27
ATOM     27  C   UNL     1      -0.590  10.959  21.185  0.00  0.00    +0.000 C 
ATOM     28  O   UNL     1      -1.516  11.708  20.901  0.00  0.00    +0.000 OA
BRANCH  27  29
ATOM     29  O   UNL     1       0.211  11.176  22.253  0.00  0.00    +0.000 OA
ATOM     30  H   UNL     1       0.228  10.431  22.884  0.00  0.00    +0.000 HD
ENDBRANCH  27  29
ENDBRANCH  26  27
ENDBRANCH  25  26
ENDBRANCH  24  25
ENDBRANCH  23  24
ENDBRANCH  22  23
ENDBRANCH  21  22
ENDBRANCH   6  21
TORSDOF 18
ENDMDL
MODEL 9
REMARK VINA RESULT:      -6.3      2.573      4.261
REMARK  Name = 
REMARK  19 active torsions:
REMARK  status: ('A' for Active; 'I' for Inactive)
REMARK    1  A    between atoms: C_1  and  C_2
REMARK    2  A    between atoms: C_2  and  C_3
REMARK    3  A    between atoms: C_3  and  C_4
REMARK    4  A    between atoms: C_4  and  C_5
REMARK    5  A    between atoms: C_5  and  C_6
REMARK    6  A    between atoms: C_6  and  C_7
REMARK    7  A    between atoms: C_7  and  C_8
REMARK    8  A    between atoms: C_8  and  O_9
REMARK    9  A    between atoms: C_8  and  C_10
REMARK   10  A    between atoms: C_11  and  C_12
REMARK   11  A    between atoms: C_13  and  O_14
REMARK   12  A    between atoms: C_18  and  C_19
REMARK   13  A    between atoms: C_19  and  C_20
REMARK   14  A    between atoms: C_20  and  C_21
REMARK   15  A    between atoms: C_21  and  C_22
REMARK   16  A    between atoms: C_22  and  C_23
REMARK   17  A    between atoms: C_23  and  C_24
REMARK   18  A    between atoms: C_24  and  C_25
REMARK   19  A    between atoms: C_25  and  O_27
REMARK                            x       y       z     vdW  Elec       q    Type
REMARK                         _______ _______ _______ _____ _____    ______ ____
ROOT
ATOM      1  C   UNL     1       4.217   3.988  19.413  0.00  0.00    +0.000 C 
ATOM      2  C   UNL     1       3.967   2.460  19.456  0.00  0.00    +0.000 C 
ATOM      3  C   UNL     1       3.557   2.093  18.039  0.00  0.00    +0.000 C 
ATOM      4  C   UNL     1       2.738   3.296  17.676  0.00  0.00    +0.000 C 
ATOM      5  O   UNL     1       1.943   3.280  16.742  0.00  0.00    +0.000 OA
ATOM      6  C   UNL     1       2.983   4.483  18.607  0.00  0.00    +0.000 C 
ENDROOT
BRANCH   2   7
ATOM      7  O   UNL     1       5.071   1.708  19.928  0.00  0.00    +0.000 OA
ATOM      8  H   UNL     1       5.818   2.307  20.097  0.00  0.00    +0.000 HD
ENDBRANCH   2   7
BRANCH   1  10
ATOM      9  C   UNL     1       6.382   5.311  19.206  0.00  0.00    +0.000 C 
ATOM     10  C   UNL     1       5.548   4.347  18.779  0.00  0.00    +0.000 C 
BRANCH   9  11
ATOM     11  C   UNL     1       7.710   5.587  18.550  0.00  0.00    +0.000 C 
BRANCH  11  12
ATOM     12  O   UNL     1       7.605   5.268  17.168  0.00  0.00    +0.000 OA
ATOM     13  H   UNL     1       7.083   4.457  17.084  0.00  0.00    +0.000 HD
ENDBRANCH  11  12
BRANCH  11  14
ATOM     14  C   UNL     1       8.167   7.043  18.697  0.00  0.00    +0.000 C 
BRANCH  14  15
ATOM     15  C   UNL     1       7.751   7.904  17.505  0.00  0.00    +0.000 C 
BRANCH  15  16
ATOM     16  C   UNL     1       7.931   9.394  17.781  0.00  0.00    +0.000 C 
BRANCH  16  17
ATOM     17  C   UNL     1       8.998   9.603  18.856  0.00  0.00    +0.000 C 
BRANCH  17  18
ATOM     18  C   UNL     1       9.667  10.966  18.723  0.00  0.00    +0.000 C 
BRANCH  18  20
ATOM     19  C   UNL     1       9.760  11.933  21.043  0.00  0.00    +0.000 C 
ATOM     20  C   UNL     1      10.552  11.261  19.934  0.00  0.00    +0.000 C 
ENDBRANCH  18  20
ENDBRANCH  17  18
ENDBRANCH  16  17
ENDBRANCH  15  16
ENDBRANCH  14  15
ENDBRANCH  11  14
ENDBRANCH   9  11
ENDBRANCH   1  10
BRANCH   6  21
ATOM     21  C   UNL     1       3.159   5.827  17.893  0.00  0.00    +0.000 C 
BRANCH  21  22
ATOM     22  C   UNL     1       2.369   6.955  18.560  0.00  0.00    +0.000 C 
BRANCH  22  23
ATOM     23  C   UNL     1       2.493   6.923  20.079  0.00  0.00    +0.000 C 
BRANCH  23  24
ATOM     24  C   UNL     1       1.158   7.288  20.727  0.00  0.00    +0.000 C 
BRANCH  24  25
ATOM     25  C   UNL     1       1.213   8.675  21.360  0.00  0.00    +0.000 C 
BRANCH  25  26
ATOM     26  C   UNL     1      -0.115   9.412  21.223  0.00  0.00    +0.000 C 
BRANCH  26  27
ATOM     27  C   UNL     1       0.083  10.901  21.066  0.00  0.00    +0.000 C 
ATOM     28  O   UNL     1       1.097  11.516  21.368  0.00  0.00    +0.000 OA
BRANCH  27  29
ATOM     29  O   UNL     1      -1.005  11.515  20.546  0.00  0.00    +0.000 OA
ATOM     30  H   UNL     1      -0.788  12.175  19.861  0.00  0.00    +0.000 HD
ENDBRANCH  27  29
ENDBRANCH  26  27
ENDBRANCH  25  26
ENDBRANCH  24  25
ENDBRANCH  23  24
ENDBRANCH  22  23
ENDBRANCH  21  22
ENDBRANCH   6  21
TORSDOF 18
ENDMDL
