MODEL 1
REMARK VINA RESULT:      -7.4      0.000      0.000
REMARK  Name = 
REMARK  6 active torsions:
REMARK  status: ('A' for Active; 'I' for Inactive)
REMARK    1  A    between atoms: C_2  and  C_3
REMARK    2  A    between atoms: N_10  and  C_11
REMARK    3  A    between atoms: C_11  and  C_12
REMARK    4  A    between atoms: C_13  and  C_14
REMARK    5  A    between atoms: C_18  and  N_19
REMARK    6  A    between atoms: C_27  and  C_28
REMARK                            x       y       z     vdW  Elec       q    Type
REMARK                         _______ _______ _______ _____ _____    ______ ____
ROOT
ATOM      1  C   UNL     1      -1.091  12.739  21.807  0.00  0.00    +0.000 A 
ATOM      2  C   UNL     1      -1.824  12.806  22.986  0.00  0.00    +0.000 A 
ATOM      3  N   UNL     1      -1.717  11.630  23.700  0.00  0.00    +0.000 NA
ATOM      4  C   UNL     1      -0.984  10.829  22.962  0.00  0.00    +0.000 A 
ATOM      5  C   UNL     1      -0.604   9.467  23.147  0.00  0.00    +0.000 A 
ATOM      6  C   UNL     1       0.139   8.841  22.218  0.00  0.00    +0.000 A 
ATOM      7  C   UNL     1       0.577   9.521  21.003  0.00  0.00    +0.000 A 
ATOM      8  C   UNL     1       0.229  10.814  20.842  0.00  0.00    +0.000 A 
ATOM      9  N   UNL     1      -0.555  11.459  21.800  0.00  0.00    +0.000 N 
ENDROOT
BRANCH   2  10
ATOM     10  C   UNL     1      -2.626  13.916  23.484  0.00  0.00    +0.000 A 
ATOM     11  C   UNL     1      -2.059  14.807  24.410  0.00  0.00    +0.000 A 
ATOM     12  C   UNL     1      -2.802  15.865  24.945  0.00  0.00    +0.000 A 
ATOM     13  C   UNL     1      -4.128  16.051  24.561  0.00  0.00    +0.000 A 
ATOM     14  C   UNL     1      -4.703  15.165  23.643  0.00  0.00    +0.000 A 
ATOM     15  C   UNL     1      -3.964  14.095  23.118  0.00  0.00    +0.000 A 
BRANCH  14  16
ATOM     16  N   UNL     1      -6.102  15.343  23.233  0.00  0.00    +0.000 N 
ATOM     17  O   UNL     1      -6.553  14.572  22.374  0.00  0.00    +0.000 OA
ATOM     18  O   UNL     1      -6.750  16.256  23.766  0.00  0.00    +0.000 OA
ENDBRANCH  14  16
ENDBRANCH   2  10
BRANCH   7  19
ATOM     19  C   UNL     1       1.274   8.877  19.881  0.00  0.00    +0.000 A 
ATOM     20  C   UNL     1       1.946   7.660  20.038  0.00  0.00    +0.000 A 
ATOM     21  C   UNL     1       2.689   7.131  18.977  0.00  0.00    +0.000 A 
ATOM     22  C   UNL     1       2.760   7.811  17.761  0.00  0.00    +0.000 A 
ATOM     23  C   UNL     1       2.077   9.014  17.595  0.00  0.00    +0.000 A 
ATOM     24  C   UNL     1       1.334   9.543  18.649  0.00  0.00    +0.000 A 
ENDBRANCH   7  19
BRANCH   1  25
ATOM     25  C   UNL     1      -0.875  13.706  20.692  0.00  0.00    +0.000 C 
BRANCH  25  31
ATOM     26  O   UNL     1       3.079  16.040  17.482  0.00  0.00    +0.000 OA
ATOM     27  C   UNL     1       3.228  15.368  18.511  0.00  0.00    +0.000 C 
ATOM     28  N   UNL     1       2.139  15.103  19.340  0.00  0.00    +0.000 N 
ATOM     29  C   UNL     1       2.186  14.262  20.542  0.00  0.00    +0.000 C 
ATOM     30  C   UNL     1       1.173  14.716  21.616  0.00  0.00    +0.000 C 
ATOM     31  N   UNL     1      -0.205  14.942  21.121  0.00  0.00    +0.000 NA
ATOM     32  C   UNL     1      -0.126  15.903  19.991  0.00  0.00    +0.000 C 
ATOM     33  C   UNL     1       0.802  15.448  18.850  0.00  0.00    +0.000 C 
BRANCH  27  34
ATOM     34  C   UNL     1       4.612  14.796  18.913  0.00  0.00    +0.000 C 
ATOM     35  C   UNL     1       5.702  14.675  17.814  0.00  0.00    +0.000 C 
ATOM     36  C   UNL     1       6.734  15.171  18.838  0.00  0.00    +0.000 C 
ATOM     37  C   UNL     1       5.574  15.794  19.626  0.00  0.00    +0.000 C 
ENDBRANCH  27  34
ENDBRANCH  25  31
ENDBRANCH   1  25
TORSDOF 6
ENDMDL
MODEL 2
REMARK VINA RESULT:      -7.4      1.908      2.268
REMARK  Name = 
REMARK  6 active torsions:
REMARK  status: ('A' for Active; 'I' for Inactive)
REMARK    1  A    between atoms: C_2  and  C_3
REMARK    2  A    between atoms: N_10  and  C_11
REMARK    3  A    between atoms: C_11  and  C_12
REMARK    4  A    between atoms: C_13  and  C_14
REMARK    5  A    between atoms: C_18  and  N_19
REMARK    6  A    between atoms: C_27  and  C_28
REMARK                            x       y       z     vdW  Elec       q    Type
REMARK                         _______ _______ _______ _____ _____    ______ ____
ROOT
ATOM      1  C   UNL     1      -0.322  12.765  21.784  0.00  0.00    +0.000 A 
ATOM      2  C   UNL     1      -1.191  12.915  22.859  0.00  0.00    +0.000 A 
ATOM      3  N   UNL     1      -1.400  11.708  23.494  0.00  0.00    +0.000 NA
ATOM      4  C   UNL     1      -0.727  10.818  22.803  0.00  0.00    +0.000 A 
ATOM      5  C   UNL     1      -0.628   9.402  22.939  0.00  0.00    +0.000 A 
ATOM      6  C   UNL     1       0.114   8.690  22.072  0.00  0.00    +0.000 A 
ATOM      7  C   UNL     1       0.835   9.331  20.977  0.00  0.00    +0.000 A 
ATOM      8  C   UNL     1       0.752  10.672  20.864  0.00  0.00    +0.000 A 
ATOM      9  N   UNL     1      -0.031  11.408  21.755  0.00  0.00    +0.000 N 
ENDROOT
BRANCH   2  10
ATOM     10  C   UNL     1      -1.842  14.131  23.326  0.00  0.00    +0.000 A 
ATOM     11  C   UNL     1      -2.959  14.620  22.628  0.00  0.00    +0.000 A 
ATOM     12  C   UNL     1      -3.594  15.805  23.016  0.00  0.00    +0.000 A 
ATOM     13  C   UNL     1      -3.122  16.522  24.113  0.00  0.00    +0.000 A 
ATOM     14  C   UNL     1      -2.007  16.046  24.812  0.00  0.00    +0.000 A 
ATOM     15  C   UNL     1      -1.360  14.867  24.414  0.00  0.00    +0.000 A 
BRANCH  14  16
ATOM     16  N   UNL     1      -1.493  16.794  25.967  0.00  0.00    +0.000 N 
ATOM     17  O   UNL     1      -0.698  16.216  26.720  0.00  0.00    +0.000 OA
ATOM     18  O   UNL     1      -1.888  17.959  26.123  0.00  0.00    +0.000 OA
ENDBRANCH  14  16
ENDBRANCH   2  10
BRANCH   7  19
ATOM     19  C   UNL     1       1.557   8.620  19.912  0.00  0.00    +0.000 A 
ATOM     20  C   UNL     1       1.717   9.175  18.638  0.00  0.00    +0.000 A 
ATOM     21  C   UNL     1       2.314   8.425  17.619  0.00  0.00    +0.000 A 
ATOM     22  C   UNL     1       2.754   7.126  17.870  0.00  0.00    +0.000 A 
ATOM     23  C   UNL     1       2.614   6.576  19.142  0.00  0.00    +0.000 A 
ATOM     24  C   UNL     1       2.021   7.321  20.161  0.00  0.00    +0.000 A 
ENDBRANCH   7  19
BRANCH   1  25
ATOM     25  C   UNL     1       0.221  13.724  20.779  0.00  0.00    +0.000 C 
BRANCH  25  31
ATOM     26  O   UNL     1       3.752  16.939  17.849  0.00  0.00    +0.000 OA
ATOM     27  C   UNL     1       4.022  16.118  18.736  0.00  0.00    +0.000 C 
ATOM     28  N   UNL     1       3.013  15.613  19.556  0.00  0.00    +0.000 N 
ATOM     29  C   UNL     1       3.207  14.588  20.588  0.00  0.00    +0.000 C 
ATOM     30  C   UNL     1       2.227  14.754  21.770  0.00  0.00    +0.000 C 
ATOM     31  N   UNL     1       0.807  14.928  21.386  0.00  0.00    +0.000 NA
ATOM     32  C   UNL     1       0.733  16.070  20.440  0.00  0.00    +0.000 C 
ATOM     33  C   UNL     1       1.623  15.907  19.195  0.00  0.00    +0.000 C 
BRANCH  27  34
ATOM     34  C   UNL     1       5.472  15.622  18.968  0.00  0.00    +0.000 C 
ATOM     35  C   UNL     1       6.216  14.953  17.780  0.00  0.00    +0.000 C 
ATOM     36  C   UNL     1       7.484  15.715  18.197  0.00  0.00    +0.000 C 
ATOM     37  C   UNL     1       6.578  16.719  18.921  0.00  0.00    +0.000 C 
ENDBRANCH  27  34
ENDBRANCH  25  31
ENDBRANCH   1  25
TORSDOF 6
ENDMDL
MODEL 3
REMARK VINA RESULT:      -7.4      2.533      6.577
REMARK  Name = 
REMARK  6 active torsions:
REMARK  status: ('A' for Active; 'I' for Inactive)
REMARK    1  A    between atoms: C_2  and  C_3
REMARK    2  A    between atoms: N_10  and  C_11
REMARK    3  A    between atoms: C_11  and  C_12
REMARK    4  A    between atoms: C_13  and  C_14
REMARK    5  A    between atoms: C_18  and  N_19
REMARK    6  A    between atoms: C_27  and  C_28
REMARK                            x       y       z     vdW  Elec       q    Type
REMARK                         _______ _______ _______ _____ _____    ______ ____
ROOT
ATOM      1  C   UNL     1       0.601  13.270  20.252  0.00  0.00    +0.000 A 
ATOM      2  C   UNL     1      -0.586  13.973  20.419  0.00  0.00    +0.000 A 
ATOM      3  N   UNL     1      -0.431  15.294  20.054  0.00  0.00    +0.000 NA
ATOM      4  C   UNL     1       0.832  15.429  19.722  0.00  0.00    +0.000 A 
ATOM      5  C   UNL     1       1.585  16.576  19.337  0.00  0.00    +0.000 A 
ATOM      6  C   UNL     1       2.898  16.465  19.072  0.00  0.00    +0.000 A 
ATOM      7  C   UNL     1       3.591  15.184  19.167  0.00  0.00    +0.000 A 
ATOM      8  C   UNL     1       2.870  14.099  19.515  0.00  0.00    +0.000 A 
ATOM      9  N   UNL     1       1.510  14.219  19.805  0.00  0.00    +0.000 N 
ENDROOT
BRANCH   2  10
ATOM     10  C   UNL     1      -1.865  13.474  20.906  0.00  0.00    +0.000 A 
ATOM     11  C   UNL     1      -2.833  13.054  19.978  0.00  0.00    +0.000 A 
ATOM     12  C   UNL     1      -4.090  12.603  20.397  0.00  0.00    +0.000 A 
ATOM     13  C   UNL     1      -4.400  12.563  21.755  0.00  0.00    +0.000 A 
ATOM     14  C   UNL     1      -3.444  12.984  22.686  0.00  0.00    +0.000 A 
ATOM     15  C   UNL     1      -2.190  13.451  22.267  0.00  0.00    +0.000 A 
BRANCH  14  16
ATOM     16  N   UNL     1      -3.758  12.955  24.121  0.00  0.00    +0.000 N 
ATOM     17  O   UNL     1      -4.391  11.981  24.552  0.00  0.00    +0.000 OA
ATOM     18  O   UNL     1      -3.375  13.907  24.817  0.00  0.00    +0.000 OA
ENDBRANCH  14  16
ENDBRANCH   2  10
BRANCH   7  19
ATOM     19  C   UNL     1       5.042  14.998  19.024  0.00  0.00    +0.000 A 
ATOM     20  C   UNL     1       5.615  14.608  17.809  0.00  0.00    +0.000 A 
ATOM     21  C   UNL     1       6.986  14.336  17.738  0.00  0.00    +0.000 A 
ATOM     22  C   UNL     1       7.785  14.455  18.875  0.00  0.00    +0.000 A 
ATOM     23  C   UNL     1       7.222  14.861  20.083  0.00  0.00    +0.000 A 
ATOM     24  C   UNL     1       5.857  15.135  20.157  0.00  0.00    +0.000 A 
ENDBRANCH   7  19
BRANCH   1  25
ATOM     25  C   UNL     1       0.980  11.849  20.499  0.00  0.00    +0.000 C 
BRANCH  25  31
ATOM     26  O   UNL     1       2.002   6.342  20.669  0.00  0.00    +0.000 OA
ATOM     27  C   UNL     1       2.029   7.096  19.686  0.00  0.00    +0.000 C 
ATOM     28  N   UNL     1       1.477   8.373  19.765  0.00  0.00    +0.000 N 
ATOM     29  C   UNL     1       1.516   9.371  18.689  0.00  0.00    +0.000 C 
ATOM     30  C   UNL     1       0.286  10.304  18.710  0.00  0.00    +0.000 C 
ATOM     31  N   UNL     1      -0.033  10.891  20.032  0.00  0.00    +0.000 NA
ATOM     32  C   UNL     1      -0.168   9.773  21.001  0.00  0.00    +0.000 C 
ATOM     33  C   UNL     1       1.074   8.867  21.085  0.00  0.00    +0.000 C 
BRANCH  27  34
ATOM     34  C   UNL     1       2.673   6.657  18.346  0.00  0.00    +0.000 C 
ATOM     35  C   UNL     1       4.166   6.228  18.356  0.00  0.00    +0.000 C 
ATOM     36  C   UNL     1       3.804   5.086  17.395  0.00  0.00    +0.000 C 
ATOM     37  C   UNL     1       2.356   5.201  17.889  0.00  0.00    +0.000 C 
ENDBRANCH  27  34
ENDBRANCH  25  31
ENDBRANCH   1  25
TORSDOF 6
ENDMDL
MODEL 4
REMARK VINA RESULT:      -7.3      0.677      1.047
REMARK  Name = 
REMARK  6 active torsions:
REMARK  status: ('A' for Active; 'I' for Inactive)
REMARK    1  A    between atoms: C_2  and  C_3
REMARK    2  A    between atoms: N_10  and  C_11
REMARK    3  A    between atoms: C_11  and  C_12
REMARK    4  A    between atoms: C_13  and  C_14
REMARK    5  A    between atoms: C_18  and  N_19
REMARK    6  A    between atoms: C_27  and  C_28
REMARK                            x       y       z     vdW  Elec       q    Type
REMARK                         _______ _______ _______ _____ _____    ______ ____
ROOT
ATOM      1  C   UNL     1      -0.546  12.662  21.774  0.00  0.00    +0.000 A 
ATOM      2  C   UNL     1      -1.380  12.750  22.883  0.00  0.00    +0.000 A 
ATOM      3  N   UNL     1      -1.463  11.537  23.533  0.00  0.00    +0.000 NA
ATOM      4  C   UNL     1      -0.747  10.698  22.821  0.00  0.00    +0.000 A 
ATOM      5  C   UNL     1      -0.527   9.296  22.961  0.00  0.00    +0.000 A 
ATOM      6  C   UNL     1       0.236   8.640  22.070  0.00  0.00    +0.000 A 
ATOM      7  C   UNL     1       0.857   9.328  20.942  0.00  0.00    +0.000 A 
ATOM      8  C   UNL     1       0.660  10.656  20.825  0.00  0.00    +0.000 A 
ATOM      9  N   UNL     1      -0.145  11.334  21.742  0.00  0.00    +0.000 N 
ENDROOT
BRANCH   2  10
ATOM     10  C   UNL     1      -2.110  13.913  23.368  0.00  0.00    +0.000 A 
ATOM     11  C   UNL     1      -1.501  14.757  24.312  0.00  0.00    +0.000 A 
ATOM     12  C   UNL     1      -2.177  15.865  24.836  0.00  0.00    +0.000 A 
ATOM     13  C   UNL     1      -3.477  16.148  24.422  0.00  0.00    +0.000 A 
ATOM     14  C   UNL     1      -4.093  15.311  23.486  0.00  0.00    +0.000 A 
ATOM     15  C   UNL     1      -3.423  14.192  22.973  0.00  0.00    +0.000 A 
BRANCH  14  16
ATOM     16  N   UNL     1      -5.466  15.593  23.045  0.00  0.00    +0.000 N 
ATOM     17  O   UNL     1      -5.643  15.856  21.847  0.00  0.00    +0.000 OA
ATOM     18  O   UNL     1      -6.367  15.555  23.896  0.00  0.00    +0.000 OA
ENDBRANCH  14  16
ENDBRANCH   2  10
BRANCH   7  19
ATOM     19  C   UNL     1       1.592   8.668  19.853  0.00  0.00    +0.000 A 
ATOM     20  C   UNL     1       1.747   9.274  18.602  0.00  0.00    +0.000 A 
ATOM     21  C   UNL     1       2.358   8.572  17.556  0.00  0.00    +0.000 A 
ATOM     22  C   UNL     1       2.816   7.271  17.759  0.00  0.00    +0.000 A 
ATOM     23  C   UNL     1       2.680   6.670  19.008  0.00  0.00    +0.000 A 
ATOM     24  C   UNL     1       2.074   7.367  20.053  0.00  0.00    +0.000 A 
ENDBRANCH   7  19
BRANCH   1  25
ATOM     25  C   UNL     1      -0.125  13.653  20.742  0.00  0.00    +0.000 C 
BRANCH  25  31
ATOM     26  O   UNL     1       3.390  16.863  17.788  0.00  0.00    +0.000 OA
ATOM     27  C   UNL     1       3.659  16.087  18.715  0.00  0.00    +0.000 C 
ATOM     28  N   UNL     1       2.643  15.582  19.524  0.00  0.00    +0.000 N 
ATOM     29  C   UNL     1       2.838  14.604  20.602  0.00  0.00    +0.000 C 
ATOM     30  C   UNL     1       1.818  14.784  21.748  0.00  0.00    +0.000 C 
ATOM     31  N   UNL     1       0.406  14.897  21.318  0.00  0.00    +0.000 NA
ATOM     32  C   UNL     1       0.324  15.999  20.325  0.00  0.00    +0.000 C 
ATOM     33  C   UNL     1       1.256  15.817  19.113  0.00  0.00    +0.000 C 
BRANCH  27  34
ATOM     34  C   UNL     1       5.116  15.646  19.006  0.00  0.00    +0.000 C 
ATOM     35  C   UNL     1       5.897  14.907  17.886  0.00  0.00    +0.000 C 
ATOM     36  C   UNL     1       7.138  15.730  18.262  0.00  0.00    +0.000 C 
ATOM     37  C   UNL     1       6.196  16.764  18.891  0.00  0.00    +0.000 C 
ENDBRANCH  27  34
ENDBRANCH  25  31
ENDBRANCH   1  25
TORSDOF 6
ENDMDL
MODEL 5
REMARK VINA RESULT:      -7.3      1.395      1.858
REMARK  Name = 
REMARK  6 active torsions:
REMARK  status: ('A' for Active; 'I' for Inactive)
REMARK    1  A    between atoms: C_2  and  C_3
REMARK    2  A    between atoms: N_10  and  C_11
REMARK    3  A    between atoms: C_11  and  C_12
REMARK    4  A    between atoms: C_13  and  C_14
REMARK    5  A    between atoms: C_18  and  N_19
REMARK    6  A    between atoms: C_27  and  C_28
REMARK                            x       y       z     vdW  Elec       q    Type
REMARK                         _______ _______ _______ _____ _____    ______ ____
ROOT
ATOM      1  C   UNL     1      -1.252  12.863  21.709  0.00  0.00    +0.000 A 
ATOM      2  C   UNL     1      -2.041  12.940  22.851  0.00  0.00    +0.000 A 
ATOM      3  N   UNL     1      -1.935  11.786  23.600  0.00  0.00    +0.000 NA
ATOM      4  C   UNL     1      -1.146  10.987  22.919  0.00  0.00    +0.000 A 
ATOM      5  C   UNL     1      -0.738   9.642  23.159  0.00  0.00    +0.000 A 
ATOM      6  C   UNL     1       0.065   9.014  22.282  0.00  0.00    +0.000 A 
ATOM      7  C   UNL     1       0.541   9.676  21.071  0.00  0.00    +0.000 A 
ATOM      8  C   UNL     1       0.165  10.953  20.859  0.00  0.00    +0.000 A 
ATOM      9  N   UNL     1      -0.681  11.599  21.762  0.00  0.00    +0.000 N 
ENDROOT
BRANCH   2  10
ATOM     10  C   UNL     1      -2.896  14.037  23.281  0.00  0.00    +0.000 A 
ATOM     11  C   UNL     1      -4.206  14.119  22.782  0.00  0.00    +0.000 A 
ATOM     12  C   UNL     1      -5.052  15.176  23.137  0.00  0.00    +0.000 A 
ATOM     13  C   UNL     1      -4.600  16.171  24.001  0.00  0.00    +0.000 A 
ATOM     14  C   UNL     1      -3.295  16.101  24.499  0.00  0.00    +0.000 A 
ATOM     15  C   UNL     1      -2.441  15.051  24.132  0.00  0.00    +0.000 A 
BRANCH  14  16
ATOM     16  N   UNL     1      -2.801  17.146  25.406  0.00  0.00    +0.000 N 
ATOM     17  O   UNL     1      -1.756  16.919  26.032  0.00  0.00    +0.000 OA
ATOM     18  O   UNL     1      -3.459  18.193  25.496  0.00  0.00    +0.000 OA
ENDBRANCH  14  16
ENDBRANCH   2  10
BRANCH   7  19
ATOM     19  C   UNL     1       1.308   9.023  20.000  0.00  0.00    +0.000 A 
ATOM     20  C   UNL     1       1.434   9.602  18.733  0.00  0.00    +0.000 A 
ATOM     21  C   UNL     1       2.080   8.903  17.707  0.00  0.00    +0.000 A 
ATOM     22  C   UNL     1       2.601   7.632  17.944  0.00  0.00    +0.000 A 
ATOM     23  C   UNL     1       2.494   7.059  19.210  0.00  0.00    +0.000 A 
ATOM     24  C   UNL     1       1.853   7.754  20.235  0.00  0.00    +0.000 A 
ENDBRANCH   7  19
BRANCH   1  25
ATOM     25  C   UNL     1      -1.010  13.807  20.580  0.00  0.00    +0.000 C 
BRANCH  25  31
ATOM     26  O   UNL     1       3.033  16.048  17.415  0.00  0.00    +0.000 OA
ATOM     27  C   UNL     1       3.153  15.398  18.462  0.00  0.00    +0.000 C 
ATOM     28  N   UNL     1       2.043  15.158  19.270  0.00  0.00    +0.000 N 
ATOM     29  C   UNL     1       2.057  14.344  20.492  0.00  0.00    +0.000 C 
ATOM     30  C   UNL     1       1.021  14.827  21.530  0.00  0.00    +0.000 C 
ATOM     31  N   UNL     1      -0.343  15.049  20.997  0.00  0.00    +0.000 NA
ATOM     32  C   UNL     1      -0.231  15.983  19.848  0.00  0.00    +0.000 C 
ATOM     33  C   UNL     1       0.720  15.498  18.740  0.00  0.00    +0.000 C 
BRANCH  27  34
ATOM     34  C   UNL     1       4.524  14.828  18.910  0.00  0.00    +0.000 C 
ATOM     35  C   UNL     1       5.655  14.721  17.851  0.00  0.00    +0.000 C 
ATOM     36  C   UNL     1       6.646  15.212  18.918  0.00  0.00    +0.000 C 
ATOM     37  C   UNL     1       5.455  15.823  19.667  0.00  0.00    +0.000 C 
ENDBRANCH  27  34
ENDBRANCH  25  31
ENDBRANCH   1  25
TORSDOF 6
ENDMDL
MODEL 6
REMARK VINA RESULT:      -7.3      2.536      7.027
REMARK  Name = 
REMARK  6 active torsions:
REMARK  status: ('A' for Active; 'I' for Inactive)
REMARK    1  A    between atoms: C_2  and  C_3
REMARK    2  A    between atoms: N_10  and  C_11
REMARK    3  A    between atoms: C_11  and  C_12
REMARK    4  A    between atoms: C_13  and  C_14
REMARK    5  A    between atoms: C_18  and  N_19
REMARK    6  A    between atoms: C_27  and  C_28
REMARK                            x       y       z     vdW  Elec       q    Type
REMARK                         _______ _______ _______ _____ _____    ______ ____
ROOT
ATOM      1  C   UNL     1       1.116   9.308  19.522  0.00  0.00    +0.000 A 
ATOM      2  C   UNL     1       1.475  10.288  18.604  0.00  0.00    +0.000 A 
ATOM      3  N   UNL     1       2.358   9.787  17.670  0.00  0.00    +0.000 NA
ATOM      4  C   UNL     1       2.589   8.544  18.025  0.00  0.00    +0.000 A 
ATOM      5  C   UNL     1       3.468   7.560  17.485  0.00  0.00    +0.000 A 
ATOM      6  C   UNL     1       3.554   6.345  18.054  0.00  0.00    +0.000 A 
ATOM      7  C   UNL     1       2.760   5.993  19.228  0.00  0.00    +0.000 A 
ATOM      8  C   UNL     1       1.917   6.922  19.723  0.00  0.00    +0.000 A 
ATOM      9  N   UNL     1       1.841   8.188  19.141  0.00  0.00    +0.000 N 
ENDROOT
BRANCH   2  10
ATOM     10  C   UNL     1       1.039  11.677  18.553  0.00  0.00    +0.000 A 
ATOM     11  C   UNL     1      -0.323  11.958  18.352  0.00  0.00    +0.000 A 
ATOM     12  C   UNL     1      -0.784  13.276  18.259  0.00  0.00    +0.000 A 
ATOM     13  C   UNL     1       0.111  14.337  18.367  0.00  0.00    +0.000 A 
ATOM     14  C   UNL     1       1.470  14.067  18.562  0.00  0.00    +0.000 A 
ATOM     15  C   UNL     1       1.936  12.747  18.640  0.00  0.00    +0.000 A 
BRANCH  14  16
ATOM     16  N   UNL     1       2.428  15.176  18.671  0.00  0.00    +0.000 N 
ATOM     17  O   UNL     1       1.991  16.283  19.016  0.00  0.00    +0.000 OA
ATOM     18  O   UNL     1       3.617  14.941  18.410  0.00  0.00    +0.000 OA
ENDBRANCH  14  16
ENDBRANCH   2  10
BRANCH   7  19
ATOM     19  C   UNL     1       2.888   4.741  19.988  0.00  0.00    +0.000 A 
ATOM     20  C   UNL     1       3.853   3.782  19.661  0.00  0.00    +0.000 A 
ATOM     21  C   UNL     1       3.876   2.557  20.336  0.00  0.00    +0.000 A 
ATOM     22  C   UNL     1       2.942   2.289  21.337  0.00  0.00    +0.000 A 
ATOM     23  C   UNL     1       1.991   3.249  21.678  0.00  0.00    +0.000 A 
ATOM     24  C   UNL     1       1.967   4.472  21.009  0.00  0.00    +0.000 A 
ENDBRANCH   7  19
BRANCH   1  25
ATOM     25  C   UNL     1       0.219   9.317  20.713  0.00  0.00    +0.000 C 
BRANCH  25  31
ATOM     26  O   UNL     1      -2.816  12.424  24.253  0.00  0.00    +0.000 OA
ATOM     27  C   UNL     1      -2.011  12.809  23.394  0.00  0.00    +0.000 C 
ATOM     28  N   UNL     1      -1.136  11.904  22.796  0.00  0.00    +0.000 N 
ATOM     29  C   UNL     1      -0.193  12.236  21.721  0.00  0.00    +0.000 C 
ATOM     30  C   UNL     1       1.083  11.367  21.772  0.00  0.00    +0.000 C 
ATOM     31  N   UNL     1       0.844   9.911  21.904  0.00  0.00    +0.000 NA
ATOM     32  C   UNL     1      -0.017   9.702  23.096  0.00  0.00    +0.000 C 
ATOM     33  C   UNL     1      -1.347  10.476  23.047  0.00  0.00    +0.000 C 
BRANCH  27  34
ATOM     34  C   UNL     1      -1.948  14.293  22.950  0.00  0.00    +0.000 C 
ATOM     35  C   UNL     1      -3.186  15.192  23.217  0.00  0.00    +0.000 C 
ATOM     36  C   UNL     1      -2.229  16.322  23.626  0.00  0.00    +0.000 C 
ATOM     37  C   UNL     1      -1.166  15.250  23.901  0.00  0.00    +0.000 C 
ENDBRANCH  27  34
ENDBRANCH  25  31
ENDBRANCH   1  25
TORSDOF 6
ENDMDL
MODEL 7
REMARK VINA RESULT:      -7.2      2.424      7.289
REMARK  Name = 
REMARK  6 active torsions:
REMARK  status: ('A' for Active; 'I' for Inactive)
REMARK    1  A    between atoms: C_2  and  C_3
REMARK    2  A    between atoms: N_10  and  C_11
REMARK    3  A    between atoms: C_11  and  C_12
REMARK    4  A    between atoms: C_13  and  C_14
REMARK    5  A    between atoms: C_18  and  N_19
REMARK    6  A    between atoms: C_27  and  C_28
REMARK                            x       y       z     vdW  Elec       q    Type
REMARK                         _______ _______ _______ _____ _____    ______ ____
ROOT
ATOM      1  C   UNL     1       1.075   9.607  19.487  0.00  0.00    +0.000 A 
ATOM      2  C   UNL     1       1.547  10.605  18.641  0.00  0.00    +0.000 A 
ATOM      3  N   UNL     1       2.444  10.091  17.728  0.00  0.00    +0.000 NA
ATOM      4  C   UNL     1       2.574   8.820  18.028  0.00  0.00    +0.000 A 
ATOM      5  C   UNL     1       3.416   7.807  17.482  0.00  0.00    +0.000 A 
ATOM      6  C   UNL     1       3.391   6.562  17.989  0.00  0.00    +0.000 A 
ATOM      7  C   UNL     1       2.513   6.207  19.101  0.00  0.00    +0.000 A 
ATOM      8  C   UNL     1       1.708   7.164  19.601  0.00  0.00    +0.000 A 
ATOM      9  N   UNL     1       1.746   8.461  19.084  0.00  0.00    +0.000 N 
ENDROOT
BRANCH   2  10
ATOM     10  C   UNL     1       1.205  12.020  18.643  0.00  0.00    +0.000 A 
ATOM     11  C   UNL     1      -0.117  12.404  18.361  0.00  0.00    +0.000 A 
ATOM     12  C   UNL     1      -0.484  13.754  18.314  0.00  0.00    +0.000 A 
ATOM     13  C   UNL     1       0.467  14.744  18.549  0.00  0.00    +0.000 A 
ATOM     14  C   UNL     1       1.787  14.372  18.825  0.00  0.00    +0.000 A 
ATOM     15  C   UNL     1       2.160  13.021  18.858  0.00  0.00    +0.000 A 
BRANCH  14  16
ATOM     16  N   UNL     1       2.803  15.405  19.069  0.00  0.00    +0.000 N 
ATOM     17  O   UNL     1       3.932  15.031  19.415  0.00  0.00    +0.000 OA
ATOM     18  O   UNL     1       2.471  16.590  18.918  0.00  0.00    +0.000 OA
ENDBRANCH  14  16
ENDBRANCH   2  10
BRANCH   7  19
ATOM     19  C   UNL     1       2.519   4.913  19.799  0.00  0.00    +0.000 A 
ATOM     20  C   UNL     1       1.564   4.602  20.773  0.00  0.00    +0.000 A 
ATOM     21  C   UNL     1       1.664   3.407  21.493  0.00  0.00    +0.000 A 
ATOM     22  C   UNL     1       2.711   2.521  21.240  0.00  0.00    +0.000 A 
ATOM     23  C   UNL     1       3.653   2.817  20.257  0.00  0.00    +0.000 A 
ATOM     24  C   UNL     1       3.555   4.007  19.537  0.00  0.00    +0.000 A 
ENDBRANCH   7  19
BRANCH   1  25
ATOM     25  C   UNL     1       0.118   9.618  20.630  0.00  0.00    +0.000 C 
BRANCH  25  31
ATOM     26  O   UNL     1      -3.495  11.713  24.365  0.00  0.00    +0.000 OA
ATOM     27  C   UNL     1      -2.894  12.312  23.463  0.00  0.00    +0.000 C 
ATOM     28  N   UNL     1      -1.824  11.703  22.808  0.00  0.00    +0.000 N 
ATOM     29  C   UNL     1      -1.088  12.290  21.682  0.00  0.00    +0.000 C 
ATOM     30  C   UNL     1       0.390  11.843  21.650  0.00  0.00    +0.000 C 
ATOM     31  N   UNL     1       0.606  10.384  21.786  0.00  0.00    +0.000 NA
ATOM     32  C   UNL     1      -0.082   9.940  23.025  0.00  0.00    +0.000 C 
ATOM     33  C   UNL     1      -1.583  10.280  23.061  0.00  0.00    +0.000 C 
BRANCH  27  34
ATOM     34  C   UNL     1      -3.303  13.742  23.027  0.00  0.00    +0.000 C 
ATOM     35  C   UNL     1      -4.718  13.947  22.421  0.00  0.00    +0.000 C 
ATOM     36  C   UNL     1      -4.832  15.249  23.229  0.00  0.00    +0.000 C 
ATOM     37  C   UNL     1      -3.759  14.693  24.175  0.00  0.00    +0.000 C 
ENDBRANCH  27  34
ENDBRANCH  25  31
ENDBRANCH   1  25
TORSDOF 6
ENDMDL
MODEL 8
REMARK VINA RESULT:      -7.1      2.507      6.516
REMARK  Name = 
REMARK  6 active torsions:
REMARK  status: ('A' for Active; 'I' for Inactive)
REMARK    1  A    between atoms: C_2  and  C_3
REMARK    2  A    between atoms: N_10  and  C_11
REMARK    3  A    between atoms: C_11  and  C_12
REMARK    4  A    between atoms: C_13  and  C_14
REMARK    5  A    between atoms: C_18  and  N_19
REMARK    6  A    between atoms: C_27  and  C_28
REMARK                            x       y       z     vdW  Elec       q    Type
REMARK                         _______ _______ _______ _____ _____    ______ ____
ROOT
ATOM      1  C   UNL     1       0.875  13.267  20.706  0.00  0.00    +0.000 A 
ATOM      2  C   UNL     1      -0.254  13.972  21.106  0.00  0.00    +0.000 A 
ATOM      3  N   UNL     1      -0.097  15.323  20.875  0.00  0.00    +0.000 NA
ATOM      4  C   UNL     1       1.117  15.467  20.396  0.00  0.00    +0.000 A 
ATOM      5  C   UNL     1       1.857  16.634  20.046  0.00  0.00    +0.000 A 
ATOM      6  C   UNL     1       3.120  16.525  19.599  0.00  0.00    +0.000 A 
ATOM      7  C   UNL     1       3.771  15.226  19.457  0.00  0.00    +0.000 A 
ATOM      8  C   UNL     1       3.060  14.125  19.773  0.00  0.00    +0.000 A 
ATOM      9  N   UNL     1       1.754  14.241  20.252  0.00  0.00    +0.000 N 
ENDROOT
BRANCH   2  10
ATOM     10  C   UNL     1      -1.478  13.450  21.698  0.00  0.00    +0.000 A 
ATOM     11  C   UNL     1      -1.445  12.961  23.015  0.00  0.00    +0.000 A 
ATOM     12  C   UNL     1      -2.586  12.414  23.613  0.00  0.00    +0.000 A 
ATOM     13  C   UNL     1      -3.782  12.349  22.903  0.00  0.00    +0.000 A 
ATOM     14  C   UNL     1      -3.824  12.829  21.589  0.00  0.00    +0.000 A 
ATOM     15  C   UNL     1      -2.677  13.362  20.983  0.00  0.00    +0.000 A 
BRANCH  14  16
ATOM     16  N   UNL     1      -5.076  12.761  20.824  0.00  0.00    +0.000 N 
ATOM     17  O   UNL     1      -5.209  13.535  19.866  0.00  0.00    +0.000 OA
ATOM     18  O   UNL     1      -5.929  11.936  21.183  0.00  0.00    +0.000 OA
ENDBRANCH  14  16
ENDBRANCH   2  10
BRANCH   7  19
ATOM     19  C   UNL     1       5.184  15.025  19.105  0.00  0.00    +0.000 A 
ATOM     20  C   UNL     1       5.563  14.531  17.852  0.00  0.00    +0.000 A 
ATOM     21  C   UNL     1       6.908  14.250  17.590  0.00  0.00    +0.000 A 
ATOM     22  C   UNL     1       7.874  14.465  18.573  0.00  0.00    +0.000 A 
ATOM     23  C   UNL     1       7.504  14.975  19.816  0.00  0.00    +0.000 A 
ATOM     24  C   UNL     1       6.164  15.257  20.079  0.00  0.00    +0.000 A 
ENDBRANCH   7  19
BRANCH   1  25
ATOM     25  C   UNL     1       1.229  11.819  20.739  0.00  0.00    +0.000 C 
BRANCH  25  31
ATOM     26  O   UNL     1       1.861   6.252  20.735  0.00  0.00    +0.000 OA
ATOM     27  C   UNL     1       1.960   7.034  19.779  0.00  0.00    +0.000 C 
ATOM     28  N   UNL     1       1.497   8.344  19.894  0.00  0.00    +0.000 N 
ATOM     29  C   UNL     1       1.626   9.372  18.854  0.00  0.00    +0.000 C 
ATOM     30  C   UNL     1       0.464  10.388  18.886  0.00  0.00    +0.000 C 
ATOM     31  N   UNL     1       0.161  10.951  20.222  0.00  0.00    +0.000 NA
ATOM     32  C   UNL     1      -0.071   9.813  21.148  0.00  0.00    +0.000 C 
ATOM     33  C   UNL     1       1.103   8.820  21.222  0.00  0.00    +0.000 C 
BRANCH  27  34
ATOM     34  C   UNL     1       2.599   6.596  18.436  0.00  0.00    +0.000 C 
ATOM     35  C   UNL     1       4.068   6.093  18.453  0.00  0.00    +0.000 C 
ATOM     36  C   UNL     1       3.662   4.994  17.459  0.00  0.00    +0.000 C 
ATOM     37  C   UNL     1       2.215   5.169  17.939  0.00  0.00    +0.000 C 
ENDBRANCH  27  34
ENDBRANCH  25  31
ENDBRANCH   1  25
TORSDOF 6
ENDMDL
MODEL 9
REMARK VINA RESULT:      -7.1      3.351      7.729
REMARK  Name = 
REMARK  6 active torsions:
REMARK  status: ('A' for Active; 'I' for Inactive)
REMARK    1  A    between atoms: C_2  and  C_3
REMARK    2  A    between atoms: N_10  and  C_11
REMARK    3  A    between atoms: C_11  and  C_12
REMARK    4  A    between atoms: C_13  and  C_14
REMARK    5  A    between atoms: C_18  and  N_19
REMARK    6  A    between atoms: C_27  and  C_28
REMARK                            x       y       z     vdW  Elec       q    Type
REMARK                         _______ _______ _______ _____ _____    ______ ____
ROOT
ATOM      1  C   UNL     1       0.819  11.672  20.715  0.00  0.00    +0.000 A 
ATOM      2  C   UNL     1       0.556  10.309  20.644  0.00  0.00    +0.000 A 
ATOM      3  N   UNL     1      -0.494   9.967  21.471  0.00  0.00    +0.000 NA
ATOM      4  C   UNL     1      -0.842  11.074  22.085  0.00  0.00    +0.000 A 
ATOM      5  C   UNL     1      -1.809  11.319  23.104  0.00  0.00    +0.000 A 
ATOM      6  C   UNL     1      -1.962  12.556  23.606  0.00  0.00    +0.000 A 
ATOM      7  C   UNL     1      -1.156  13.678  23.134  0.00  0.00    +0.000 A 
ATOM      8  C   UNL     1      -0.255  13.444  22.159  0.00  0.00    +0.000 A 
ATOM      9  N   UNL     1      -0.086  12.155  21.649  0.00  0.00    +0.000 N 
ENDROOT
BRANCH   2  10
ATOM     10  C   UNL     1       1.238   9.302  19.842  0.00  0.00    +0.000 A 
ATOM     11  C   UNL     1       1.476   9.559  18.481  0.00  0.00    +0.000 A 
ATOM     12  C   UNL     1       2.094   8.606  17.662  0.00  0.00    +0.000 A 
ATOM     13  C   UNL     1       2.486   7.380  18.193  0.00  0.00    +0.000 A 
ATOM     14  C   UNL     1       2.249   7.113  19.545  0.00  0.00    +0.000 A 
ATOM     15  C   UNL     1       1.616   8.060  20.363  0.00  0.00    +0.000 A 
BRANCH  14  16
ATOM     16  N   UNL     1       2.650   5.822  20.118  0.00  0.00    +0.000 N 
ATOM     17  O   UNL     1       3.758   5.368  19.797  0.00  0.00    +0.000 OA
ATOM     18  O   UNL     1       1.858   5.258  20.887  0.00  0.00    +0.000 OA
ENDBRANCH  14  16
ENDBRANCH   2  10
BRANCH   7  19
ATOM     19  C   UNL     1      -1.165  15.028  23.718  0.00  0.00    +0.000 A 
ATOM     20  C   UNL     1      -0.746  16.145  22.987  0.00  0.00    +0.000 A 
ATOM     21  C   UNL     1      -0.666  17.396  23.608  0.00  0.00    +0.000 A 
ATOM     22  C   UNL     1      -1.006  17.534  24.954  0.00  0.00    +0.000 A 
ATOM     23  C   UNL     1      -1.442  16.428  25.681  0.00  0.00    +0.000 A 
ATOM     24  C   UNL     1      -1.525  15.180  25.064  0.00  0.00    +0.000 A 
ENDBRANCH   7  19
BRANCH   1  25
ATOM     25  C   UNL     1       1.829  12.545  20.049  0.00  0.00    +0.000 C 
BRANCH  25  31
ATOM     26  O   UNL     1       3.010  17.534  17.791  0.00  0.00    +0.000 OA
ATOM     27  C   UNL     1       1.908  17.101  18.155  0.00  0.00    +0.000 C 
ATOM     28  N   UNL     1       1.744  15.744  18.430  0.00  0.00    +0.000 N 
ATOM     29  C   UNL     1       0.507  15.135  18.934  0.00  0.00    +0.000 C 
ATOM     30  C   UNL     1       0.333  13.678  18.454  0.00  0.00    +0.000 C 
ATOM     31  N   UNL     1       1.521  12.812  18.637  0.00  0.00    +0.000 NA
ATOM     32  C   UNL     1       2.671  13.480  17.977  0.00  0.00    +0.000 C 
ATOM     33  C   UNL     1       2.944  14.905  18.491  0.00  0.00    +0.000 C 
BRANCH  27  34
ATOM     34  C   UNL     1       0.684  18.036  18.321  0.00  0.00    +0.000 C 
ATOM     35  C   UNL     1      -0.480  17.909  17.301  0.00  0.00    +0.000 C 
ATOM     36  C   UNL     1      -1.467  18.073  18.466  0.00  0.00    +0.000 C 
ATOM     37  C   UNL     1      -0.348  17.612  19.409  0.00  0.00    +0.000 C 
ENDBRANCH  27  34
ENDBRANCH  25  31
ENDBRANCH   1  25
TORSDOF 6
ENDMDL
