MODEL 1
REMARK VINA RESULT:      -8.0      0.000      0.000
REMARK  Name = 
REMARK  18 active torsions:
REMARK  status: ('A' for Active; 'I' for Inactive)
REMARK    1  A    between atoms: C_1  and  C_2
REMARK    2  A    between atoms: C_2  and  C_3
REMARK    3  A    between atoms: C_3  and  C_4
REMARK    4  A    between atoms: C_4  and  C_5
REMARK    5  A    between atoms: C_5  and  C_6
REMARK    6  A    between atoms: C_6  and  N_7
REMARK    7  A    between atoms: C_9  and  C_10
REMARK    8  A    between atoms: C_10  and  C_11
REMARK    9  A    between atoms: C_10  and  C_12
REMARK   10  A    between atoms: C_10  and  C_13
REMARK   11  A    between atoms: C_15  and  C_16
REMARK   12  A    between atoms: C_16  and  N_17
REMARK   13  A    between atoms: C_18  and  C_20
REMARK   14  A    between atoms: C_20  and  C_21
REMARK   15  A    between atoms: C_20  and  C_22
REMARK   16  A    between atoms: C_25  and  N_26
REMARK   17  A    between atoms: N_26  and  S_27
REMARK   18  A    between atoms: S_27  and  C_28
REMARK                            x       y       z     vdW  Elec       q    Type
REMARK                         _______ _______ _______ _____ _____    ______ ____
ROOT
ATOM      1  N   UNL     1       1.638   8.322  18.798  0.00  0.00    +0.000 N 
ATOM      2  C   UNL     1       1.309   9.659  18.874  0.00  0.00    +0.000 C 
ATOM      3  O   UNL     1       1.820  10.501  18.137  0.00  0.00    +0.000 OA
ATOM      4  H   UNL     1       1.284   7.672  19.487  0.00  0.00    +0.000 HD
ENDROOT
BRANCH   2   5
ATOM      5  C   UNL     1       0.242  10.003  19.917  0.00  0.00    +0.000 C 
ATOM      6  C   UNL     1       0.819  10.992  20.935  0.00  0.00    +0.000 C 
BRANCH   5   7
ATOM      7  C   UNL     1      -1.027  10.533  19.265  0.00  0.00    +0.000 A 
ATOM      8  C   UNL     1      -1.608  11.728  19.723  0.00  0.00    +0.000 A 
ATOM      9  C   UNL     1      -2.775  12.232  19.135  0.00  0.00    +0.000 A 
ATOM     10  C   UNL     1      -3.390  11.536  18.100  0.00  0.00    +0.000 A 
ATOM     11  C   UNL     1      -2.814  10.353  17.634  0.00  0.00    +0.000 A 
ATOM     12  F   UNL     1      -3.384   9.687  16.618  0.00  0.00    +0.000 F 
ATOM     13  C   UNL     1      -1.643   9.853  18.200  0.00  0.00    +0.000 A 
BRANCH  10  14
ATOM     14  N   UNL     1      -4.572  12.069  17.506  0.00  0.00    +0.000 N 
ATOM     15  H   UNL     1      -4.511  13.021  17.139  0.00  0.00    +0.000 HD
BRANCH  14  16
ATOM     16  S   UNL     1      -6.051  11.755  18.248  0.00  0.00    +0.000 S 
ATOM     17  C   UNL     1      -6.053  12.841  19.665  0.00  0.00    +0.000 C 
ATOM     18  O   UNL     1      -7.062  12.235  17.334  0.00  0.00    +0.000 OA
ATOM     19  O   UNL     1      -6.060  10.385  18.719  0.00  0.00    +0.000 OA
ENDBRANCH  14  16
ENDBRANCH  10  14
ENDBRANCH   5   7
ENDBRANCH   2   5
BRANCH   1  20
ATOM     20  C   UNL     1       2.704   7.905  17.925  0.00  0.00    +0.000 C 
BRANCH  20  25
ATOM     21  N   UNL     1       4.138   5.836  17.871  0.00  0.00    +0.000 N 
ATOM     22  N   UNL     1       4.127   4.526  18.176  0.00  0.00    +0.000 NA
ATOM     23  C   UNL     1       2.885   4.285  18.617  0.00  0.00    +0.000 A 
ATOM     24  C   UNL     1       2.115   5.475  18.616  0.00  0.00    +0.000 A 
ATOM     25  C   UNL     1       2.946   6.461  18.126  0.00  0.00    +0.000 A 
BRANCH  23  26
ATOM     26  C   UNL     1       2.466   2.889  19.052  0.00  0.00    +0.000 C 
ATOM     27  C   UNL     1       3.215   1.830  18.220  0.00  0.00    +0.000 C 
ATOM     28  C   UNL     1       2.791   2.665  20.545  0.00  0.00    +0.000 C 
ATOM     29  C   UNL     1       0.949   2.673  18.868  0.00  0.00    +0.000 C 
ENDBRANCH  23  26
BRANCH  21  30
ATOM     30  C   UNL     1       5.349   6.412  17.311  0.00  0.00    +0.000 C 
BRANCH  30  31
ATOM     31  C   UNL     1       5.401   6.266  15.793  0.00  0.00    +0.000 C 
BRANCH  31  32
ATOM     32  C   UNL     1       6.238   5.055  15.376  0.00  0.00    +0.000 C 
BRANCH  32  33
ATOM     33  C   UNL     1       5.492   4.207  14.346  0.00  0.00    +0.000 C 
BRANCH  33  35
ATOM     34  C   UNL     1       5.572   3.144  12.069  0.00  0.00    +0.000 C 
ATOM     35  C   UNL     1       6.352   3.923  13.117  0.00  0.00    +0.000 C 
ENDBRANCH  33  35
ENDBRANCH  32  33
ENDBRANCH  31  32
ENDBRANCH  30  31
ENDBRANCH  21  30
ENDBRANCH  20  25
ENDBRANCH   1  20
TORSDOF 12
ENDMDL
MODEL 2
REMARK VINA RESULT:      -7.8      1.816      2.893
REMARK  Name = 
REMARK  18 active torsions:
REMARK  status: ('A' for Active; 'I' for Inactive)
REMARK    1  A    between atoms: C_1  and  C_2
REMARK    2  A    between atoms: C_2  and  C_3
REMARK    3  A    between atoms: C_3  and  C_4
REMARK    4  A    between atoms: C_4  and  C_5
REMARK    5  A    between atoms: C_5  and  C_6
REMARK    6  A    between atoms: C_6  and  N_7
REMARK    7  A    between atoms: C_9  and  C_10
REMARK    8  A    between atoms: C_10  and  C_11
REMARK    9  A    between atoms: C_10  and  C_12
REMARK   10  A    between atoms: C_10  and  C_13
REMARK   11  A    between atoms: C_15  and  C_16
REMARK   12  A    between atoms: C_16  and  N_17
REMARK   13  A    between atoms: C_18  and  C_20
REMARK   14  A    between atoms: C_20  and  C_21
REMARK   15  A    between atoms: C_20  and  C_22
REMARK   16  A    between atoms: C_25  and  N_26
REMARK   17  A    between atoms: N_26  and  S_27
REMARK   18  A    between atoms: S_27  and  C_28
REMARK                            x       y       z     vdW  Elec       q    Type
REMARK                         _______ _______ _______ _____ _____    ______ ____
ROOT
ATOM      1  N   UNL     1       1.721   8.511  18.690  0.00  0.00    +0.000 N 
ATOM      2  C   UNL     1       1.400   9.842  18.848  0.00  0.00    +0.000 C 
ATOM      3  O   UNL     1       1.930  10.726  18.177  0.00  0.00    +0.000 OA
ATOM      4  H   UNL     1       1.350   7.820  19.329  0.00  0.00    +0.000 HD
ENDROOT
BRANCH   2   5
ATOM      5  C   UNL     1       0.318  10.126  19.893  0.00  0.00    +0.000 C 
ATOM      6  C   UNL     1       0.852  11.121  20.929  0.00  0.00    +0.000 C 
BRANCH   5   7
ATOM      7  C   UNL     1      -0.969  10.616  19.245  0.00  0.00    +0.000 A 
ATOM      8  C   UNL     1      -1.619  11.759  19.745  0.00  0.00    +0.000 A 
ATOM      9  C   UNL     1      -2.804  12.225  19.161  0.00  0.00    +0.000 A 
ATOM     10  C   UNL     1      -3.368  11.542  18.088  0.00  0.00    +0.000 A 
ATOM     11  C   UNL     1      -2.724  10.413  17.581  0.00  0.00    +0.000 A 
ATOM     12  F   UNL     1      -3.245   9.762  16.531  0.00  0.00    +0.000 F 
ATOM     13  C   UNL     1      -1.535   9.952  18.144  0.00  0.00    +0.000 A 
BRANCH  10  14
ATOM     14  N   UNL     1      -4.569  12.038  17.501  0.00  0.00    +0.000 N 
ATOM     15  H   UNL     1      -4.482  12.864  16.906  0.00  0.00    +0.000 HD
BRANCH  14  16
ATOM     16  S   UNL     1      -5.968  12.060  18.438  0.00  0.00    +0.000 S 
ATOM     17  C   UNL     1      -7.188  12.793  17.360  0.00  0.00    +0.000 C 
ATOM     18  O   UNL     1      -6.337  10.677  18.630  0.00  0.00    +0.000 OA
ATOM     19  O   UNL     1      -5.764  12.943  19.567  0.00  0.00    +0.000 OA
ENDBRANCH  14  16
ENDBRANCH  10  14
ENDBRANCH   5   7
ENDBRANCH   2   5
BRANCH   1  20
ATOM     20  C   UNL     1       2.799   8.143  17.811  0.00  0.00    +0.000 C 
BRANCH  20  25
ATOM     21  N   UNL     1       4.453   6.246  17.893  0.00  0.00    +0.000 N 
ATOM     22  N   UNL     1       4.583   4.964  18.279  0.00  0.00    +0.000 NA
ATOM     23  C   UNL     1       3.370   4.614  18.729  0.00  0.00    +0.000 A 
ATOM     24  C   UNL     1       2.474   5.709  18.650  0.00  0.00    +0.000 A 
ATOM     25  C   UNL     1       3.196   6.750  18.103  0.00  0.00    +0.000 A 
BRANCH  23  26
ATOM     26  C   UNL     1       3.103   3.210  19.250  0.00  0.00    +0.000 C 
ATOM     27  C   UNL     1       2.338   3.279  20.585  0.00  0.00    +0.000 C 
ATOM     28  C   UNL     1       2.261   2.406  18.236  0.00  0.00    +0.000 C 
ATOM     29  C   UNL     1       4.419   2.436  19.479  0.00  0.00    +0.000 C 
ENDBRANCH  23  26
BRANCH  21  30
ATOM     30  C   UNL     1       5.599   6.916  17.302  0.00  0.00    +0.000 C 
BRANCH  30  31
ATOM     31  C   UNL     1       6.896   6.150  17.544  0.00  0.00    +0.000 C 
BRANCH  31  32
ATOM     32  C   UNL     1       7.895   6.982  18.351  0.00  0.00    +0.000 C 
BRANCH  32  33
ATOM     33  C   UNL     1       7.974   8.409  17.810  0.00  0.00    +0.000 C 
BRANCH  33  35
ATOM     34  C   UNL     1       9.023  10.675  18.106  0.00  0.00    +0.000 C 
ATOM     35  C   UNL     1       8.731   9.333  18.761  0.00  0.00    +0.000 C 
ENDBRANCH  33  35
ENDBRANCH  32  33
ENDBRANCH  31  32
ENDBRANCH  30  31
ENDBRANCH  21  30
ENDBRANCH  20  25
ENDBRANCH   1  20
TORSDOF 12
ENDMDL
MODEL 3
REMARK VINA RESULT:      -7.7      0.877      1.107
REMARK  Name = 
REMARK  18 active torsions:
REMARK  status: ('A' for Active; 'I' for Inactive)
REMARK    1  A    between atoms: C_1  and  C_2
REMARK    2  A    between atoms: C_2  and  C_3
REMARK    3  A    between atoms: C_3  and  C_4
REMARK    4  A    between atoms: C_4  and  C_5
REMARK    5  A    between atoms: C_5  and  C_6
REMARK    6  A    between atoms: C_6  and  N_7
REMARK    7  A    between atoms: C_9  and  C_10
REMARK    8  A    between atoms: C_10  and  C_11
REMARK    9  A    between atoms: C_10  and  C_12
REMARK   10  A    between atoms: C_10  and  C_13
REMARK   11  A    between atoms: C_15  and  C_16
REMARK   12  A    between atoms: C_16  and  N_17
REMARK   13  A    between atoms: C_18  and  C_20
REMARK   14  A    between atoms: C_20  and  C_21
REMARK   15  A    between atoms: C_20  and  C_22
REMARK   16  A    between atoms: C_25  and  N_26
REMARK   17  A    between atoms: N_26  and  S_27
REMARK   18  A    between atoms: S_27  and  C_28
REMARK                            x       y       z     vdW  Elec       q    Type
REMARK                         _______ _______ _______ _____ _____    ______ ____
ROOT
ATOM      1  N   UNL     1       1.797   8.313  18.913  0.00  0.00    +0.000 N 
ATOM      2  C   UNL     1       1.402   9.632  18.861  0.00  0.00    +0.000 C 
ATOM      3  O   UNL     1       1.801  10.400  17.987  0.00  0.00    +0.000 OA
ATOM      4  H   UNL     1       1.541   7.736  19.704  0.00  0.00    +0.000 HD
ENDROOT
BRANCH   2   5
ATOM      5  C   UNL     1       0.411  10.053  19.949  0.00  0.00    +0.000 C 
ATOM      6  C   UNL     1       1.066  11.088  20.869  0.00  0.00    +0.000 C 
BRANCH   5   7
ATOM      7  C   UNL     1      -0.891  10.567  19.351  0.00  0.00    +0.000 A 
ATOM      8  C   UNL     1      -1.520  11.698  19.900  0.00  0.00    +0.000 A 
ATOM      9  C   UNL     1      -2.718  12.186  19.362  0.00  0.00    +0.000 A 
ATOM     10  C   UNL     1      -3.315  11.536  18.286  0.00  0.00    +0.000 A 
ATOM     11  C   UNL     1      -2.691  10.418  17.731  0.00  0.00    +0.000 A 
ATOM     12  F   UNL     1      -3.245   9.799  16.677  0.00  0.00    +0.000 F 
ATOM     13  C   UNL     1      -1.490   9.936  18.248  0.00  0.00    +0.000 A 
BRANCH  10  14
ATOM     14  N   UNL     1      -4.529  12.054  17.746  0.00  0.00    +0.000 N 
ATOM     15  H   UNL     1      -4.478  12.971  17.299  0.00  0.00    +0.000 HD
BRANCH  14  16
ATOM     16  S   UNL     1      -5.950  11.840  18.624  0.00  0.00    +0.000 S 
ATOM     17  C   UNL     1      -7.204  12.567  17.582  0.00  0.00    +0.000 C 
ATOM     18  O   UNL     1      -6.186  10.415  18.653  0.00  0.00    +0.000 OA
ATOM     19  O   UNL     1      -5.868  12.609  19.848  0.00  0.00    +0.000 OA
ENDBRANCH  14  16
ENDBRANCH  10  14
ENDBRANCH   5   7
ENDBRANCH   2   5
BRANCH   1  20
ATOM     20  C   UNL     1       2.807   7.841  18.003  0.00  0.00    +0.000 C 
BRANCH  20  25
ATOM     21  N   UNL     1       4.022   5.665  17.640  0.00  0.00    +0.000 N 
ATOM     22  N   UNL     1       4.113   4.407  18.107  0.00  0.00    +0.000 NA
ATOM     23  C   UNL     1       3.181   4.327  19.067  0.00  0.00    +0.000 A 
ATOM     24  C   UNL     1       2.518   5.569  19.223  0.00  0.00    +0.000 A 
ATOM     25  C   UNL     1       3.076   6.416  18.287  0.00  0.00    +0.000 A 
BRANCH  23  26
ATOM     26  C   UNL     1       2.959   3.033  19.836  0.00  0.00    +0.000 C 
ATOM     27  C   UNL     1       1.982   2.123  19.067  0.00  0.00    +0.000 C 
ATOM     28  C   UNL     1       4.292   2.279  20.027  0.00  0.00    +0.000 C 
ATOM     29  C   UNL     1       2.374   3.307  21.238  0.00  0.00    +0.000 C 
ENDBRANCH  23  26
BRANCH  21  30
ATOM     30  C   UNL     1       4.882   6.064  16.539  0.00  0.00    +0.000 C 
BRANCH  30  31
ATOM     31  C   UNL     1       6.301   5.528  16.699  0.00  0.00    +0.000 C 
BRANCH  31  32
ATOM     32  C   UNL     1       6.522   4.270  15.856  0.00  0.00    +0.000 C 
BRANCH  32  33
ATOM     33  C   UNL     1       6.737   4.633  14.387  0.00  0.00    +0.000 C 
BRANCH  33  35
ATOM     34  C   UNL     1       6.350   3.447  12.204  0.00  0.00    +0.000 C 
ATOM     35  C   UNL     1       5.706   3.962  13.482  0.00  0.00    +0.000 C 
ENDBRANCH  33  35
ENDBRANCH  32  33
ENDBRANCH  31  32
ENDBRANCH  30  31
ENDBRANCH  21  30
ENDBRANCH  20  25
ENDBRANCH   1  20
TORSDOF 12
ENDMDL
MODEL 4
REMARK VINA RESULT:      -7.6      1.984      3.759
REMARK  Name = 
REMARK  18 active torsions:
REMARK  status: ('A' for Active; 'I' for Inactive)
REMARK    1  A    between atoms: C_1  and  C_2
REMARK    2  A    between atoms: C_2  and  C_3
REMARK    3  A    between atoms: C_3  and  C_4
REMARK    4  A    between atoms: C_4  and  C_5
REMARK    5  A    between atoms: C_5  and  C_6
REMARK    6  A    between atoms: C_6  and  N_7
REMARK    7  A    between atoms: C_9  and  C_10
REMARK    8  A    between atoms: C_10  and  C_11
REMARK    9  A    between atoms: C_10  and  C_12
REMARK   10  A    between atoms: C_10  and  C_13
REMARK   11  A    between atoms: C_15  and  C_16
REMARK   12  A    between atoms: C_16  and  N_17
REMARK   13  A    between atoms: C_18  and  C_20
REMARK   14  A    between atoms: C_20  and  C_21
REMARK   15  A    between atoms: C_20  and  C_22
REMARK   16  A    between atoms: C_25  and  N_26
REMARK   17  A    between atoms: N_26  and  S_27
REMARK   18  A    between atoms: S_27  and  C_28
REMARK                            x       y       z     vdW  Elec       q    Type
REMARK                         _______ _______ _______ _____ _____    ______ ____
ROOT
ATOM      1  N   UNL     1       1.909   8.255  17.986  0.00  0.00    +0.000 N 
ATOM      2  C   UNL     1       1.465   8.920  19.110  0.00  0.00    +0.000 C 
ATOM      3  O   UNL     1       1.221   8.333  20.162  0.00  0.00    +0.000 OA
ATOM      4  H   UNL     1       1.997   8.747  17.106  0.00  0.00    +0.000 HD
ENDROOT
BRANCH   2   5
ATOM      5  C   UNL     1       1.333  10.437  18.952  0.00  0.00    +0.000 C 
ATOM      6  C   UNL     1       2.374  10.942  17.948  0.00  0.00    +0.000 C 
BRANCH   5   7
ATOM      7  C   UNL     1      -0.081  10.837  18.556  0.00  0.00    +0.000 A 
ATOM      8  C   UNL     1      -0.520  12.158  18.751  0.00  0.00    +0.000 A 
ATOM      9  C   UNL     1      -1.818  12.545  18.391  0.00  0.00    +0.000 A 
ATOM     10  C   UNL     1      -2.700  11.612  17.855  0.00  0.00    +0.000 A 
ATOM     11  C   UNL     1      -2.267  10.301  17.650  0.00  0.00    +0.000 A 
ATOM     12  F   UNL     1      -3.101   9.400  17.110  0.00  0.00    +0.000 F 
ATOM     13  C   UNL     1      -0.973   9.911  17.988  0.00  0.00    +0.000 A 
BRANCH  10  14
ATOM     14  N   UNL     1      -4.013  12.027  17.486  0.00  0.00    +0.000 N 
ATOM     15  H   UNL     1      -4.080  12.770  16.788  0.00  0.00    +0.000 HD
BRANCH  14  16
ATOM     16  S   UNL     1      -5.178  12.165  18.694  0.00  0.00    +0.000 S 
ATOM     17  C   UNL     1      -6.082  10.629  18.587  0.00  0.00    +0.000 C 
ATOM     18  O   UNL     1      -4.454  12.155  19.944  0.00  0.00    +0.000 OA
ATOM     19  O   UNL     1      -6.076  13.251  18.360  0.00  0.00    +0.000 OA
ENDBRANCH  14  16
ENDBRANCH  10  14
ENDBRANCH   5   7
ENDBRANCH   2   5
BRANCH   1  20
ATOM     20  C   UNL     1       1.968   6.817  17.992  0.00  0.00    +0.000 C 
BRANCH  20  25
ATOM     21  N   UNL     1       3.690   5.668  19.424  0.00  0.00    +0.000 N 
ATOM     22  N   UNL     1       5.000   5.367  19.477  0.00  0.00    +0.000 NA
ATOM     23  C   UNL     1       5.530   5.941  18.388  0.00  0.00    +0.000 A 
ATOM     24  C   UNL     1       4.525   6.584  17.624  0.00  0.00    +0.000 A 
ATOM     25  C   UNL     1       3.346   6.398  18.317  0.00  0.00    +0.000 A 
BRANCH  23  26
ATOM     26  C   UNL     1       7.019   5.838  18.095  0.00  0.00    +0.000 C 
ATOM     27  C   UNL     1       7.298   4.615  17.200  0.00  0.00    +0.000 C 
ATOM     28  C   UNL     1       7.520   7.106  17.371  0.00  0.00    +0.000 C 
ATOM     29  C   UNL     1       7.839   5.690  19.395  0.00  0.00    +0.000 C 
ENDBRANCH  23  26
BRANCH  21  30
ATOM     30  C   UNL     1       2.829   5.226  20.507  0.00  0.00    +0.000 C 
BRANCH  30  31
ATOM     31  C   UNL     1       2.477   3.745  20.389  0.00  0.00    +0.000 C 
BRANCH  31  32
ATOM     32  C   UNL     1       1.173   3.540  19.616  0.00  0.00    +0.000 C 
BRANCH  32  33
ATOM     33  C   UNL     1       1.242   2.276  18.760  0.00  0.00    +0.000 C 
BRANCH  33  35
ATOM     34  C   UNL     1       2.822   3.118  16.994  0.00  0.00    +0.000 C 
ATOM     35  C   UNL     1       2.614   2.106  18.111  0.00  0.00    +0.000 C 
ENDBRANCH  33  35
ENDBRANCH  32  33
ENDBRANCH  31  32
ENDBRANCH  30  31
ENDBRANCH  21  30
ENDBRANCH  20  25
ENDBRANCH   1  20
TORSDOF 12
ENDMDL
MODEL 5
REMARK VINA RESULT:      -7.5      1.237      2.139
REMARK  Name = 
REMARK  18 active torsions:
REMARK  status: ('A' for Active; 'I' for Inactive)
REMARK    1  A    between atoms: C_1  and  C_2
REMARK    2  A    between atoms: C_2  and  C_3
REMARK    3  A    between atoms: C_3  and  C_4
REMARK    4  A    between atoms: C_4  and  C_5
REMARK    5  A    between atoms: C_5  and  C_6
REMARK    6  A    between atoms: C_6  and  N_7
REMARK    7  A    between atoms: C_9  and  C_10
REMARK    8  A    between atoms: C_10  and  C_11
REMARK    9  A    between atoms: C_10  and  C_12
REMARK   10  A    between atoms: C_10  and  C_13
REMARK   11  A    between atoms: C_15  and  C_16
REMARK   12  A    between atoms: C_16  and  N_17
REMARK   13  A    between atoms: C_18  and  C_20
REMARK   14  A    between atoms: C_20  and  C_21
REMARK   15  A    between atoms: C_20  and  C_22
REMARK   16  A    between atoms: C_25  and  N_26
REMARK   17  A    between atoms: N_26  and  S_27
REMARK   18  A    between atoms: S_27  and  C_28
REMARK                            x       y       z     vdW  Elec       q    Type
REMARK                         _______ _______ _______ _____ _____    ______ ____
ROOT
ATOM      1  N   UNL     1       1.865   8.626  19.175  0.00  0.00    +0.000 N 
ATOM      2  C   UNL     1       1.026   9.653  18.799  0.00  0.00    +0.000 C 
ATOM      3  O   UNL     1       0.959  10.050  17.638  0.00  0.00    +0.000 OA
ATOM      4  H   UNL     1       1.978   8.394  20.154  0.00  0.00    +0.000 HD
ENDROOT
BRANCH   2   5
ATOM      5  C   UNL     1       0.168  10.232  19.928  0.00  0.00    +0.000 C 
ATOM      6  C   UNL     1       0.960  11.311  20.674  0.00  0.00    +0.000 C 
BRANCH   5   7
ATOM      7  C   UNL     1      -1.160  10.760  19.405  0.00  0.00    +0.000 A 
ATOM      8  C   UNL     1      -1.764  11.874  20.014  0.00  0.00    +0.000 A 
ATOM      9  C   UNL     1      -2.986  12.375  19.547  0.00  0.00    +0.000 A 
ATOM     10  C   UNL     1      -3.632  11.755  18.482  0.00  0.00    +0.000 A 
ATOM     11  C   UNL     1      -3.034  10.653  17.867  0.00  0.00    +0.000 A 
ATOM     12  F   UNL     1      -3.636  10.064  16.823  0.00  0.00    +0.000 F 
ATOM     13  C   UNL     1      -1.810  10.159  18.313  0.00  0.00    +0.000 A 
BRANCH  10  14
ATOM     14  N   UNL     1      -4.870  12.285  18.013  0.00  0.00    +0.000 N 
ATOM     15  H   UNL     1      -4.934  13.302  17.939  0.00  0.00    +0.000 HD
BRANCH  14  16
ATOM     16  S   UNL     1      -6.299  11.585  18.563  0.00  0.00    +0.000 S 
ATOM     17  C   UNL     1      -6.502  12.266  20.200  0.00  0.00    +0.000 C 
ATOM     18  O   UNL     1      -7.350  12.129  17.735  0.00  0.00    +0.000 OA
ATOM     19  O   UNL     1      -6.107  10.154  18.682  0.00  0.00    +0.000 OA
ENDBRANCH  14  16
ENDBRANCH  10  14
ENDBRANCH   5   7
ENDBRANCH   2   5
BRANCH   1  20
ATOM     20  C   UNL     1       2.791   8.082  18.217  0.00  0.00    +0.000 C 
BRANCH  20  25
ATOM     21  N   UNL     1       3.698   5.791  17.701  0.00  0.00    +0.000 N 
ATOM     22  N   UNL     1       3.597   4.500  18.064  0.00  0.00    +0.000 NA
ATOM     23  C   UNL     1       2.634   4.479  18.996  0.00  0.00    +0.000 A 
ATOM     24  C   UNL     1       2.147   5.787  19.241  0.00  0.00    +0.000 A 
ATOM     25  C   UNL     1       2.847   6.616  18.389  0.00  0.00    +0.000 A 
BRANCH  23  26
ATOM     26  C   UNL     1       2.209   3.174  19.653  0.00  0.00    +0.000 C 
ATOM     27  C   UNL     1       1.054   3.431  20.640  0.00  0.00    +0.000 C 
ATOM     28  C   UNL     1       1.735   2.159  18.590  0.00  0.00    +0.000 C 
ATOM     29  C   UNL     1       3.378   2.526  20.425  0.00  0.00    +0.000 C 
ENDBRANCH  23  26
BRANCH  21  30
ATOM     30  C   UNL     1       4.639   6.149  16.653  0.00  0.00    +0.000 C 
BRANCH  30  31
ATOM     31  C   UNL     1       5.505   4.964  16.234  0.00  0.00    +0.000 C 
BRANCH  31  32
ATOM     32  C   UNL     1       6.995   5.291  16.355  0.00  0.00    +0.000 C 
BRANCH  32  33
ATOM     33  C   UNL     1       7.563   4.761  17.671  0.00  0.00    +0.000 C 
BRANCH  33  35
ATOM     34  C   UNL     1       7.985   7.164  18.279  0.00  0.00    +0.000 C 
ATOM     35  C   UNL     1       7.501   5.811  18.778  0.00  0.00    +0.000 C 
ENDBRANCH  33  35
ENDBRANCH  32  33
ENDBRANCH  31  32
ENDBRANCH  30  31
ENDBRANCH  21  30
ENDBRANCH  20  25
ENDBRANCH   1  20
TORSDOF 12
ENDMDL
MODEL 6
REMARK VINA RESULT:      -7.5      1.576      3.900
REMARK  Name = 
REMARK  18 active torsions:
REMARK  status: ('A' for Active; 'I' for Inactive)
REMARK    1  A    between atoms: C_1  and  C_2
REMARK    2  A    between atoms: C_2  and  C_3
REMARK    3  A    between atoms: C_3  and  C_4
REMARK    4  A    between atoms: C_4  and  C_5
REMARK    5  A    between atoms: C_5  and  C_6
REMARK    6  A    between atoms: C_6  and  N_7
REMARK    7  A    between atoms: C_9  and  C_10
REMARK    8  A    between atoms: C_10  and  C_11
REMARK    9  A    between atoms: C_10  and  C_12
REMARK   10  A    between atoms: C_10  and  C_13
REMARK   11  A    between atoms: C_15  and  C_16
REMARK   12  A    between atoms: C_16  and  N_17
REMARK   13  A    between atoms: C_18  and  C_20
REMARK   14  A    between atoms: C_20  and  C_21
REMARK   15  A    between atoms: C_20  and  C_22
REMARK   16  A    between atoms: C_25  and  N_26
REMARK   17  A    between atoms: N_26  and  S_27
REMARK   18  A    between atoms: S_27  and  C_28
REMARK                            x       y       z     vdW  Elec       q    Type
REMARK                         _______ _______ _______ _____ _____    ______ ____
ROOT
ATOM      1  N   UNL     1       2.023   8.275  19.243  0.00  0.00    +0.000 N 
ATOM      2  C   UNL     1       1.097   9.097  19.850  0.00  0.00    +0.000 C 
ATOM      3  O   UNL     1       0.408   8.719  20.795  0.00  0.00    +0.000 OA
ATOM      4  H   UNL     1       2.495   8.577  18.401  0.00  0.00    +0.000 HD
ENDROOT
BRANCH   2   5
ATOM      5  C   UNL     1       1.020  10.515  19.279  0.00  0.00    +0.000 C 
ATOM      6  C   UNL     1       2.011  10.657  18.119  0.00  0.00    +0.000 C 
BRANCH   5   7
ATOM      7  C   UNL     1      -0.399  10.874  18.862  0.00  0.00    +0.000 A 
ATOM      8  C   UNL     1      -1.031  12.002  19.412  0.00  0.00    +0.000 A 
ATOM      9  C   UNL     1      -2.337  12.348  19.040  0.00  0.00    +0.000 A 
ATOM     10  C   UNL     1      -3.035  11.558  18.132  0.00  0.00    +0.000 A 
ATOM     11  C   UNL     1      -2.410  10.442  17.574  0.00  0.00    +0.000 A 
ATOM     12  F   UNL     1      -3.065   9.688  16.678  0.00  0.00    +0.000 F 
ATOM     13  C   UNL     1      -1.105  10.100  17.925  0.00  0.00    +0.000 A 
BRANCH  10  14
ATOM     14  N   UNL     1      -4.359  11.932  17.757  0.00  0.00    +0.000 N 
ATOM     15  H   UNL     1      -4.480  12.873  17.378  0.00  0.00    +0.000 HD
BRANCH  14  16
ATOM     16  S   UNL     1      -5.634  11.468  18.754  0.00  0.00    +0.000 S 
ATOM     17  C   UNL     1      -7.070  12.172  17.961  0.00  0.00    +0.000 C 
ATOM     18  O   UNL     1      -5.731  10.032  18.629  0.00  0.00    +0.000 OA
ATOM     19  O   UNL     1      -5.472  12.095  20.050  0.00  0.00    +0.000 OA
ENDBRANCH  14  16
ENDBRANCH  10  14
ENDBRANCH   5   7
ENDBRANCH   2   5
BRANCH   1  20
ATOM     20  C   UNL     1       2.102   6.892  19.631  0.00  0.00    +0.000 C 
BRANCH  20  25
ATOM     21  N   UNL     1       2.767   5.190  17.898  0.00  0.00    +0.000 N 
ATOM     22  N   UNL     1       3.819   4.761  17.177  0.00  0.00    +0.000 NA
ATOM     23  C   UNL     1       4.852   5.502  17.600  0.00  0.00    +0.000 A 
ATOM     24  C   UNL     1       4.430   6.433  18.582  0.00  0.00    +0.000 A 
ATOM     25  C   UNL     1       3.081   6.208  18.760  0.00  0.00    +0.000 A 
BRANCH  23  26
ATOM     26  C   UNL     1       6.246   5.302  17.024  0.00  0.00    +0.000 C 
ATOM     27  C   UNL     1       7.102   4.465  17.994  0.00  0.00    +0.000 C 
ATOM     28  C   UNL     1       6.174   4.568  15.668  0.00  0.00    +0.000 C 
ATOM     29  C   UNL     1       6.955   6.652  16.785  0.00  0.00    +0.000 C 
ENDBRANCH  23  26
BRANCH  21  30
ATOM     30  C   UNL     1       1.480   4.543  17.708  0.00  0.00    +0.000 C 
BRANCH  30  31
ATOM     31  C   UNL     1       1.466   3.125  18.272  0.00  0.00    +0.000 C 
BRANCH  31  32
ATOM     32  C   UNL     1       0.862   3.088  19.677  0.00  0.00    +0.000 C 
BRANCH  32  33
ATOM     33  C   UNL     1       1.813   2.405  20.660  0.00  0.00    +0.000 C 
BRANCH  33  35
ATOM     34  C   UNL     1       4.268   2.343  20.118  0.00  0.00    +0.000 C 
ATOM     35  C   UNL     1       3.146   3.143  20.763  0.00  0.00    +0.000 C 
ENDBRANCH  33  35
ENDBRANCH  32  33
ENDBRANCH  31  32
ENDBRANCH  30  31
ENDBRANCH  21  30
ENDBRANCH  20  25
ENDBRANCH   1  20
TORSDOF 12
ENDMDL
MODEL 7
REMARK VINA RESULT:      -7.5      1.767      2.960
REMARK  Name = 
REMARK  18 active torsions:
REMARK  status: ('A' for Active; 'I' for Inactive)
REMARK    1  A    between atoms: C_1  and  C_2
REMARK    2  A    between atoms: C_2  and  C_3
REMARK    3  A    between atoms: C_3  and  C_4
REMARK    4  A    between atoms: C_4  and  C_5
REMARK    5  A    between atoms: C_5  and  C_6
REMARK    6  A    between atoms: C_6  and  N_7
REMARK    7  A    between atoms: C_9  and  C_10
REMARK    8  A    between atoms: C_10  and  C_11
REMARK    9  A    between atoms: C_10  and  C_12
REMARK   10  A    between atoms: C_10  and  C_13
REMARK   11  A    between atoms: C_15  and  C_16
REMARK   12  A    between atoms: C_16  and  N_17
REMARK   13  A    between atoms: C_18  and  C_20
REMARK   14  A    between atoms: C_20  and  C_21
REMARK   15  A    between atoms: C_20  and  C_22
REMARK   16  A    between atoms: C_25  and  N_26
REMARK   17  A    between atoms: N_26  and  S_27
REMARK   18  A    between atoms: S_27  and  C_28
REMARK                            x       y       z     vdW  Elec       q    Type
REMARK                         _______ _______ _______ _____ _____    ______ ____
ROOT
ATOM      1  N   UNL     1       1.710   8.278  18.791  0.00  0.00    +0.000 N 
ATOM      2  C   UNL     1       1.310   9.588  18.944  0.00  0.00    +0.000 C 
ATOM      3  O   UNL     1       1.717  10.485  18.209  0.00  0.00    +0.000 OA
ATOM      4  H   UNL     1       1.445   7.582  19.476  0.00  0.00    +0.000 HD
ENDROOT
BRANCH   2   5
ATOM      5  C   UNL     1       0.302   9.828  20.071  0.00  0.00    +0.000 C 
ATOM      6  C   UNL     1       0.976  10.608  21.205  0.00  0.00    +0.000 C 
BRANCH   5   7
ATOM      7  C   UNL     1      -0.949  10.530  19.563  0.00  0.00    +0.000 A 
ATOM      8  C   UNL     1      -1.717   9.948  18.540  0.00  0.00    +0.000 A 
ATOM      9  C   UNL     1      -2.872  10.579  18.059  0.00  0.00    +0.000 A 
ATOM     10  C   UNL     1      -3.259  11.811  18.578  0.00  0.00    +0.000 A 
ATOM     11  C   UNL     1      -2.506  12.390  19.600  0.00  0.00    +0.000 A 
ATOM     12  F   UNL     1      -2.886  13.565  20.125  0.00  0.00    +0.000 F 
ATOM     13  C   UNL     1      -1.366  11.761  20.097  0.00  0.00    +0.000 A 
BRANCH  10  14
ATOM     14  N   UNL     1      -4.444  12.433  18.084  0.00  0.00    +0.000 N 
ATOM     15  H   UNL     1      -4.333  13.355  17.658  0.00  0.00    +0.000 HD
BRANCH  14  16
ATOM     16  S   UNL     1      -5.854  12.305  18.994  0.00  0.00    +0.000 S 
ATOM     17  C   UNL     1      -6.655  10.854  18.331  0.00  0.00    +0.000 C 
ATOM     18  O   UNL     1      -5.430  11.989  20.338  0.00  0.00    +0.000 OA
ATOM     19  O   UNL     1      -6.693  13.455  18.727  0.00  0.00    +0.000 OA
ENDBRANCH  14  16
ENDBRANCH  10  14
ENDBRANCH   5   7
ENDBRANCH   2   5
BRANCH   1  20
ATOM     20  C   UNL     1       2.734   7.958  17.831  0.00  0.00    +0.000 C 
BRANCH  20  25
ATOM     21  N   UNL     1       4.064   5.895  17.273  0.00  0.00    +0.000 N 
ATOM     22  N   UNL     1       4.124   4.571  17.508  0.00  0.00    +0.000 NA
ATOM     23  C   UNL     1       3.056   4.309  18.276  0.00  0.00    +0.000 A 
ATOM     24  C   UNL     1       2.335   5.498  18.550  0.00  0.00    +0.000 A 
ATOM     25  C   UNL     1       3.003   6.507  17.888  0.00  0.00    +0.000 A 
BRANCH  23  26
ATOM     26  C   UNL     1       2.762   2.894  18.749  0.00  0.00    +0.000 C 
ATOM     27  C   UNL     1       1.253   2.602  18.632  0.00  0.00    +0.000 C 
ATOM     28  C   UNL     1       3.532   1.864  17.895  0.00  0.00    +0.000 C 
ATOM     29  C   UNL     1       3.188   2.692  20.218  0.00  0.00    +0.000 C 
ENDBRANCH  23  26
BRANCH  21  30
ATOM     30  C   UNL     1       5.071   6.497  16.416  0.00  0.00    +0.000 C 
BRANCH  30  31
ATOM     31  C   UNL     1       6.427   5.814  16.561  0.00  0.00    +0.000 C 
BRANCH  31  32
ATOM     32  C   UNL     1       7.237   6.418  17.711  0.00  0.00    +0.000 C 
BRANCH  32  33
ATOM     33  C   UNL     1       7.507   7.902  17.463  0.00  0.00    +0.000 C 
BRANCH  33  35
ATOM     34  C   UNL     1       8.729   9.958  18.238  0.00  0.00    +0.000 C 
ATOM     35  C   UNL     1       8.502   8.472  18.471  0.00  0.00    +0.000 C 
ENDBRANCH  33  35
ENDBRANCH  32  33
ENDBRANCH  31  32
ENDBRANCH  30  31
ENDBRANCH  21  30
ENDBRANCH  20  25
ENDBRANCH   1  20
TORSDOF 12
ENDMDL
MODEL 8
REMARK VINA RESULT:      -7.3      3.889      6.097
REMARK  Name = 
REMARK  18 active torsions:
REMARK  status: ('A' for Active; 'I' for Inactive)
REMARK    1  A    between atoms: C_1  and  C_2
REMARK    2  A    between atoms: C_2  and  C_3
REMARK    3  A    between atoms: C_3  and  C_4
REMARK    4  A    between atoms: C_4  and  C_5
REMARK    5  A    between atoms: C_5  and  C_6
REMARK    6  A    between atoms: C_6  and  N_7
REMARK    7  A    between atoms: C_9  and  C_10
REMARK    8  A    between atoms: C_10  and  C_11
REMARK    9  A    between atoms: C_10  and  C_12
REMARK   10  A    between atoms: C_10  and  C_13
REMARK   11  A    between atoms: C_15  and  C_16
REMARK   12  A    between atoms: C_16  and  N_17
REMARK   13  A    between atoms: C_18  and  C_20
REMARK   14  A    between atoms: C_20  and  C_21
REMARK   15  A    between atoms: C_20  and  C_22
REMARK   16  A    between atoms: C_25  and  N_26
REMARK   17  A    between atoms: N_26  and  S_27
REMARK   18  A    between atoms: S_27  and  C_28
REMARK                            x       y       z     vdW  Elec       q    Type
REMARK                         _______ _______ _______ _____ _____    ______ ____
ROOT
ATOM      1  N   UNL     1       1.955   8.087  18.443  0.00  0.00    +0.000 N 
ATOM      2  C   UNL     1       1.323   9.097  19.136  0.00  0.00    +0.000 C 
ATOM      3  O   UNL     1       1.206   9.076  20.360  0.00  0.00    +0.000 OA
ATOM      4  H   UNL     1       1.940   8.078  17.431  0.00  0.00    +0.000 HD
ENDROOT
BRANCH   2   5
ATOM      5  C   UNL     1       0.812  10.253  18.271  0.00  0.00    +0.000 C 
ATOM      6  C   UNL     1      -0.719  10.235  18.242  0.00  0.00    +0.000 C 
BRANCH   5   7
ATOM      7  C   UNL     1       1.357  11.591  18.749  0.00  0.00    +0.000 A 
ATOM      8  C   UNL     1       0.745  12.258  19.825  0.00  0.00    +0.000 A 
ATOM      9  C   UNL     1       1.232  13.490  20.279  0.00  0.00    +0.000 A 
ATOM     10  C   UNL     1       2.321  14.083  19.649  0.00  0.00    +0.000 A 
ATOM     11  C   UNL     1       2.940  13.424  18.586  0.00  0.00    +0.000 A 
ATOM     12  F   UNL     1       4.006  13.975  17.988  0.00  0.00    +0.000 F 
ATOM     13  C   UNL     1       2.473  12.189  18.138  0.00  0.00    +0.000 A 
BRANCH  10  14
ATOM     14  N   UNL     1       2.809  15.333  20.132  0.00  0.00    +0.000 N 
ATOM     15  H   UNL     1       3.028  15.386  21.128  0.00  0.00    +0.000 HD
BRANCH  14  16
ATOM     16  S   UNL     1       2.105  16.747  19.548  0.00  0.00    +0.000 S 
ATOM     17  C   UNL     1       0.975  17.223  20.847  0.00  0.00    +0.000 C 
ATOM     18  O   UNL     1       3.162  17.731  19.513  0.00  0.00    +0.000 OA
ATOM     19  O   UNL     1       1.335  16.435  18.362  0.00  0.00    +0.000 OA
ENDBRANCH  14  16
ENDBRANCH  10  14
ENDBRANCH   5   7
ENDBRANCH   2   5
BRANCH   1  20
ATOM     20  C   UNL     1       2.378   6.905  19.145  0.00  0.00    +0.000 C 
BRANCH  20  25
ATOM     21  N   UNL     1       3.316   5.133  17.622  0.00  0.00    +0.000 N 
ATOM     22  N   UNL     1       4.442   4.765  16.984  0.00  0.00    +0.000 NA
ATOM     23  C   UNL     1       5.361   5.665  17.362  0.00  0.00    +0.000 A 
ATOM     24  C   UNL     1       4.788   6.630  18.227  0.00  0.00    +0.000 A 
ATOM     25  C   UNL     1       3.468   6.262  18.383  0.00  0.00    +0.000 A 
BRANCH  23  26
ATOM     26  C   UNL     1       6.793   5.580  16.856  0.00  0.00    +0.000 C 
ATOM     27  C   UNL     1       7.486   6.948  17.001  0.00  0.00    +0.000 C 
ATOM     28  C   UNL     1       7.592   4.532  17.660  0.00  0.00    +0.000 C 
ATOM     29  C   UNL     1       6.841   5.162  15.371  0.00  0.00    +0.000 C 
ENDBRANCH  23  26
BRANCH  21  30
ATOM     30  C   UNL     1       2.124   4.318  17.459  0.00  0.00    +0.000 C 
BRANCH  30  31
ATOM     31  C   UNL     1       2.210   3.016  18.250  0.00  0.00    +0.000 C 
BRANCH  31  32
ATOM     32  C   UNL     1       0.930   2.760  19.048  0.00  0.00    +0.000 C 
BRANCH  32  33
ATOM     33  C   UNL     1       0.779   3.782  20.174  0.00  0.00    +0.000 C 
BRANCH  33  35
ATOM     34  C   UNL     1       2.104   2.533  21.909  0.00  0.00    +0.000 C 
ATOM     35  C   UNL     1       2.006   3.807  21.083  0.00  0.00    +0.000 C 
ENDBRANCH  33  35
ENDBRANCH  32  33
ENDBRANCH  31  32
ENDBRANCH  30  31
ENDBRANCH  21  30
ENDBRANCH  20  25
ENDBRANCH   1  20
TORSDOF 12
ENDMDL
MODEL 9
REMARK VINA RESULT:      -7.3      3.172      4.789
REMARK  Name = 
REMARK  18 active torsions:
REMARK  status: ('A' for Active; 'I' for Inactive)
REMARK    1  A    between atoms: C_1  and  C_2
REMARK    2  A    between atoms: C_2  and  C_3
REMARK    3  A    between atoms: C_3  and  C_4
REMARK    4  A    between atoms: C_4  and  C_5
REMARK    5  A    between atoms: C_5  and  C_6
REMARK    6  A    between atoms: C_6  and  N_7
REMARK    7  A    between atoms: C_9  and  C_10
REMARK    8  A    between atoms: C_10  and  C_11
REMARK    9  A    between atoms: C_10  and  C_12
REMARK   10  A    between atoms: C_10  and  C_13
REMARK   11  A    between atoms: C_15  and  C_16
REMARK   12  A    between atoms: C_16  and  N_17
REMARK   13  A    between atoms: C_18  and  C_20
REMARK   14  A    between atoms: C_20  and  C_21
REMARK   15  A    between atoms: C_20  and  C_22
REMARK   16  A    between atoms: C_25  and  N_26
REMARK   17  A    between atoms: N_26  and  S_27
REMARK   18  A    between atoms: S_27  and  C_28
REMARK                            x       y       z     vdW  Elec       q    Type
REMARK                         _______ _______ _______ _____ _____    ______ ____
ROOT
ATOM      1  N   UNL     1       1.750   9.609  18.877  0.00  0.00    +0.000 N 
ATOM      2  C   UNL     1       0.870  10.670  18.856  0.00  0.00    +0.000 C 
ATOM      3  O   UNL     1      -0.167  10.645  18.196  0.00  0.00    +0.000 OA
ATOM      4  H   UNL     1       2.645   9.700  19.341  0.00  0.00    +0.000 HD
ENDROOT
BRANCH   2   5
ATOM      5  C   UNL     1       1.267  11.856  19.739  0.00  0.00    +0.000 C 
ATOM      6  C   UNL     1       1.486  13.096  18.865  0.00  0.00    +0.000 C 
BRANCH   5   7
ATOM      7  C   UNL     1       0.240  12.106  20.834  0.00  0.00    +0.000 A 
ATOM      8  C   UNL     1      -0.343  13.377  20.976  0.00  0.00    +0.000 A 
ATOM      9  C   UNL     1      -1.290  13.626  21.978  0.00  0.00    +0.000 A 
ATOM     10  C   UNL     1      -1.648  12.616  22.865  0.00  0.00    +0.000 A 
ATOM     11  C   UNL     1      -1.080  11.349  22.724  0.00  0.00    +0.000 A 
ATOM     12  F   UNL     1      -1.437  10.361  23.558  0.00  0.00    +0.000 F 
ATOM     13  C   UNL     1      -0.150  11.087  21.719  0.00  0.00    +0.000 A 
BRANCH  10  14
ATOM     14  N   UNL     1      -2.621  12.885  23.872  0.00  0.00    +0.000 N 
ATOM     15  H   UNL     1      -2.526  12.371  24.750  0.00  0.00    +0.000 HD
BRANCH  14  16
ATOM     16  S   UNL     1      -4.227  13.073  23.402  0.00  0.00    +0.000 S 
ATOM     17  C   UNL     1      -5.150  12.358  24.753  0.00  0.00    +0.000 C 
ATOM     18  O   UNL     1      -4.478  14.495  23.412  0.00  0.00    +0.000 OA
ATOM     19  O   UNL     1      -4.466  12.281  22.213  0.00  0.00    +0.000 OA
ENDBRANCH  14  16
ENDBRANCH  10  14
ENDBRANCH   5   7
ENDBRANCH   2   5
BRANCH   1  20
ATOM     20  C   UNL     1       1.527   8.488  18.003  0.00  0.00    +0.000 C 
BRANCH  20  25
ATOM     21  N   UNL     1       2.838   6.647  19.113  0.00  0.00    +0.000 N 
ATOM     22  N   UNL     1       3.940   5.889  18.968  0.00  0.00    +0.000 NA
ATOM     23  C   UNL     1       4.527   6.343  17.852  0.00  0.00    +0.000 A 
ATOM     24  C   UNL     1       3.759   7.385  17.274  0.00  0.00    +0.000 A 
ATOM     25  C   UNL     1       2.676   7.565  18.109  0.00  0.00    +0.000 A 
BRANCH  23  26
ATOM     26  C   UNL     1       5.830   5.740  17.352  0.00  0.00    +0.000 C 
ATOM     27  C   UNL     1       5.666   5.259  15.898  0.00  0.00    +0.000 C 
ATOM     28  C   UNL     1       6.967   6.783  17.403  0.00  0.00    +0.000 C 
ATOM     29  C   UNL     1       6.262   4.538  18.219  0.00  0.00    +0.000 C 
ENDBRANCH  23  26
BRANCH  21  30
ATOM     30  C   UNL     1       1.993   6.434  20.276  0.00  0.00    +0.000 C 
BRANCH  30  31
ATOM     31  C   UNL     1       2.144   5.025  20.841  0.00  0.00    +0.000 C 
BRANCH  31  32
ATOM     32  C   UNL     1       0.971   4.131  20.433  0.00  0.00    +0.000 C 
BRANCH  32  33
ATOM     33  C   UNL     1       1.455   2.721  20.094  0.00  0.00    +0.000 C 
BRANCH  33  35
ATOM     34  C   UNL     1       1.818   3.412  17.704  0.00  0.00    +0.000 C 
ATOM     35  C   UNL     1       1.203   2.373  18.629  0.00  0.00    +0.000 C 
ENDBRANCH  33  35
ENDBRANCH  32  33
ENDBRANCH  31  32
ENDBRANCH  30  31
ENDBRANCH  21  30
ENDBRANCH  20  25
ENDBRANCH   1  20
TORSDOF 12
ENDMDL
