MODEL 1
REMARK VINA RESULT:      -7.2      0.000      0.000
REMARK  Name = 
REMARK  8 active torsions:
REMARK  status: ('A' for Active; 'I' for Inactive)
REMARK    1  A    between atoms: C_1  and  N_2
REMARK    2  A    between atoms: N_2  and  C_3
REMARK    3  A    between atoms: N_2  and  C_4
REMARK    4  A    between atoms: C_7  and  C_8
REMARK    5  A    between atoms: C_8  and  O_10
REMARK    6  A    between atoms: O_10  and  C_11
REMARK    7  A    between atoms: C_11  and  C_12
REMARK    8  A    between atoms: C_12  and  C_14
REMARK                            x       y       z     vdW  Elec       q    Type
REMARK                         _______ _______ _______ _____ _____    ______ ____
ROOT
ATOM      1  C   UNL     1       4.439   4.206  18.773  0.00  0.00    +0.000 C 
ATOM      2  O   UNL     1       3.980   3.170  18.314  0.00  0.00    +0.000 OA
ENDROOT
BRANCH   1   6
ATOM      3  C   UNL     1       2.103   7.839  19.184  0.00  0.00    +0.000 A 
ATOM      4  C   UNL     1       2.807   7.515  18.012  0.00  0.00    +0.000 A 
ATOM      5  C   UNL     1       3.567   6.346  17.897  0.00  0.00    +0.000 A 
ATOM      6  C   UNL     1       3.640   5.445  18.959  0.00  0.00    +0.000 A 
ATOM      7  C   UNL     1       2.922   5.716  20.123  0.00  0.00    +0.000 A 
ATOM      8  C   UNL     1       2.170   6.895  20.226  0.00  0.00    +0.000 A 
BRANCH   3  10
ATOM      9  C   UNL     1       0.559   9.267  20.492  0.00  0.00    +0.000 C 
ATOM     10  N   UNL     1       1.366   9.017  19.303  0.00  0.00    +0.000 N 
ATOM     11  C   UNL     1       1.055   9.791  18.106  0.00  0.00    +0.000 C 
ENDBRANCH   3  10
ENDBRANCH   1   6
BRANCH   1  12
ATOM     12  O   UNL     1       5.700   4.367  19.243  0.00  0.00    +0.000 OA
BRANCH  12  13
ATOM     13  C   UNL     1       6.473   5.317  18.501  0.00  0.00    +0.000 C 
BRANCH  13  14
ATOM     14  C   UNL     1       7.384   4.579  17.517  0.00  0.00    +0.000 C 
ATOM     15  O   UNL     1       8.449   4.071  17.874  0.00  0.00    +0.000 OA
BRANCH  14  16
ATOM     16  C   UNL     1       6.961   4.506  16.134  0.00  0.00    +0.000 A 
ATOM     17  C   UNL     1       5.949   3.786  15.521  0.00  0.00    +0.000 A 
ATOM     18  C   UNL     1       5.986   4.086  14.134  0.00  0.00    +0.000 A 
ATOM     19  C   UNL     1       7.015   4.976  13.931  0.00  0.00    +0.000 A 
ATOM     20  N   UNL     1       7.592   5.231  15.148  0.00  0.00    +0.000 N 
ATOM     21  H   UNL     1       8.375   5.850  15.317  0.00  0.00    +0.000 HD
ENDBRANCH  14  16
ENDBRANCH  13  14
ENDBRANCH  12  13
ENDBRANCH   1  12
TORSDOF 6
ENDMDL
MODEL 2
REMARK VINA RESULT:      -7.1      1.584      2.529
REMARK  Name = 
REMARK  8 active torsions:
REMARK  status: ('A' for Active; 'I' for Inactive)
REMARK    1  A    between atoms: C_1  and  N_2
REMARK    2  A    between atoms: N_2  and  C_3
REMARK    3  A    between atoms: N_2  and  C_4
REMARK    4  A    between atoms: C_7  and  C_8
REMARK    5  A    between atoms: C_8  and  O_10
REMARK    6  A    between atoms: O_10  and  C_11
REMARK    7  A    between atoms: C_11  and  C_12
REMARK    8  A    between atoms: C_12  and  C_14
REMARK                            x       y       z     vdW  Elec       q    Type
REMARK                         _______ _______ _______ _____ _____    ______ ____
ROOT
ATOM      1  C   UNL     1       3.793   3.818  17.558  0.00  0.00    +0.000 C 
ATOM      2  O   UNL     1       3.130   2.840  17.247  0.00  0.00    +0.000 OA
ENDROOT
BRANCH   1   6
ATOM      3  C   UNL     1       2.143   7.347  19.470  0.00  0.00    +0.000 A 
ATOM      4  C   UNL     1       2.799   7.390  18.228  0.00  0.00    +0.000 A 
ATOM      5  C   UNL     1       3.338   6.246  17.628  0.00  0.00    +0.000 A 
ATOM      6  C   UNL     1       3.228   5.004  18.252  0.00  0.00    +0.000 A 
ATOM      7  C   UNL     1       2.549   4.918  19.467  0.00  0.00    +0.000 A 
ATOM      8  C   UNL     1       2.021   6.075  20.060  0.00  0.00    +0.000 A 
BRANCH   3  10
ATOM      9  C   UNL     1       1.247   8.476  21.483  0.00  0.00    +0.000 C 
ATOM     10  N   UNL     1       1.630   8.492  20.075  0.00  0.00    +0.000 N 
ATOM     11  C   UNL     1       1.080   9.557  19.243  0.00  0.00    +0.000 C 
ENDBRANCH   3  10
ENDBRANCH   1   6
BRANCH   1  12
ATOM     12  O   UNL     1       5.131   3.947  17.390  0.00  0.00    +0.000 OA
BRANCH  12  13
ATOM     13  C   UNL     1       5.537   3.996  16.018  0.00  0.00    +0.000 C 
BRANCH  13  14
ATOM     14  C   UNL     1       6.771   4.891  15.879  0.00  0.00    +0.000 C 
ATOM     15  O   UNL     1       7.338   5.050  14.796  0.00  0.00    +0.000 OA
BRANCH  14  16
ATOM     16  C   UNL     1       7.266   5.543  17.073  0.00  0.00    +0.000 A 
ATOM     17  C   UNL     1       7.436   6.883  17.384  0.00  0.00    +0.000 A 
ATOM     18  C   UNL     1       7.967   6.956  18.697  0.00  0.00    +0.000 A 
ATOM     19  C   UNL     1       8.112   5.668  19.157  0.00  0.00    +0.000 A 
ATOM     20  N   UNL     1       7.676   4.822  18.171  0.00  0.00    +0.000 N 
ATOM     21  H   UNL     1       7.659   3.810  18.219  0.00  0.00    +0.000 HD
ENDBRANCH  14  16
ENDBRANCH  13  14
ENDBRANCH  12  13
ENDBRANCH   1  12
TORSDOF 6
ENDMDL
MODEL 3
REMARK VINA RESULT:      -7.1      2.798      4.328
REMARK  Name = 
REMARK  8 active torsions:
REMARK  status: ('A' for Active; 'I' for Inactive)
REMARK    1  A    between atoms: C_1  and  N_2
REMARK    2  A    between atoms: N_2  and  C_3
REMARK    3  A    between atoms: N_2  and  C_4
REMARK    4  A    between atoms: C_7  and  C_8
REMARK    5  A    between atoms: C_8  and  O_10
REMARK    6  A    between atoms: O_10  and  C_11
REMARK    7  A    between atoms: C_11  and  C_12
REMARK    8  A    between atoms: C_12  and  C_14
REMARK                            x       y       z     vdW  Elec       q    Type
REMARK                         _______ _______ _______ _____ _____    ______ ____
ROOT
ATOM      1  C   UNL     1       3.987   6.085  17.611  0.00  0.00    +0.000 C 
ATOM      2  O   UNL     1       5.118   6.376  17.249  0.00  0.00    +0.000 OA
ENDROOT
BRANCH   1   6
ATOM      3  C   UNL     1       1.319   8.897  19.561  0.00  0.00    +0.000 A 
ATOM      4  C   UNL     1       1.776   9.068  18.243  0.00  0.00    +0.000 A 
ATOM      5  C   UNL     1       2.646   8.161  17.630  0.00  0.00    +0.000 A 
ATOM      6  C   UNL     1       3.086   7.030  18.318  0.00  0.00    +0.000 A 
ATOM      7  C   UNL     1       2.622   6.808  19.614  0.00  0.00    +0.000 A 
ATOM      8  C   UNL     1       1.755   7.731  20.219  0.00  0.00    +0.000 A 
BRANCH   3  10
ATOM      9  C   UNL     1       0.454  11.210  19.743  0.00  0.00    +0.000 C 
ATOM     10  N   UNL     1       0.471   9.816  20.176  0.00  0.00    +0.000 N 
ATOM     11  C   UNL     1      -0.075   9.518  21.495  0.00  0.00    +0.000 C 
ENDBRANCH   3  10
ENDBRANCH   1   6
BRANCH   1  12
ATOM     12  O   UNL     1       3.362   4.908  17.368  0.00  0.00    +0.000 OA
BRANCH  12  13
ATOM     13  C   UNL     1       4.199   3.762  17.561  0.00  0.00    +0.000 C 
BRANCH  13  14
ATOM     14  C   UNL     1       4.264   3.419  19.051  0.00  0.00    +0.000 C 
ATOM     15  O   UNL     1       5.339   3.308  19.645  0.00  0.00    +0.000 OA
BRANCH  14  16
ATOM     16  C   UNL     1       3.013   3.212  19.749  0.00  0.00    +0.000 A 
ATOM     17  C   UNL     1       2.740   2.903  21.071  0.00  0.00    +0.000 A 
ATOM     18  C   UNL     1       1.331   2.807  21.210  0.00  0.00    +0.000 A 
ATOM     19  C   UNL     1       0.777   3.057  19.976  0.00  0.00    +0.000 A 
ATOM     20  N   UNL     1       1.802   3.310  19.102  0.00  0.00    +0.000 N 
ATOM     21  H   UNL     1       1.705   3.528  18.118  0.00  0.00    +0.000 HD
ENDBRANCH  14  16
ENDBRANCH  13  14
ENDBRANCH  12  13
ENDBRANCH   1  12
TORSDOF 6
ENDMDL
MODEL 4
REMARK VINA RESULT:      -7.1      2.724      4.455
REMARK  Name = 
REMARK  8 active torsions:
REMARK  status: ('A' for Active; 'I' for Inactive)
REMARK    1  A    between atoms: C_1  and  N_2
REMARK    2  A    between atoms: N_2  and  C_3
REMARK    3  A    between atoms: N_2  and  C_4
REMARK    4  A    between atoms: C_7  and  C_8
REMARK    5  A    between atoms: C_8  and  O_10
REMARK    6  A    between atoms: O_10  and  C_11
REMARK    7  A    between atoms: C_11  and  C_12
REMARK    8  A    between atoms: C_12  and  C_14
REMARK                            x       y       z     vdW  Elec       q    Type
REMARK                         _______ _______ _______ _____ _____    ______ ____
ROOT
ATOM      1  C   UNL     1       3.836   6.523  17.608  0.00  0.00    +0.000 C 
ATOM      2  O   UNL     1       4.917   6.912  17.189  0.00  0.00    +0.000 OA
ENDROOT
BRANCH   1   6
ATOM      3  C   UNL     1       1.055   9.025  19.808  0.00  0.00    +0.000 A 
ATOM      4  C   UNL     1       1.609   7.849  20.342  0.00  0.00    +0.000 A 
ATOM      5  C   UNL     1       2.495   7.044  19.618  0.00  0.00    +0.000 A 
ATOM      6  C   UNL     1       2.872   7.398  18.322  0.00  0.00    +0.000 A 
ATOM      7  C   UNL     1       2.372   8.579  17.775  0.00  0.00    +0.000 A 
ATOM      8  C   UNL     1       1.478   9.372  18.511  0.00  0.00    +0.000 A 
BRANCH   3  10
ATOM      9  C   UNL     1      -0.448  10.989  19.912  0.00  0.00    +0.000 C 
ATOM     10  N   UNL     1       0.155   9.810  20.524  0.00  0.00    +0.000 N 
ATOM     11  C   UNL     1       0.130   9.725  21.980  0.00  0.00    +0.000 C 
ENDBRANCH   3  10
ENDBRANCH   1   6
BRANCH   1  12
ATOM     12  O   UNL     1       3.325   5.281  17.430  0.00  0.00    +0.000 OA
BRANCH  12  13
ATOM     13  C   UNL     1       4.299   4.237  17.533  0.00  0.00    +0.000 C 
BRANCH  13  14
ATOM     14  C   UNL     1       4.289   3.664  18.952  0.00  0.00    +0.000 C 
ATOM     15  O   UNL     1       5.334   3.400  19.552  0.00  0.00    +0.000 OA
BRANCH  14  16
ATOM     16  C   UNL     1       3.003   3.426  19.573  0.00  0.00    +0.000 A 
ATOM     17  C   UNL     1       2.592   3.508  20.893  0.00  0.00    +0.000 A 
ATOM     18  C   UNL     1       1.218   3.158  20.939  0.00  0.00    +0.000 A 
ATOM     19  C   UNL     1       0.822   2.869  19.654  0.00  0.00    +0.000 A 
ATOM     20  N   UNL     1       1.906   3.043  18.834  0.00  0.00    +0.000 N 
ATOM     21  H   UNL     1       1.923   2.906  17.831  0.00  0.00    +0.000 HD
ENDBRANCH  14  16
ENDBRANCH  13  14
ENDBRANCH  12  13
ENDBRANCH   1  12
TORSDOF 6
ENDMDL
MODEL 5
REMARK VINA RESULT:      -7.0      3.081      4.250
REMARK  Name = 
REMARK  8 active torsions:
REMARK  status: ('A' for Active; 'I' for Inactive)
REMARK    1  A    between atoms: C_1  and  N_2
REMARK    2  A    between atoms: N_2  and  C_3
REMARK    3  A    between atoms: N_2  and  C_4
REMARK    4  A    between atoms: C_7  and  C_8
REMARK    5  A    between atoms: C_8  and  O_10
REMARK    6  A    between atoms: O_10  and  C_11
REMARK    7  A    between atoms: C_11  and  C_12
REMARK    8  A    between atoms: C_12  and  C_14
REMARK                            x       y       z     vdW  Elec       q    Type
REMARK                         _______ _______ _______ _____ _____    ______ ____
ROOT
ATOM      1  C   UNL     1       3.882   5.924  18.187  0.00  0.00    +0.000 C 
ATOM      2  O   UNL     1       4.098   5.573  17.036  0.00  0.00    +0.000 OA
ENDROOT
BRANCH   1   6
ATOM      3  C   UNL     1       1.223   9.148  19.357  0.00  0.00    +0.000 A 
ATOM      4  C   UNL     1       1.536   8.072  20.206  0.00  0.00    +0.000 A 
ATOM      5  C   UNL     1       2.385   7.032  19.812  0.00  0.00    +0.000 A 
ATOM      6  C   UNL     1       2.966   7.039  18.544  0.00  0.00    +0.000 A 
ATOM      7  C   UNL     1       2.708   8.110  17.690  0.00  0.00    +0.000 A 
ATOM      8  C   UNL     1       1.849   9.142  18.097  0.00  0.00    +0.000 A 
BRANCH   3  10
ATOM      9  C   UNL     1       0.289  11.410  18.982  0.00  0.00    +0.000 C 
ATOM     10  N   UNL     1       0.358  10.169  19.746  0.00  0.00    +0.000 N 
ATOM     11  C   UNL     1      -0.156  10.192  21.111  0.00  0.00    +0.000 C 
ENDBRANCH   3  10
ENDBRANCH   1   6
BRANCH   1  12
ATOM     12  O   UNL     1       4.372   5.324  19.297  0.00  0.00    +0.000 OA
BRANCH  12  13
ATOM     13  C   UNL     1       5.114   4.130  19.026  0.00  0.00    +0.000 C 
BRANCH  13  14
ATOM     14  C   UNL     1       4.398   2.929  19.649  0.00  0.00    +0.000 C 
ATOM     15  O   UNL     1       5.014   2.049  20.256  0.00  0.00    +0.000 OA
BRANCH  14  16
ATOM     16  C   UNL     1       2.961   2.846  19.492  0.00  0.00    +0.000 A 
ATOM     17  C   UNL     1       2.178   2.242  18.522  0.00  0.00    +0.000 A 
ATOM     18  C   UNL     1       0.819   2.480  18.856  0.00  0.00    +0.000 A 
ATOM     19  C   UNL     1       0.802   3.221  20.015  0.00  0.00    +0.000 A 
ATOM     20  N   UNL     1       2.102   3.429  20.396  0.00  0.00    +0.000 N 
ATOM     21  H   UNL     1       2.409   3.942  21.213  0.00  0.00    +0.000 HD
ENDBRANCH  14  16
ENDBRANCH  13  14
ENDBRANCH  12  13
ENDBRANCH   1  12
TORSDOF 6
ENDMDL
MODEL 6
REMARK VINA RESULT:      -7.0      2.815      4.334
REMARK  Name = 
REMARK  8 active torsions:
REMARK  status: ('A' for Active; 'I' for Inactive)
REMARK    1  A    between atoms: C_1  and  N_2
REMARK    2  A    between atoms: N_2  and  C_3
REMARK    3  A    between atoms: N_2  and  C_4
REMARK    4  A    between atoms: C_7  and  C_8
REMARK    5  A    between atoms: C_8  and  O_10
REMARK    6  A    between atoms: O_10  and  C_11
REMARK    7  A    between atoms: C_11  and  C_12
REMARK    8  A    between atoms: C_12  and  C_14
REMARK                            x       y       z     vdW  Elec       q    Type
REMARK                         _______ _______ _______ _____ _____    ______ ____
ROOT
ATOM      1  C   UNL     1       4.217   5.799  17.570  0.00  0.00    +0.000 C 
ATOM      2  O   UNL     1       5.072   6.057  16.735  0.00  0.00    +0.000 OA
ENDROOT
BRANCH   1   6
ATOM      3  C   UNL     1       1.541   8.719  19.345  0.00  0.00    +0.000 A 
ATOM      4  C   UNL     1       1.906   7.526  19.993  0.00  0.00    +0.000 A 
ATOM      5  C   UNL     1       2.760   6.587  19.405  0.00  0.00    +0.000 A 
ATOM      6  C   UNL     1       3.294   6.817  18.137  0.00  0.00    +0.000 A 
ATOM      7  C   UNL     1       2.985   8.007  17.481  0.00  0.00    +0.000 A 
ATOM      8  C   UNL     1       2.121   8.936  18.081  0.00  0.00    +0.000 A 
BRANCH   3  10
ATOM      9  C   UNL     1       0.345   9.555  21.345  0.00  0.00    +0.000 C 
ATOM     10  N   UNL     1       0.672   9.640  19.926  0.00  0.00    +0.000 N 
ATOM     11  C   UNL     1      -0.231  10.408  19.076  0.00  0.00    +0.000 C 
ENDBRANCH   3  10
ENDBRANCH   1   6
BRANCH   1  12
ATOM     12  O   UNL     1       3.931   4.565  18.049  0.00  0.00    +0.000 OA
BRANCH  12  13
ATOM     13  C   UNL     1       5.019   3.953  18.749  0.00  0.00    +0.000 C 
BRANCH  13  14
ATOM     14  C   UNL     1       4.477   2.909  19.728  0.00  0.00    +0.000 C 
ATOM     15  O   UNL     1       5.209   2.059  20.242  0.00  0.00    +0.000 OA
BRANCH  14  16
ATOM     16  C   UNL     1       3.061   2.939  20.028  0.00  0.00    +0.000 A 
ATOM     17  C   UNL     1       2.378   3.176  21.210  0.00  0.00    +0.000 A 
ATOM     18  C   UNL     1       0.990   3.075  20.932  0.00  0.00    +0.000 A 
ATOM     19  C   UNL     1       0.856   2.778  19.596  0.00  0.00    +0.000 A 
ATOM     20  N   UNL     1       2.113   2.708  19.056  0.00  0.00    +0.000 N 
ATOM     21  H   UNL     1       2.336   2.506  18.089  0.00  0.00    +0.000 HD
ENDBRANCH  14  16
ENDBRANCH  13  14
ENDBRANCH  12  13
ENDBRANCH   1  12
TORSDOF 6
ENDMDL
MODEL 7
REMARK VINA RESULT:      -7.0      2.962      4.628
REMARK  Name = 
REMARK  8 active torsions:
REMARK  status: ('A' for Active; 'I' for Inactive)
REMARK    1  A    between atoms: C_1  and  N_2
REMARK    2  A    between atoms: N_2  and  C_3
REMARK    3  A    between atoms: N_2  and  C_4
REMARK    4  A    between atoms: C_7  and  C_8
REMARK    5  A    between atoms: C_8  and  O_10
REMARK    6  A    between atoms: O_10  and  C_11
REMARK    7  A    between atoms: C_11  and  C_12
REMARK    8  A    between atoms: C_12  and  C_14
REMARK                            x       y       z     vdW  Elec       q    Type
REMARK                         _______ _______ _______ _____ _____    ______ ____
ROOT
ATOM      1  C   UNL     1       3.937   6.165  17.584  0.00  0.00    +0.000 C 
ATOM      2  O   UNL     1       4.592   6.495  16.606  0.00  0.00    +0.000 OA
ENDROOT
BRANCH   1   6
ATOM      3  C   UNL     1       1.263   8.789  19.774  0.00  0.00    +0.000 A 
ATOM      4  C   UNL     1       1.792   7.608  20.324  0.00  0.00    +0.000 A 
ATOM      5  C   UNL     1       2.643   6.764  19.603  0.00  0.00    +0.000 A 
ATOM      6  C   UNL     1       3.009   7.082  18.295  0.00  0.00    +0.000 A 
ATOM      7  C   UNL     1       2.534   8.265  17.731  0.00  0.00    +0.000 A 
ATOM      8  C   UNL     1       1.675   9.098  18.464  0.00  0.00    +0.000 A 
BRANCH   3  10
ATOM      9  C   UNL     1      -0.198   9.155  21.739  0.00  0.00    +0.000 C 
ATOM     10  N   UNL     1       0.396   9.614  20.488  0.00  0.00    +0.000 N 
ATOM     11  C   UNL     1      -0.250  10.733  19.811  0.00  0.00    +0.000 C 
ENDBRANCH   3  10
ENDBRANCH   1   6
BRANCH   1  12
ATOM     12  O   UNL     1       3.897   4.922  18.121  0.00  0.00    +0.000 OA
BRANCH  12  13
ATOM     13  C   UNL     1       3.637   3.890  17.163  0.00  0.00    +0.000 C 
BRANCH  13  14
ATOM     14  C   UNL     1       2.663   2.871  17.758  0.00  0.00    +0.000 C 
ATOM     15  O   UNL     1       2.200   1.946  17.086  0.00  0.00    +0.000 OA
BRANCH  14  16
ATOM     16  C   UNL     1       2.285   3.033  19.146  0.00  0.00    +0.000 A 
ATOM     17  C   UNL     1       1.084   3.396  19.734  0.00  0.00    +0.000 A 
ATOM     18  C   UNL     1       1.278   3.406  21.139  0.00  0.00    +0.000 A 
ATOM     19  C   UNL     1       2.585   3.054  21.379  0.00  0.00    +0.000 A 
ATOM     20  N   UNL     1       3.183   2.821  20.168  0.00  0.00    +0.000 N 
ATOM     21  H   UNL     1       4.146   2.543  20.022  0.00  0.00    +0.000 HD
ENDBRANCH  14  16
ENDBRANCH  13  14
ENDBRANCH  12  13
ENDBRANCH   1  12
TORSDOF 6
ENDMDL
MODEL 8
REMARK VINA RESULT:      -7.0      1.157      1.734
REMARK  Name = 
REMARK  8 active torsions:
REMARK  status: ('A' for Active; 'I' for Inactive)
REMARK    1  A    between atoms: C_1  and  N_2
REMARK    2  A    between atoms: N_2  and  C_3
REMARK    3  A    between atoms: N_2  and  C_4
REMARK    4  A    between atoms: C_7  and  C_8
REMARK    5  A    between atoms: C_8  and  O_10
REMARK    6  A    between atoms: O_10  and  C_11
REMARK    7  A    between atoms: C_11  and  C_12
REMARK    8  A    between atoms: C_12  and  C_14
REMARK                            x       y       z     vdW  Elec       q    Type
REMARK                         _______ _______ _______ _____ _____    ______ ____
ROOT
ATOM      1  C   UNL     1       3.792   5.768  17.521  0.00  0.00    +0.000 C 
ATOM      2  O   UNL     1       3.440   4.603  17.404  0.00  0.00    +0.000 OA
ENDROOT
BRANCH   1   6
ATOM      3  C   UNL     1       1.465   8.730  19.675  0.00  0.00    +0.000 A 
ATOM      4  C   UNL     1       1.851   7.503  20.243  0.00  0.00    +0.000 A 
ATOM      5  C   UNL     1       2.590   6.551  19.533  0.00  0.00    +0.000 A 
ATOM      6  C   UNL     1       2.985   6.801  18.219  0.00  0.00    +0.000 A 
ATOM      7  C   UNL     1       2.653   8.024  17.637  0.00  0.00    +0.000 A 
ATOM      8  C   UNL     1       1.905   8.966  18.358  0.00  0.00    +0.000 A 
BRANCH   3  10
ATOM      9  C   UNL     1      -0.323   9.228  21.313  0.00  0.00    +0.000 C 
ATOM     10  N   UNL     1       0.708   9.665  20.378  0.00  0.00    +0.000 N 
ATOM     11  C   UNL     1       0.633  11.038  19.891  0.00  0.00    +0.000 C 
ENDBRANCH   3  10
ENDBRANCH   1   6
BRANCH   1  12
ATOM     12  O   UNL     1       4.978   6.276  17.107  0.00  0.00    +0.000 OA
BRANCH  12  13
ATOM     13  C   UNL     1       6.065   5.995  17.995  0.00  0.00    +0.000 C 
BRANCH  13  14
ATOM     14  C   UNL     1       6.970   4.926  17.377  0.00  0.00    +0.000 C 
ATOM     15  O   UNL     1       7.811   4.322  18.046  0.00  0.00    +0.000 OA
BRANCH  14  16
ATOM     16  C   UNL     1       6.816   4.650  15.964  0.00  0.00    +0.000 A 
ATOM     17  C   UNL     1       6.120   3.658  15.293  0.00  0.00    +0.000 A 
ATOM     18  C   UNL     1       6.320   3.857  13.902  0.00  0.00    +0.000 A 
ATOM     19  C   UNL     1       7.131   4.958  13.754  0.00  0.00    +0.000 A 
ATOM     20  N   UNL     1       7.417   5.436  15.006  0.00  0.00    +0.000 N 
ATOM     21  H   UNL     1       7.993   6.241  15.219  0.00  0.00    +0.000 HD
ENDBRANCH  14  16
ENDBRANCH  13  14
ENDBRANCH  12  13
ENDBRANCH   1  12
TORSDOF 6
ENDMDL
MODEL 9
REMARK VINA RESULT:      -7.0      3.137      4.979
REMARK  Name = 
REMARK  8 active torsions:
REMARK  status: ('A' for Active; 'I' for Inactive)
REMARK    1  A    between atoms: C_1  and  N_2
REMARK    2  A    between atoms: N_2  and  C_3
REMARK    3  A    between atoms: N_2  and  C_4
REMARK    4  A    between atoms: C_7  and  C_8
REMARK    5  A    between atoms: C_8  and  O_10
REMARK    6  A    between atoms: O_10  and  C_11
REMARK    7  A    between atoms: C_11  and  C_12
REMARK    8  A    between atoms: C_12  and  C_14
REMARK                            x       y       z     vdW  Elec       q    Type
REMARK                         _______ _______ _______ _____ _____    ______ ____
ROOT
ATOM      1  C   UNL     1       3.722   6.801  17.672  0.00  0.00    +0.000 C 
ATOM      2  O   UNL     1       4.251   7.103  16.612  0.00  0.00    +0.000 OA
ENDROOT
BRANCH   1   6
ATOM      3  C   UNL     1       0.879   9.274  19.824  0.00  0.00    +0.000 A 
ATOM      4  C   UNL     1       1.468   8.126  20.383  0.00  0.00    +0.000 A 
ATOM      5  C   UNL     1       2.374   7.330  19.674  0.00  0.00    +0.000 A 
ATOM      6  C   UNL     1       2.736   7.665  18.370  0.00  0.00    +0.000 A 
ATOM      7  C   UNL     1       2.201   8.818  17.797  0.00  0.00    +0.000 A 
ATOM      8  C   UNL     1       1.288   9.603  18.518  0.00  0.00    +0.000 A 
BRANCH   3  10
ATOM      9  C   UNL     1      -0.838  11.057  19.835  0.00  0.00    +0.000 C 
ATOM     10  N   UNL     1      -0.041  10.050  20.526  0.00  0.00    +0.000 N 
ATOM     11  C   UNL     1       0.079  10.169  21.975  0.00  0.00    +0.000 C 
ENDBRANCH   3  10
ENDBRANCH   1   6
BRANCH   1  12
ATOM     12  O   UNL     1       3.890   5.628  18.329  0.00  0.00    +0.000 OA
BRANCH  12  13
ATOM     13  C   UNL     1       3.462   4.484  17.582  0.00  0.00    +0.000 C 
BRANCH  13  14
ATOM     14  C   UNL     1       2.061   4.069  18.038  0.00  0.00    +0.000 C 
ATOM     15  O   UNL     1       1.087   4.138  17.285  0.00  0.00    +0.000 OA
BRANCH  14  16
ATOM     16  C   UNL     1       1.909   3.599  19.398  0.00  0.00    +0.000 A 
ATOM     17  C   UNL     1       0.827   3.040  20.060  0.00  0.00    +0.000 A 
ATOM     18  C   UNL     1       1.231   2.770  21.394  0.00  0.00    +0.000 A 
ATOM     19  C   UNL     1       2.542   3.170  21.518  0.00  0.00    +0.000 A 
ATOM     20  N   UNL     1       2.944   3.660  20.303  0.00  0.00    +0.000 N 
ATOM     21  H   UNL     1       3.862   4.029  20.084  0.00  0.00    +0.000 HD
ENDBRANCH  14  16
ENDBRANCH  13  14
ENDBRANCH  12  13
ENDBRANCH   1  12
TORSDOF 6
ENDMDL
