MODEL 1
REMARK VINA RESULT:      -6.1      0.000      0.000
REMARK  Name = 
REMARK  5 active torsions:
REMARK  status: ('A' for Active; 'I' for Inactive)
REMARK    1  A    between atoms: C_1  and  O_2
REMARK    2  A    between atoms: O_2  and  C_3
REMARK    3  A    between atoms: C_9  and  C_10
REMARK    4  A    between atoms: C_18  and  C_19
REMARK    5  A    between atoms: C_18  and  C_20
REMARK                            x       y       z     vdW  Elec       q    Type
REMARK                         _______ _______ _______ _____ _____    ______ ____
ROOT
ATOM      1  C   UNL     1       1.475  14.512  18.606  0.00  0.00    +0.000 A 
ATOM      2  C   UNL     1       0.208  15.077  18.725  0.00  0.00    +0.000 A 
ATOM      3  C   UNL     1      -0.842  14.289  19.168  0.00  0.00    +0.000 A 
ATOM      4  C   UNL     1      -0.601  12.945  19.451  0.00  0.00    +0.000 A 
ATOM      5  C   UNL     1       0.549  12.293  18.970  0.00  0.00    +0.000 A 
ATOM      6  C   UNL     1       1.628  13.116  18.616  0.00  0.00    +0.000 A 
ATOM      7  C   UNL     1       0.608  10.761  19.154  0.00  0.00    +0.000 C 
ATOM      8  C   UNL     1      -0.639  10.068  18.508  0.00  0.00    +0.000 C 
ATOM      9  C   UNL     1       1.856  10.100  18.525  0.00  0.00    +0.000 C 
ATOM     10  C   UNL     1       1.973   8.655  18.910  0.00  0.00    +0.000 A 
ATOM     11  N   UNL     1       2.508   7.823  17.973  0.00  0.00    +0.000 NA
ATOM     12  C   UNL     1       2.580   6.517  18.304  0.00  0.00    +0.000 A 
ATOM     13  C   UNL     1       2.166   6.050  19.533  0.00  0.00    +0.000 A 
ATOM     14  N   UNL     1       1.646   6.868  20.474  0.00  0.00    +0.000 NA
ATOM     15  C   UNL     1       1.537   8.189  20.153  0.00  0.00    +0.000 A 
ATOM     16  C   UNL     1       0.879   9.105  21.204  0.00  0.00    +0.000 C 
ATOM     17  C   UNL     1       1.855   9.149  22.406  0.00  0.00    +0.000 C 
ATOM     18  C   UNL     1      -0.426   8.436  21.682  0.00  0.00    +0.000 C 
ATOM     19  C   UNL     1       0.656  10.585  20.698  0.00  0.00    +0.000 C 
ATOM     20  C   UNL     1      -0.469  11.422  21.419  0.00  0.00    +0.000 C 
ATOM     21  C   UNL     1      -1.416  12.243  20.506  0.00  0.00    +0.000 C 
ENDROOT
BRANCH   1  23
ATOM     22  C   UNL     1       3.809  14.481  18.653  0.00  0.00    +0.000 C 
ATOM     23  O   UNL     1       2.615  15.274  18.545  0.00  0.00    +0.000 OA
ENDBRANCH   1  23
TORSDOF 1
ENDMDL
MODEL 2
REMARK VINA RESULT:      -6.0      7.588      9.405
REMARK  Name = 
REMARK  5 active torsions:
REMARK  status: ('A' for Active; 'I' for Inactive)
REMARK    1  A    between atoms: C_1  and  O_2
REMARK    2  A    between atoms: O_2  and  C_3
REMARK    3  A    between atoms: C_9  and  C_10
REMARK    4  A    between atoms: C_18  and  C_19
REMARK    5  A    between atoms: C_18  and  C_20
REMARK                            x       y       z     vdW  Elec       q    Type
REMARK                         _______ _______ _______ _____ _____    ______ ____
ROOT
ATOM      1  C   UNL     1       6.340  12.303  24.135  0.00  0.00    +0.000 A 
ATOM      2  C   UNL     1       6.238  13.437  24.937  0.00  0.00    +0.000 A 
ATOM      3  C   UNL     1       6.785  14.629  24.491  0.00  0.00    +0.000 A 
ATOM      4  C   UNL     1       7.448  14.647  23.265  0.00  0.00    +0.000 A 
ATOM      5  C   UNL     1       7.885  13.457  22.654  0.00  0.00    +0.000 A 
ATOM      6  C   UNL     1       7.246  12.278  23.064  0.00  0.00    +0.000 A 
ATOM      7  C   UNL     1       8.797  13.605  21.417  0.00  0.00    +0.000 C 
ATOM      8  C   UNL     1      10.063  14.463  21.749  0.00  0.00    +0.000 C 
ATOM      9  C   UNL     1       9.310  12.260  20.851  0.00  0.00    +0.000 C 
ATOM     10  C   UNL     1      10.011  12.443  19.537  0.00  0.00    +0.000 A 
ATOM     11  N   UNL     1      11.054  11.601  19.288  0.00  0.00    +0.000 NA
ATOM     12  C   UNL     1      11.708  11.787  18.123  0.00  0.00    +0.000 A 
ATOM     13  C   UNL     1      11.326  12.753  17.217  0.00  0.00    +0.000 A 
ATOM     14  N   UNL     1      10.287  13.584  17.447  0.00  0.00    +0.000 NA
ATOM     15  C   UNL     1       9.626  13.433  18.631  0.00  0.00    +0.000 A 
ATOM     16  C   UNL     1       8.486  14.430  18.919  0.00  0.00    +0.000 C 
ATOM     17  C   UNL     1       7.371  14.115  17.889  0.00  0.00    +0.000 C 
ATOM     18  C   UNL     1       9.002  15.855  18.631  0.00  0.00    +0.000 C 
ATOM     19  C   UNL     1       7.873  14.284  20.367  0.00  0.00    +0.000 C 
ATOM     20  C   UNL     1       7.141  15.548  20.961  0.00  0.00    +0.000 C 
ATOM     21  C   UNL     1       7.461  15.905  22.436  0.00  0.00    +0.000 C 
ENDROOT
BRANCH   1  23
ATOM     22  C   UNL     1       5.307  10.904  25.692  0.00  0.00    +0.000 C 
ATOM     23  O   UNL     1       5.529  11.209  24.305  0.00  0.00    +0.000 OA
ENDBRANCH   1  23
TORSDOF 1
ENDMDL
MODEL 3
REMARK VINA RESULT:      -5.9      3.476      5.558
REMARK  Name = 
REMARK  5 active torsions:
REMARK  status: ('A' for Active; 'I' for Inactive)
REMARK    1  A    between atoms: C_1  and  O_2
REMARK    2  A    between atoms: O_2  and  C_3
REMARK    3  A    between atoms: C_9  and  C_10
REMARK    4  A    between atoms: C_18  and  C_19
REMARK    5  A    between atoms: C_18  and  C_20
REMARK                            x       y       z     vdW  Elec       q    Type
REMARK                         _______ _______ _______ _____ _____    ______ ____
ROOT
ATOM      1  C   UNL     1      -3.891  12.783  24.268  0.00  0.00    +0.000 A 
ATOM      2  C   UNL     1      -3.750  14.139  24.549  0.00  0.00    +0.000 A 
ATOM      3  C   UNL     1      -2.907  14.907  23.762  0.00  0.00    +0.000 A 
ATOM      4  C   UNL     1      -2.202  14.288  22.730  0.00  0.00    +0.000 A 
ATOM      5  C   UNL     1      -2.042  12.890  22.692  0.00  0.00    +0.000 A 
ATOM      6  C   UNL     1      -2.969  12.138  23.429  0.00  0.00    +0.000 A 
ATOM      7  C   UNL     1      -1.064  12.331  21.636  0.00  0.00    +0.000 C 
ATOM      8  C   UNL     1       0.356  12.971  21.788  0.00  0.00    +0.000 C 
ATOM      9  C   UNL     1      -0.870  10.799  21.709  0.00  0.00    +0.000 C 
ATOM     10  C   UNL     1      -0.084  10.283  20.539  0.00  0.00    +0.000 A 
ATOM     11  N   UNL     1       0.731   9.219  20.784  0.00  0.00    +0.000 NA
ATOM     12  C   UNL     1       1.465   8.776  19.742  0.00  0.00    +0.000 A 
ATOM     13  C   UNL     1       1.375   9.345  18.490  0.00  0.00    +0.000 A 
ATOM     14  N   UNL     1       0.561  10.392  18.233  0.00  0.00    +0.000 NA
ATOM     15  C   UNL     1      -0.172  10.875  19.277  0.00  0.00    +0.000 A 
ATOM     16  C   UNL     1      -1.046  12.114  18.996  0.00  0.00    +0.000 C 
ATOM     17  C   UNL     1      -2.154  11.643  18.020  0.00  0.00    +0.000 C 
ATOM     18  C   UNL     1      -0.184  13.159  18.259  0.00  0.00    +0.000 C 
ATOM     19  C   UNL     1      -1.744  12.699  20.286  0.00  0.00    +0.000 C 
ATOM     20  C   UNL     1      -2.171  14.216  20.239  0.00  0.00    +0.000 C 
ATOM     21  C   UNL     1      -1.844  15.068  21.493  0.00  0.00    +0.000 C 
ENDROOT
BRANCH   1  23
ATOM     22  C   UNL     1      -6.214  12.557  24.272  0.00  0.00    +0.000 C 
ATOM     23  O   UNL     1      -4.952  12.044  24.729  0.00  0.00    +0.000 OA
ENDBRANCH   1  23
TORSDOF 1
ENDMDL
MODEL 4
REMARK VINA RESULT:      -5.8      3.918      6.021
REMARK  Name = 
REMARK  5 active torsions:
REMARK  status: ('A' for Active; 'I' for Inactive)
REMARK    1  A    between atoms: C_1  and  O_2
REMARK    2  A    between atoms: O_2  and  C_3
REMARK    3  A    between atoms: C_9  and  C_10
REMARK    4  A    between atoms: C_18  and  C_19
REMARK    5  A    between atoms: C_18  and  C_20
REMARK                            x       y       z     vdW  Elec       q    Type
REMARK                         _______ _______ _______ _____ _____    ______ ____
ROOT
ATOM      1  C   UNL     1      -5.472  11.852  19.405  0.00  0.00    +0.000 A 
ATOM      2  C   UNL     1      -5.702  11.304  18.146  0.00  0.00    +0.000 A 
ATOM      3  C   UNL     1      -4.620  10.961  17.353  0.00  0.00    +0.000 A 
ATOM      4  C   UNL     1      -3.332  11.204  17.830  0.00  0.00    +0.000 A 
ATOM      5  C   UNL     1      -3.106  12.092  18.898  0.00  0.00    +0.000 A 
ATOM      6  C   UNL     1      -4.201  12.348  19.736  0.00  0.00    +0.000 A 
ATOM      7  C   UNL     1      -1.636  12.456  19.200  0.00  0.00    +0.000 C 
ATOM      8  C   UNL     1      -0.929  13.044  17.933  0.00  0.00    +0.000 C 
ATOM      9  C   UNL     1      -1.467  13.502  20.326  0.00  0.00    +0.000 C 
ATOM     10  C   UNL     1      -0.028  13.663  20.723  0.00  0.00    +0.000 A 
ATOM     11  N   UNL     1       0.354  14.912  21.109  0.00  0.00    +0.000 NA
ATOM     12  C   UNL     1       1.655  15.067  21.432  0.00  0.00    +0.000 A 
ATOM     13  C   UNL     1       2.545  14.014  21.404  0.00  0.00    +0.000 A 
ATOM     14  N   UNL     1       2.174  12.769  21.035  0.00  0.00    +0.000 NA
ATOM     15  C   UNL     1       0.869  12.593  20.678  0.00  0.00    +0.000 A 
ATOM     16  C   UNL     1       0.468  11.187  20.190  0.00  0.00    +0.000 C 
ATOM     17  C   UNL     1       0.589  10.255  21.423  0.00  0.00    +0.000 C 
ATOM     18  C   UNL     1       1.503  10.721  19.146  0.00  0.00    +0.000 C 
ATOM     19  C   UNL     1      -1.016  11.105  19.657  0.00  0.00    +0.000 C 
ATOM     20  C   UNL     1      -1.347   9.938  18.649  0.00  0.00    +0.000 C 
ATOM     21  C   UNL     1      -2.193  10.315  17.405  0.00  0.00    +0.000 C 
ENDROOT
BRANCH   1  23
ATOM     22  C   UNL     1      -7.315  10.738  20.305  0.00  0.00    +0.000 C 
ATOM     23  O   UNL     1      -6.433  11.870  20.385  0.00  0.00    +0.000 OA
ENDBRANCH   1  23
TORSDOF 1
ENDMDL
MODEL 5
REMARK VINA RESULT:      -5.8      3.636      5.648
REMARK  Name = 
REMARK  5 active torsions:
REMARK  status: ('A' for Active; 'I' for Inactive)
REMARK    1  A    between atoms: C_1  and  O_2
REMARK    2  A    between atoms: O_2  and  C_3
REMARK    3  A    between atoms: C_9  and  C_10
REMARK    4  A    between atoms: C_18  and  C_19
REMARK    5  A    between atoms: C_18  and  C_20
REMARK                            x       y       z     vdW  Elec       q    Type
REMARK                         _______ _______ _______ _____ _____    ______ ____
ROOT
ATOM      1  C   UNL     1      -4.704  13.081  24.007  0.00  0.00    +0.000 A 
ATOM      2  C   UNL     1      -4.673  14.470  23.920  0.00  0.00    +0.000 A 
ATOM      3  C   UNL     1      -3.754  15.071  23.076  0.00  0.00    +0.000 A 
ATOM      4  C   UNL     1      -2.869  14.264  22.362  0.00  0.00    +0.000 A 
ATOM      5  C   UNL     1      -2.640  12.927  22.733  0.00  0.00    +0.000 A 
ATOM      6  C   UNL     1      -3.634  12.319  23.514  0.00  0.00    +0.000 A 
ATOM      7  C   UNL     1      -1.484  12.194  22.016  0.00  0.00    +0.000 C 
ATOM      8  C   UNL     1      -0.136  12.973  22.180  0.00  0.00    +0.000 C 
ATOM      9  C   UNL     1      -1.232  10.760  22.535  0.00  0.00    +0.000 C 
ATOM     10  C   UNL     1      -0.250  10.022  21.673  0.00  0.00    +0.000 A 
ATOM     11  N   UNL     1       0.566   9.137  22.311  0.00  0.00    +0.000 NA
ATOM     12  C   UNL     1       1.473   8.499  21.544  0.00  0.00    +0.000 A 
ATOM     13  C   UNL     1       1.553   8.705  20.183  0.00  0.00    +0.000 A 
ATOM     14  N   UNL     1       0.741   9.570  19.538  0.00  0.00    +0.000 NA
ATOM     15  C   UNL     1      -0.167  10.248  20.297  0.00  0.00    +0.000 A 
ATOM     16  C   UNL     1      -1.043  11.286  19.568  0.00  0.00    +0.000 C 
ATOM     17  C   UNL     1      -1.963  10.477  18.617  0.00  0.00    +0.000 C 
ATOM     18  C   UNL     1      -0.127  12.169  18.697  0.00  0.00    +0.000 C 
ATOM     19  C   UNL     1      -1.961  12.129  20.538  0.00  0.00    +0.000 C 
ATOM     20  C   UNL     1      -2.445  13.536  20.016  0.00  0.00    +0.000 C 
ATOM     21  C   UNL     1      -2.358  14.716  21.018  0.00  0.00    +0.000 C 
ENDROOT
BRANCH   1  23
ATOM     22  C   UNL     1      -7.035  12.963  24.060  0.00  0.00    +0.000 C 
ATOM     23  O   UNL     1      -5.789  12.401  24.504  0.00  0.00    +0.000 OA
ENDBRANCH   1  23
TORSDOF 1
ENDMDL
MODEL 6
REMARK VINA RESULT:      -5.8      8.545     10.529
REMARK  Name = 
REMARK  5 active torsions:
REMARK  status: ('A' for Active; 'I' for Inactive)
REMARK    1  A    between atoms: C_1  and  O_2
REMARK    2  A    between atoms: O_2  and  C_3
REMARK    3  A    between atoms: C_9  and  C_10
REMARK    4  A    between atoms: C_18  and  C_19
REMARK    5  A    between atoms: C_18  and  C_20
REMARK                            x       y       z     vdW  Elec       q    Type
REMARK                         _______ _______ _______ _____ _____    ______ ____
ROOT
ATOM      1  C   UNL     1       9.414  15.627  24.766  0.00  0.00    +0.000 A 
ATOM      2  C   UNL     1       8.260  15.023  25.259  0.00  0.00    +0.000 A 
ATOM      3  C   UNL     1       7.601  14.090  24.476  0.00  0.00    +0.000 A 
ATOM      4  C   UNL     1       8.099  13.808  23.204  0.00  0.00    +0.000 A 
ATOM      5  C   UNL     1       9.005  14.675  22.567  0.00  0.00    +0.000 A 
ATOM      6  C   UNL     1       9.723  15.545  23.400  0.00  0.00    +0.000 A 
ATOM      7  C   UNL     1       9.319  14.384  21.083  0.00  0.00    +0.000 C 
ATOM      8  C   UNL     1       8.010  14.348  20.226  0.00  0.00    +0.000 C 
ATOM      9  C   UNL     1      10.252  15.425  20.423  0.00  0.00    +0.000 C 
ATOM     10  C   UNL     1      10.693  14.988  19.057  0.00  0.00    +0.000 A 
ATOM     11  N   UNL     1      10.875  15.977  18.137  0.00  0.00    +0.000 NA
ATOM     12  C   UNL     1      11.237  15.583  16.898  0.00  0.00    +0.000 A 
ATOM     13  C   UNL     1      11.444  14.256  16.585  0.00  0.00    +0.000 A 
ATOM     14  N   UNL     1      11.280  13.269  17.492  0.00  0.00    +0.000 NA
ATOM     15  C   UNL     1      10.887  13.641  18.745  0.00  0.00    +0.000 A 
ATOM     16  C   UNL     1      10.632  12.505  19.756  0.00  0.00    +0.000 C 
ATOM     17  C   UNL     1      12.015  11.860  20.033  0.00  0.00    +0.000 C 
ATOM     18  C   UNL     1       9.745  11.441  19.078  0.00  0.00    +0.000 C 
ATOM     19  C   UNL     1      10.040  13.006  21.131  0.00  0.00    +0.000 C 
ATOM     20  C   UNL     1       9.237  11.954  21.987  0.00  0.00    +0.000 C 
ATOM     21  C   UNL     1       7.901  12.439  22.607  0.00  0.00    +0.000 C 
ENDROOT
BRANCH   1  23
ATOM     22  C   UNL     1       9.683  17.070  26.581  0.00  0.00    +0.000 C 
ATOM     23  O   UNL     1      10.320  16.255  25.584  0.00  0.00    +0.000 OA
ENDBRANCH   1  23
TORSDOF 1
ENDMDL
MODEL 7
REMARK VINA RESULT:      -5.7      4.416      7.281
REMARK  Name = 
REMARK  5 active torsions:
REMARK  status: ('A' for Active; 'I' for Inactive)
REMARK    1  A    between atoms: C_1  and  O_2
REMARK    2  A    between atoms: O_2  and  C_3
REMARK    3  A    between atoms: C_9  and  C_10
REMARK    4  A    between atoms: C_18  and  C_19
REMARK    5  A    between atoms: C_18  and  C_20
REMARK                            x       y       z     vdW  Elec       q    Type
REMARK                         _______ _______ _______ _____ _____    ______ ____
ROOT
ATOM      1  C   UNL     1      -1.587  13.267  23.026  0.00  0.00    +0.000 A 
ATOM      2  C   UNL     1      -1.332  11.902  22.927  0.00  0.00    +0.000 A 
ATOM      3  C   UNL     1      -0.493  11.444  21.926  0.00  0.00    +0.000 A 
ATOM      4  C   UNL     1       0.047  12.364  21.028  0.00  0.00    +0.000 A 
ATOM      5  C   UNL     1      -0.502  13.652  20.885  0.00  0.00    +0.000 A 
ATOM      6  C   UNL     1      -1.273  14.122  21.958  0.00  0.00    +0.000 A 
ATOM      7  C   UNL     1       0.030  14.508  19.714  0.00  0.00    +0.000 C 
ATOM      8  C   UNL     1      -0.139  13.762  18.348  0.00  0.00    +0.000 C 
ATOM      9  C   UNL     1      -0.679  15.874  19.563  0.00  0.00    +0.000 C 
ATOM     10  C   UNL     1       0.010  16.748  18.556  0.00  0.00    +0.000 A 
ATOM     11  N   UNL     1      -0.793  17.574  17.828  0.00  0.00    +0.000 NA
ATOM     12  C   UNL     1      -0.180  18.334  16.896  0.00  0.00    +0.000 A 
ATOM     13  C   UNL     1       1.186  18.304  16.711  0.00  0.00    +0.000 A 
ATOM     14  N   UNL     1       1.992  17.498  17.436  0.00  0.00    +0.000 NA
ATOM     15  C   UNL     1       1.392  16.699  18.366  0.00  0.00    +0.000 A 
ATOM     16  C   UNL     1       2.308  15.731  19.141  0.00  0.00    +0.000 C 
ATOM     17  C   UNL     1       3.220  16.620  20.025  0.00  0.00    +0.000 C 
ATOM     18  C   UNL     1       3.209  14.997  18.127  0.00  0.00    +0.000 C 
ATOM     19  C   UNL     1       1.522  14.741  20.087  0.00  0.00    +0.000 C 
ATOM     20  C   UNL     1       2.247  13.395  20.471  0.00  0.00    +0.000 C 
ATOM     21  C   UNL     1       1.393  12.103  20.403  0.00  0.00    +0.000 C 
ENDROOT
BRANCH   1  23
ATOM     22  C   UNL     1      -3.515  13.881  24.190  0.00  0.00    +0.000 C 
ATOM     23  O   UNL     1      -2.078  13.841  24.172  0.00  0.00    +0.000 OA
ENDBRANCH   1  23
TORSDOF 1
ENDMDL
MODEL 8
REMARK VINA RESULT:      -5.7      4.074      6.415
REMARK  Name = 
REMARK  5 active torsions:
REMARK  status: ('A' for Active; 'I' for Inactive)
REMARK    1  A    between atoms: C_1  and  O_2
REMARK    2  A    between atoms: O_2  and  C_3
REMARK    3  A    between atoms: C_9  and  C_10
REMARK    4  A    between atoms: C_18  and  C_19
REMARK    5  A    between atoms: C_18  and  C_20
REMARK                            x       y       z     vdW  Elec       q    Type
REMARK                         _______ _______ _______ _____ _____    ______ ____
ROOT
ATOM      1  C   UNL     1      -4.791  11.049  17.414  0.00  0.00    +0.000 A 
ATOM      2  C   UNL     1      -4.197  10.273  16.422  0.00  0.00    +0.000 A 
ATOM      3  C   UNL     1      -2.825  10.082  16.446  0.00  0.00    +0.000 A 
ATOM      4  C   UNL     1      -2.079  10.700  17.449  0.00  0.00    +0.000 A 
ATOM      5  C   UNL     1      -2.604  11.770  18.196  0.00  0.00    +0.000 A 
ATOM      6  C   UNL     1      -4.002  11.881  18.224  0.00  0.00    +0.000 A 
ATOM      7  C   UNL     1      -1.622  12.520  19.123  0.00  0.00    +0.000 C 
ATOM      8  C   UNL     1      -0.390  13.057  18.321  0.00  0.00    +0.000 C 
ATOM      9  C   UNL     1      -2.245  13.737  19.845  0.00  0.00    +0.000 C 
ATOM     10  C   UNL     1      -1.321  14.299  20.884  0.00  0.00    +0.000 A 
ATOM     11  N   UNL     1      -1.371  15.648  21.069  0.00  0.00    +0.000 NA
ATOM     12  C   UNL     1      -0.515  16.159  21.978  0.00  0.00    +0.000 A 
ATOM     13  C   UNL     1       0.342  15.361  22.705  0.00  0.00    +0.000 A 
ATOM     14  N   UNL     1       0.392  14.021  22.539  0.00  0.00    +0.000 NA
ATOM     15  C   UNL     1      -0.446  13.484  21.605  0.00  0.00    +0.000 A 
ATOM     16  C   UNL     1      -0.335  11.964  21.370  0.00  0.00    +0.000 C 
ATOM     17  C   UNL     1      -0.837  11.291  22.673  0.00  0.00    +0.000 C 
ATOM     18  C   UNL     1       1.155  11.605  21.199  0.00  0.00    +0.000 C 
ATOM     19  C   UNL     1      -1.228  11.445  20.175  0.00  0.00    +0.000 C 
ATOM     20  C   UNL     1      -0.791  10.092  19.495  0.00  0.00    +0.000 C 
ATOM     21  C   UNL     1      -0.810  10.056  17.945  0.00  0.00    +0.000 C 
ENDROOT
BRANCH   1  23
ATOM     22  C   UNL     1      -6.403  10.379  18.963  0.00  0.00    +0.000 C 
ATOM     23  O   UNL     1      -6.134  10.986  17.689  0.00  0.00    +0.000 OA
ENDBRANCH   1  23
TORSDOF 1
ENDMDL
MODEL 9
REMARK VINA RESULT:      -5.7      4.929      7.572
REMARK  Name = 
REMARK  5 active torsions:
REMARK  status: ('A' for Active; 'I' for Inactive)
REMARK    1  A    between atoms: C_1  and  O_2
REMARK    2  A    between atoms: O_2  and  C_3
REMARK    3  A    between atoms: C_9  and  C_10
REMARK    4  A    between atoms: C_18  and  C_19
REMARK    5  A    between atoms: C_18  and  C_20
REMARK                            x       y       z     vdW  Elec       q    Type
REMARK                         _______ _______ _______ _____ _____    ______ ____
ROOT
ATOM      1  C   UNL     1      -2.135  10.632  18.384  0.00  0.00    +0.000 A 
ATOM      2  C   UNL     1      -0.743  10.634  18.352  0.00  0.00    +0.000 A 
ATOM      3  C   UNL     1      -0.048  11.388  19.283  0.00  0.00    +0.000 A 
ATOM      4  C   UNL     1      -0.768  12.148  20.205  0.00  0.00    +0.000 A 
ATOM      5  C   UNL     1      -2.126  12.452  19.997  0.00  0.00    +0.000 A 
ATOM      6  C   UNL     1      -2.823  11.612  19.117  0.00  0.00    +0.000 A 
ATOM      7  C   UNL     1      -2.764  13.476  20.961  0.00  0.00    +0.000 C 
ATOM      8  C   UNL     1      -1.968  14.824  20.958  0.00  0.00    +0.000 C 
ATOM      9  C   UNL     1      -4.231  13.829  20.621  0.00  0.00    +0.000 C 
ATOM     10  C   UNL     1      -4.866  14.657  21.698  0.00  0.00    +0.000 A 
ATOM     11  N   UNL     1      -5.782  15.579  21.288  0.00  0.00    +0.000 NA
ATOM     12  C   UNL     1      -6.328  16.350  22.252  0.00  0.00    +0.000 A 
ATOM     13  C   UNL     1      -6.004  16.195  23.583  0.00  0.00    +0.000 A 
ATOM     14  N   UNL     1      -5.108  15.275  24.002  0.00  0.00    +0.000 NA
ATOM     15  C   UNL     1      -4.522  14.502  23.043  0.00  0.00    +0.000 A 
ATOM     16  C   UNL     1      -3.448  13.503  23.519  0.00  0.00    +0.000 C 
ATOM     17  C   UNL     1      -4.196  12.445  24.370  0.00  0.00    +0.000 C 
ATOM     18  C   UNL     1      -2.470  14.248  24.451  0.00  0.00    +0.000 C 
ATOM     19  C   UNL     1      -2.714  12.755  22.338  0.00  0.00    +0.000 C 
ATOM     20  C   UNL     1      -1.281  12.174  22.644  0.00  0.00    +0.000 C 
ATOM     21  C   UNL     1      -0.190  12.417  21.569  0.00  0.00    +0.000 C 
ENDROOT
BRANCH   1  23
ATOM     22  C   UNL     1      -2.949   9.829  16.350  0.00  0.00    +0.000 C 
ATOM     23  O   UNL     1      -2.882   9.655  17.774  0.00  0.00    +0.000 OA
ENDBRANCH   1  23
TORSDOF 1
ENDMDL
