MODEL 1
REMARK VINA RESULT:      -8.3      0.000      0.000
REMARK  Name = 
REMARK  4 active torsions:
REMARK  status: ('A' for Active; 'I' for Inactive)
REMARK    1  A    between atoms: C_1  and  O_2
REMARK    2  A    between atoms: O_2  and  C_3
REMARK    3  A    between atoms: C_6  and  C_7
REMARK    4  A    between atoms: C_9  and  N_10
REMARK                            x       y       z     vdW  Elec       q    Type
REMARK                         _______ _______ _______ _____ _____    ______ ____
ROOT
ATOM      1  N   UNL     1       3.272   8.368  17.567  0.00  0.00    +0.000 N 
ATOM      2  C   UNL     1       3.691   7.014  17.647  0.00  0.00    +0.000 A 
ATOM      3  C   UNL     1       4.808   6.640  16.930  0.00  0.00    +0.000 A 
ATOM      4  C   UNL     1       5.168   5.321  17.011  0.00  0.00    +0.000 A 
ATOM      5  N   UNL     1       4.475   4.411  17.711  0.00  0.00    +0.000 NA
ATOM      6  C   UNL     1       3.383   4.838  18.361  0.00  0.00    +0.000 A 
ATOM      7  N   UNL     1       2.620   3.920  18.997  0.00  0.00    +0.000 N 
ATOM      8  C   UNL     1       2.984   2.514  19.126  0.00  0.00    +0.000 C 
ATOM      9  C   UNL     1       1.886   2.042  20.118  0.00  0.00    +0.000 C 
ATOM     10  C   UNL     1       0.691   2.894  19.709  0.00  0.00    +0.000 C 
ATOM     11  C   UNL     1       1.485   4.189  19.878  0.00  0.00    +0.000 C 
ATOM     12  C   UNL     1       1.952   3.998  21.333  0.00  0.00    +0.000 C 
ATOM     13  O   UNL     1       2.205   2.560  21.442  0.00  0.00    +0.000 OA
ATOM     14  N   UNL     1       2.993   6.117  18.361  0.00  0.00    +0.000 NA
ATOM     15  H   UNL     1       4.070   8.989  17.557  0.00  0.00    +0.000 HD
ENDROOT
BRANCH   1  18
ATOM     16  C   UNL     1       0.183   9.720  18.676  0.00  0.00    +0.000 A 
ATOM     17  C   UNL     1       1.004   9.359  17.576  0.00  0.00    +0.000 A 
ATOM     18  C   UNL     1       2.140   8.832  18.135  0.00  0.00    +0.000 A 
ATOM     19  O   UNL     1       1.979   8.796  19.488  0.00  0.00    +0.000 OA
ATOM     20  N   UNL     1       0.760   9.352  19.830  0.00  0.00    +0.000 NA
BRANCH  16  24
ATOM     21  C   UNL     1      -3.598  11.701  18.657  0.00  0.00    +0.000 A 
ATOM     22  C   UNL     1      -3.315  10.719  17.708  0.00  0.00    +0.000 A 
ATOM     23  C   UNL     1      -2.078  10.070  17.709  0.00  0.00    +0.000 A 
ATOM     24  C   UNL     1      -1.097  10.417  18.646  0.00  0.00    +0.000 A 
ATOM     25  C   UNL     1      -1.375  11.430  19.573  0.00  0.00    +0.000 A 
ATOM     26  C   UNL     1      -2.619  12.071  19.576  0.00  0.00    +0.000 A 
BRANCH  21  28
ATOM     27  C   UNL     1      -5.592  11.902  17.415  0.00  0.00    +0.000 C 
ATOM     28  O   UNL     1      -4.846  12.256  18.576  0.00  0.00    +0.000 OA
ENDBRANCH  21  28
ENDBRANCH  16  24
ENDBRANCH   1  18
TORSDOF 3
ENDMDL
MODEL 2
REMARK VINA RESULT:      -8.3      0.510      1.074
REMARK  Name = 
REMARK  4 active torsions:
REMARK  status: ('A' for Active; 'I' for Inactive)
REMARK    1  A    between atoms: C_1  and  O_2
REMARK    2  A    between atoms: O_2  and  C_3
REMARK    3  A    between atoms: C_6  and  C_7
REMARK    4  A    between atoms: C_9  and  N_10
REMARK                            x       y       z     vdW  Elec       q    Type
REMARK                         _______ _______ _______ _____ _____    ______ ____
ROOT
ATOM      1  N   UNL     1       3.135   8.509  17.616  0.00  0.00    +0.000 N 
ATOM      2  C   UNL     1       3.582   7.163  17.653  0.00  0.00    +0.000 A 
ATOM      3  C   UNL     1       4.717   6.839  16.940  0.00  0.00    +0.000 A 
ATOM      4  C   UNL     1       5.105   5.526  16.978  0.00  0.00    +0.000 A 
ATOM      5  N   UNL     1       4.423   4.577  17.636  0.00  0.00    +0.000 NA
ATOM      6  C   UNL     1       3.313   4.956  18.285  0.00  0.00    +0.000 A 
ATOM      7  N   UNL     1       2.562   4.000  18.876  0.00  0.00    +0.000 N 
ATOM      8  C   UNL     1       2.956   2.597  18.961  0.00  0.00    +0.000 C 
ATOM      9  C   UNL     1       1.855   2.067  19.919  0.00  0.00    +0.000 C 
ATOM     10  C   UNL     1       0.647   2.907  19.524  0.00  0.00    +0.000 C 
ATOM     11  C   UNL     1       1.410   4.211  19.751  0.00  0.00    +0.000 C 
ATOM     12  C   UNL     1       1.861   3.979  21.205  0.00  0.00    +0.000 C 
ATOM     13  O   UNL     1       2.145   2.543  21.266  0.00  0.00    +0.000 OA
ATOM     14  N   UNL     1       2.895   6.225  18.325  0.00  0.00    +0.000 NA
ATOM     15  H   UNL     1       3.919   9.147  17.640  0.00  0.00    +0.000 HD
ENDROOT
BRANCH   1  18
ATOM     16  C   UNL     1      -0.006   9.735  18.726  0.00  0.00    +0.000 A 
ATOM     17  C   UNL     1       0.826   9.403  17.626  0.00  0.00    +0.000 A 
ATOM     18  C   UNL     1       1.985   8.928  18.184  0.00  0.00    +0.000 A 
ATOM     19  O   UNL     1       1.829   8.892  19.538  0.00  0.00    +0.000 OA
ATOM     20  N   UNL     1       0.588   9.397  19.880  0.00  0.00    +0.000 NA
BRANCH  16  24
ATOM     21  C   UNL     1      -3.811  11.665  18.559  0.00  0.00    +0.000 A 
ATOM     22  C   UNL     1      -2.827  12.126  19.434  0.00  0.00    +0.000 A 
ATOM     23  C   UNL     1      -1.581  11.495  19.495  0.00  0.00    +0.000 A 
ATOM     24  C   UNL     1      -1.315  10.377  18.695  0.00  0.00    +0.000 A 
ATOM     25  C   UNL     1      -2.320   9.897  17.844  0.00  0.00    +0.000 A 
ATOM     26  C   UNL     1      -3.563  10.537  17.780  0.00  0.00    +0.000 A 
BRANCH  21  28
ATOM     27  C   UNL     1      -5.300  13.002  19.804  0.00  0.00    +0.000 C 
ATOM     28  O   UNL     1      -4.983  12.368  18.568  0.00  0.00    +0.000 OA
ENDBRANCH  21  28
ENDBRANCH  16  24
ENDBRANCH   1  18
TORSDOF 3
ENDMDL
MODEL 3
REMARK VINA RESULT:      -8.1      3.529      9.035
REMARK  Name = 
REMARK  4 active torsions:
REMARK  status: ('A' for Active; 'I' for Inactive)
REMARK    1  A    between atoms: C_1  and  O_2
REMARK    2  A    between atoms: O_2  and  C_3
REMARK    3  A    between atoms: C_6  and  C_7
REMARK    4  A    between atoms: C_9  and  N_10
REMARK                            x       y       z     vdW  Elec       q    Type
REMARK                         _______ _______ _______ _____ _____    ______ ____
ROOT
ATOM      1  N   UNL     1       1.218   7.805  21.341  0.00  0.00    +0.000 N 
ATOM      2  C   UNL     1       0.698   9.079  21.689  0.00  0.00    +0.000 A 
ATOM      3  C   UNL     1      -0.020   9.185  22.862  0.00  0.00    +0.000 A 
ATOM      4  C   UNL     1      -0.529  10.422  23.153  0.00  0.00    +0.000 A 
ATOM      5  N   UNL     1      -0.384  11.485  22.348  0.00  0.00    +0.000 NA
ATOM      6  C   UNL     1       0.300  11.305  21.209  0.00  0.00    +0.000 A 
ATOM      7  N   UNL     1       0.378  12.338  20.341  0.00  0.00    +0.000 N 
ATOM      8  C   UNL     1      -0.128  13.676  20.627  0.00  0.00    +0.000 C 
ATOM      9  C   UNL     1       0.443  14.446  19.406  0.00  0.00    +0.000 C 
ATOM     10  C   UNL     1       0.380  13.398  18.302  0.00  0.00    +0.000 C 
ATOM     11  C   UNL     1       1.190  12.399  19.127  0.00  0.00    +0.000 C 
ATOM     12  C   UNL     1       2.425  13.271  19.420  0.00  0.00    +0.000 C 
ATOM     13  O   UNL     1       1.878  14.618  19.597  0.00  0.00    +0.000 OA
ATOM     14  N   UNL     1       0.859  10.136  20.878  0.00  0.00    +0.000 NA
ATOM     15  H   UNL     1       1.560   7.322  22.161  0.00  0.00    +0.000 HD
ENDROOT
BRANCH   1  18
ATOM     16  C   UNL     1       3.001   6.778  18.448  0.00  0.00    +0.000 A 
ATOM     17  C   UNL     1       2.504   6.432  19.732  0.00  0.00    +0.000 A 
ATOM     18  C   UNL     1       1.845   7.551  20.174  0.00  0.00    +0.000 A 
ATOM     19  O   UNL     1       1.866   8.485  19.181  0.00  0.00    +0.000 OA
ATOM     20  N   UNL     1       2.589   8.007  18.103  0.00  0.00    +0.000 NA
BRANCH  16  24
ATOM     21  C   UNL     1       5.456   4.463  15.833  0.00  0.00    +0.000 A 
ATOM     22  C   UNL     1       4.620   3.831  16.753  0.00  0.00    +0.000 A 
ATOM     23  C   UNL     1       3.816   4.585  17.613  0.00  0.00    +0.000 A 
ATOM     24  C   UNL     1       3.862   5.984  17.579  0.00  0.00    +0.000 A 
ATOM     25  C   UNL     1       4.731   6.613  16.677  0.00  0.00    +0.000 A 
ATOM     26  C   UNL     1       5.526   5.854  15.811  0.00  0.00    +0.000 A 
BRANCH  21  28
ATOM     27  C   UNL     1       6.210   3.991  13.650  0.00  0.00    +0.000 C 
ATOM     28  O   UNL     1       6.182   3.630  15.028  0.00  0.00    +0.000 OA
ENDBRANCH  21  28
ENDBRANCH  16  24
ENDBRANCH   1  18
TORSDOF 3
ENDMDL
MODEL 4
REMARK VINA RESULT:      -7.9      3.158      4.730
REMARK  Name = 
REMARK  4 active torsions:
REMARK  status: ('A' for Active; 'I' for Inactive)
REMARK    1  A    between atoms: C_1  and  O_2
REMARK    2  A    between atoms: O_2  and  C_3
REMARK    3  A    between atoms: C_6  and  C_7
REMARK    4  A    between atoms: C_9  and  N_10
REMARK                            x       y       z     vdW  Elec       q    Type
REMARK                         _______ _______ _______ _____ _____    ______ ____
ROOT
ATOM      1  N   UNL     1       1.809   5.530  20.827  0.00  0.00    +0.000 N 
ATOM      2  C   UNL     1       2.864   4.793  20.229  0.00  0.00    +0.000 A 
ATOM      3  C   UNL     1       3.018   3.472  20.594  0.00  0.00    +0.000 A 
ATOM      4  C   UNL     1       4.062   2.800  20.016  0.00  0.00    +0.000 A 
ATOM      5  N   UNL     1       4.925   3.373  19.165  0.00  0.00    +0.000 NA
ATOM      6  C   UNL     1       4.733   4.668  18.875  0.00  0.00    +0.000 A 
ATOM      7  N   UNL     1       5.644   5.288  18.092  0.00  0.00    +0.000 N 
ATOM      8  C   UNL     1       6.752   4.600  17.438  0.00  0.00    +0.000 C 
ATOM      9  C   UNL     1       7.278   5.743  16.528  0.00  0.00    +0.000 C 
ATOM     10  C   UNL     1       7.028   6.980  17.381  0.00  0.00    +0.000 C 
ATOM     11  C   UNL     1       5.547   6.638  17.540  0.00  0.00    +0.000 C 
ATOM     12  C   UNL     1       5.163   6.523  16.054  0.00  0.00    +0.000 C 
ATOM     13  O   UNL     1       6.343   5.924  15.425  0.00  0.00    +0.000 OA
ATOM     14  N   UNL     1       3.714   5.378  19.369  0.00  0.00    +0.000 NA
ATOM     15  H   UNL     1       0.982   4.956  20.923  0.00  0.00    +0.000 HD
ENDROOT
BRANCH   1  18
ATOM     16  C   UNL     1       1.122   9.010  20.692  0.00  0.00    +0.000 A 
ATOM     17  C   UNL     1       1.147   7.826  21.474  0.00  0.00    +0.000 A 
ATOM     18  C   UNL     1       1.619   6.851  20.633  0.00  0.00    +0.000 A 
ATOM     19  O   UNL     1       1.944   7.429  19.441  0.00  0.00    +0.000 OA
ATOM     20  N   UNL     1       1.632   8.776  19.473  0.00  0.00    +0.000 NA
BRANCH  16  24
ATOM     21  C   UNL     1      -0.305  12.862  21.854  0.00  0.00    +0.000 A 
ATOM     22  C   UNL     1      -0.754  11.719  22.514  0.00  0.00    +0.000 A 
ATOM     23  C   UNL     1      -0.291  10.455  22.135  0.00  0.00    +0.000 A 
ATOM     24  C   UNL     1       0.608  10.321  21.070  0.00  0.00    +0.000 A 
ATOM     25  C   UNL     1       1.027  11.471  20.388  0.00  0.00    +0.000 A 
ATOM     26  C   UNL     1       0.569  12.735  20.777  0.00  0.00    +0.000 A 
BRANCH  21  28
ATOM     27  C   UNL     1      -1.520  13.959  23.550  0.00  0.00    +0.000 C 
ATOM     28  O   UNL     1      -0.806  14.046  22.320  0.00  0.00    +0.000 OA
ENDBRANCH  21  28
ENDBRANCH  16  24
ENDBRANCH   1  18
TORSDOF 3
ENDMDL
MODEL 5
REMARK VINA RESULT:      -7.9      2.260      2.603
REMARK  Name = 
REMARK  4 active torsions:
REMARK  status: ('A' for Active; 'I' for Inactive)
REMARK    1  A    between atoms: C_1  and  O_2
REMARK    2  A    between atoms: O_2  and  C_3
REMARK    3  A    between atoms: C_6  and  C_7
REMARK    4  A    between atoms: C_9  and  N_10
REMARK                            x       y       z     vdW  Elec       q    Type
REMARK                         _______ _______ _______ _____ _____    ______ ____
ROOT
ATOM      1  N   UNL     1       3.563   7.946  17.274  0.00  0.00    +0.000 N 
ATOM      2  C   UNL     1       3.859   6.573  17.480  0.00  0.00    +0.000 A 
ATOM      3  C   UNL     1       4.867   6.009  16.725  0.00  0.00    +0.000 A 
ATOM      4  C   UNL     1       5.107   4.677  16.933  0.00  0.00    +0.000 A 
ATOM      5  N   UNL     1       4.400   3.926  17.791  0.00  0.00    +0.000 NA
ATOM      6  C   UNL     1       3.417   4.532  18.471  0.00  0.00    +0.000 A 
ATOM      7  N   UNL     1       2.633   3.774  19.271  0.00  0.00    +0.000 N 
ATOM      8  C   UNL     1       2.875   2.361  19.537  0.00  0.00    +0.000 C 
ATOM      9  C   UNL     1       1.833   2.118  20.662  0.00  0.00    +0.000 C 
ATOM     10  C   UNL     1       0.691   3.038  20.253  0.00  0.00    +0.000 C 
ATOM     11  C   UNL     1       1.614   4.254  20.203  0.00  0.00    +0.000 C 
ATOM     12  C   UNL     1       2.193   4.179  21.627  0.00  0.00    +0.000 C 
ATOM     13  O   UNL     1       2.320   2.743  21.886  0.00  0.00    +0.000 OA
ATOM     14  N   UNL     1       3.150   5.837  18.350  0.00  0.00    +0.000 NA
ATOM     15  H   UNL     1       4.411   8.476  17.126  0.00  0.00    +0.000 HD
ENDROOT
BRANCH   1  18
ATOM     16  C   UNL     1       1.052   9.538  19.212  0.00  0.00    +0.000 A 
ATOM     17  C   UNL     1       2.341   8.944  19.180  0.00  0.00    +0.000 A 
ATOM     18  C   UNL     1       2.537   8.584  17.872  0.00  0.00    +0.000 A 
ATOM     19  O   UNL     1       1.469   9.015  17.141  0.00  0.00    +0.000 OA
ATOM     20  N   UNL     1       0.539   9.608  17.975  0.00  0.00    +0.000 NA
BRANCH  16  24
ATOM     21  C   UNL     1      -1.191  10.845  22.601  0.00  0.00    +0.000 A 
ATOM     22  C   UNL     1      -1.158  11.618  21.441  0.00  0.00    +0.000 A 
ATOM     23  C   UNL     1      -0.423  11.195  20.330  0.00  0.00    +0.000 A 
ATOM     24  C   UNL     1       0.311  10.003  20.379  0.00  0.00    +0.000 A 
ATOM     25  C   UNL     1       0.302   9.250  21.560  0.00  0.00    +0.000 A 
ATOM     26  C   UNL     1      -0.444   9.672  22.667  0.00  0.00    +0.000 A 
BRANCH  21  28
ATOM     27  C   UNL     1      -2.978  12.254  23.218  0.00  0.00    +0.000 C 
ATOM     28  O   UNL     1      -1.958  11.343  23.618  0.00  0.00    +0.000 OA
ENDBRANCH  21  28
ENDBRANCH  16  24
ENDBRANCH   1  18
TORSDOF 3
ENDMDL
MODEL 6
REMARK VINA RESULT:      -7.7      2.864      4.537
REMARK  Name = 
REMARK  4 active torsions:
REMARK  status: ('A' for Active; 'I' for Inactive)
REMARK    1  A    between atoms: C_1  and  O_2
REMARK    2  A    between atoms: O_2  and  C_3
REMARK    3  A    between atoms: C_6  and  C_7
REMARK    4  A    between atoms: C_9  and  N_10
REMARK                            x       y       z     vdW  Elec       q    Type
REMARK                         _______ _______ _______ _____ _____    ______ ____
ROOT
ATOM      1  N   UNL     1       1.844   5.473  20.822  0.00  0.00    +0.000 N 
ATOM      2  C   UNL     1       2.906   4.744  20.227  0.00  0.00    +0.000 A 
ATOM      3  C   UNL     1       3.073   3.426  20.599  0.00  0.00    +0.000 A 
ATOM      4  C   UNL     1       4.123   2.761  20.024  0.00  0.00    +0.000 A 
ATOM      5  N   UNL     1       4.979   3.338  19.169  0.00  0.00    +0.000 NA
ATOM      6  C   UNL     1       4.775   4.629  18.872  0.00  0.00    +0.000 A 
ATOM      7  N   UNL     1       5.680   5.254  18.086  0.00  0.00    +0.000 N 
ATOM      8  C   UNL     1       6.794   4.574  17.435  0.00  0.00    +0.000 C 
ATOM      9  C   UNL     1       7.309   5.717  16.519  0.00  0.00    +0.000 C 
ATOM     10  C   UNL     1       7.047   6.956  17.366  0.00  0.00    +0.000 C 
ATOM     11  C   UNL     1       5.569   6.601  17.528  0.00  0.00    +0.000 C 
ATOM     12  C   UNL     1       5.186   6.475  16.042  0.00  0.00    +0.000 C 
ATOM     13  O   UNL     1       6.371   5.884  15.416  0.00  0.00    +0.000 OA
ATOM     14  N   UNL     1       3.749   5.332  19.364  0.00  0.00    +0.000 NA
ATOM     15  H   UNL     1       1.022   4.892  20.922  0.00  0.00    +0.000 HD
ENDROOT
BRANCH   1  18
ATOM     16  C   UNL     1       1.102   8.940  20.658  0.00  0.00    +0.000 A 
ATOM     17  C   UNL     1       1.104   7.754  21.437  0.00  0.00    +0.000 A 
ATOM     18  C   UNL     1       1.642   6.791  20.621  0.00  0.00    +0.000 A 
ATOM     19  O   UNL     1       2.023   7.380  19.452  0.00  0.00    +0.000 OA
ATOM     20  N   UNL     1       1.685   8.721  19.470  0.00  0.00    +0.000 NA
BRANCH  16  24
ATOM     21  C   UNL     1      -0.620  12.719  21.651  0.00  0.00    +0.000 A 
ATOM     22  C   UNL     1       0.149  12.580  20.496  0.00  0.00    +0.000 A 
ATOM     23  C   UNL     1       0.717  11.345  20.168  0.00  0.00    +0.000 A 
ATOM     24  C   UNL     1       0.542  10.240  21.010  0.00  0.00    +0.000 A 
ATOM     25  C   UNL     1      -0.201  10.396  22.188  0.00  0.00    +0.000 A 
ATOM     26  C   UNL     1      -0.777  11.631  22.507  0.00  0.00    +0.000 A 
BRANCH  21  28
ATOM     27  C   UNL     1      -2.392  14.214  21.221  0.00  0.00    +0.000 C 
ATOM     28  O   UNL     1      -1.144  13.964  21.863  0.00  0.00    +0.000 OA
ENDBRANCH  21  28
ENDBRANCH  16  24
ENDBRANCH   1  18
TORSDOF 3
ENDMDL
MODEL 7
REMARK VINA RESULT:      -7.6      2.083      2.534
REMARK  Name = 
REMARK  4 active torsions:
REMARK  status: ('A' for Active; 'I' for Inactive)
REMARK    1  A    between atoms: C_1  and  O_2
REMARK    2  A    between atoms: O_2  and  C_3
REMARK    3  A    between atoms: C_6  and  C_7
REMARK    4  A    between atoms: C_9  and  N_10
REMARK                            x       y       z     vdW  Elec       q    Type
REMARK                         _______ _______ _______ _____ _____    ______ ____
ROOT
ATOM      1  N   UNL     1       3.219   8.472  17.398  0.00  0.00    +0.000 N 
ATOM      2  C   UNL     1       3.640   7.126  17.558  0.00  0.00    +0.000 A 
ATOM      3  C   UNL     1       4.719   6.693  16.815  0.00  0.00    +0.000 A 
ATOM      4  C   UNL     1       5.081   5.382  16.976  0.00  0.00    +0.000 A 
ATOM      5  N   UNL     1       4.424   4.531  17.778  0.00  0.00    +0.000 NA
ATOM      6  C   UNL     1       3.368   5.010  18.449  0.00  0.00    +0.000 A 
ATOM      7  N   UNL     1       2.638   4.147  19.190  0.00  0.00    +0.000 N 
ATOM      8  C   UNL     1       3.006   2.752  19.407  0.00  0.00    +0.000 C 
ATOM      9  C   UNL     1       1.961   2.362  20.486  0.00  0.00    +0.000 C 
ATOM     10  C   UNL     1       0.747   3.187  20.077  0.00  0.00    +0.000 C 
ATOM     11  C   UNL     1       1.550   4.487  20.107  0.00  0.00    +0.000 C 
ATOM     12  C   UNL     1       2.091   4.404  21.546  0.00  0.00    +0.000 C 
ATOM     13  O   UNL     1       2.349   2.976  21.750  0.00  0.00    +0.000 OA
ATOM     14  N   UNL     1       2.980   6.288  18.373  0.00  0.00    +0.000 NA
ATOM     15  H   UNL     1       4.017   9.086  17.301  0.00  0.00    +0.000 HD
ENDROOT
BRANCH   1  18
ATOM     16  C   UNL     1       0.564   9.875  19.290  0.00  0.00    +0.000 A 
ATOM     17  C   UNL     1       1.956   9.616  19.193  0.00  0.00    +0.000 A 
ATOM     18  C   UNL     1       2.119   8.983  17.987  0.00  0.00    +0.000 A 
ATOM     19  O   UNL     1       0.912   8.942  17.355  0.00  0.00    +0.000 OA
ATOM     20  N   UNL     1      -0.061   9.495  18.166  0.00  0.00    +0.000 NA
BRANCH  16  24
ATOM     21  C   UNL     1      -1.493  11.593  22.613  0.00  0.00    +0.000 A 
ATOM     22  C   UNL     1      -0.767  10.413  22.771  0.00  0.00    +0.000 A 
ATOM     23  C   UNL     1      -0.095   9.845  21.685  0.00  0.00    +0.000 A 
ATOM     24  C   UNL     1      -0.164  10.441  20.420  0.00  0.00    +0.000 A 
ATOM     25  C   UNL     1      -0.924  11.607  20.260  0.00  0.00    +0.000 A 
ATOM     26  C   UNL     1      -1.588  12.178  21.352  0.00  0.00    +0.000 A 
BRANCH  21  28
ATOM     27  C   UNL     1      -3.485  12.356  23.618  0.00  0.00    +0.000 C 
ATOM     28  O   UNL     1      -2.094  12.071  23.745  0.00  0.00    +0.000 OA
ENDBRANCH  21  28
ENDBRANCH  16  24
ENDBRANCH   1  18
TORSDOF 3
ENDMDL
MODEL 8
REMARK VINA RESULT:      -7.5      3.952      9.573
REMARK  Name = 
REMARK  4 active torsions:
REMARK  status: ('A' for Active; 'I' for Inactive)
REMARK    1  A    between atoms: C_1  and  O_2
REMARK    2  A    between atoms: O_2  and  C_3
REMARK    3  A    between atoms: C_6  and  C_7
REMARK    4  A    between atoms: C_9  and  N_10
REMARK                            x       y       z     vdW  Elec       q    Type
REMARK                         _______ _______ _______ _____ _____    ______ ____
ROOT
ATOM      1  N   UNL     1      -1.320  10.249  23.346  0.00  0.00    +0.000 N 
ATOM      2  C   UNL     1      -1.755  11.563  23.032  0.00  0.00    +0.000 A 
ATOM      3  C   UNL     1      -2.875  12.044  23.677  0.00  0.00    +0.000 A 
ATOM      4  C   UNL     1      -3.281  13.305  23.330  0.00  0.00    +0.000 A 
ATOM      5  N   UNL     1      -2.667  14.044  22.395  0.00  0.00    +0.000 NA
ATOM      6  C   UNL     1      -1.601  13.504  21.787  0.00  0.00    +0.000 A 
ATOM      7  N   UNL     1      -1.024  14.195  20.778  0.00  0.00    +0.000 N 
ATOM      8  C   UNL     1      -1.411  15.549  20.398  0.00  0.00    +0.000 C 
ATOM      9  C   UNL     1      -0.280  15.878  19.387  0.00  0.00    +0.000 C 
ATOM     10  C   UNL     1      -0.021  14.525  18.737  0.00  0.00    +0.000 C 
ATOM     11  C   UNL     1       0.222  13.859  20.091  0.00  0.00    +0.000 C 
ATOM     12  C   UNL     1       1.329  14.787  20.623  0.00  0.00    +0.000 C 
ATOM     13  O   UNL     1       0.952  16.113  20.130  0.00  0.00    +0.000 OA
ATOM     14  N   UNL     1      -1.123  12.296  22.101  0.00  0.00    +0.000 NA
ATOM     15  H   UNL     1      -1.424  10.065  24.335  0.00  0.00    +0.000 HD
ENDROOT
BRANCH   1  18
ATOM     16  C   UNL     1       1.057   8.438  21.431  0.00  0.00    +0.000 A 
ATOM     17  C   UNL     1      -0.291   8.858  21.576  0.00  0.00    +0.000 A 
ATOM     18  C   UNL     1      -0.305   9.629  22.711  0.00  0.00    +0.000 A 
ATOM     19  O   UNL     1       0.973   9.741  23.172  0.00  0.00    +0.000 OA
ATOM     20  N   UNL     1       1.826   8.997  22.377  0.00  0.00    +0.000 NA
BRANCH  16  24
ATOM     21  C   UNL     1       2.745   5.741  18.584  0.00  0.00    +0.000 A 
ATOM     22  C   UNL     1       2.625   7.098  18.281  0.00  0.00    +0.000 A 
ATOM     23  C   UNL     1       2.071   7.984  19.208  0.00  0.00    +0.000 A 
ATOM     24  C   UNL     1       1.604   7.515  20.443  0.00  0.00    +0.000 A 
ATOM     25  C   UNL     1       1.695   6.146  20.726  0.00  0.00    +0.000 A 
ATOM     26  C   UNL     1       2.260   5.264  19.799  0.00  0.00    +0.000 A 
BRANCH  21  28
ATOM     27  C   UNL     1       4.469   4.234  18.024  0.00  0.00    +0.000 C 
ATOM     28  O   UNL     1       3.320   4.970  17.612  0.00  0.00    +0.000 OA
ENDBRANCH  21  28
ENDBRANCH  16  24
ENDBRANCH   1  18
TORSDOF 3
ENDMDL
MODEL 9
REMARK VINA RESULT:      -7.3      1.716      1.808
REMARK  Name = 
REMARK  4 active torsions:
REMARK  status: ('A' for Active; 'I' for Inactive)
REMARK    1  A    between atoms: C_1  and  O_2
REMARK    2  A    between atoms: O_2  and  C_3
REMARK    3  A    between atoms: C_6  and  C_7
REMARK    4  A    between atoms: C_9  and  N_10
REMARK                            x       y       z     vdW  Elec       q    Type
REMARK                         _______ _______ _______ _____ _____    ______ ____
ROOT
ATOM      1  N   UNL     1       3.444   8.091  17.459  0.00  0.00    +0.000 N 
ATOM      2  C   UNL     1       3.727   6.703  17.552  0.00  0.00    +0.000 A 
ATOM      3  C   UNL     1       4.655   6.173  16.681  0.00  0.00    +0.000 A 
ATOM      4  C   UNL     1       4.884   4.826  16.783  0.00  0.00    +0.000 A 
ATOM      5  N   UNL     1       4.234   4.033  17.647  0.00  0.00    +0.000 NA
ATOM      6  C   UNL     1       3.324   4.610  18.446  0.00  0.00    +0.000 A 
ATOM      7  N   UNL     1       2.594   3.814  19.259  0.00  0.00    +0.000 N 
ATOM      8  C   UNL     1       2.826   2.382  19.414  0.00  0.00    +0.000 C 
ATOM      9  C   UNL     1       1.877   2.084  20.605  0.00  0.00    +0.000 C 
ATOM     10  C   UNL     1       0.724   3.047  20.353  0.00  0.00    +0.000 C 
ATOM     11  C   UNL     1       1.666   4.249  20.302  0.00  0.00    +0.000 C 
ATOM     12  C   UNL     1       2.360   4.071  21.665  0.00  0.00    +0.000 C 
ATOM     13  O   UNL     1       2.477   2.620  21.821  0.00  0.00    +0.000 OA
ATOM     14  N   UNL     1       3.076   5.923  18.431  0.00  0.00    +0.000 NA
ATOM     15  H   UNL     1       4.288   8.616  17.274  0.00  0.00    +0.000 HD
ENDROOT
BRANCH   1  18
ATOM     16  C   UNL     1       0.960  10.031  19.091  0.00  0.00    +0.000 A 
ATOM     17  C   UNL     1       1.803   9.875  17.960  0.00  0.00    +0.000 A 
ATOM     18  C   UNL     1       2.485   8.705  18.181  0.00  0.00    +0.000 A 
ATOM     19  O   UNL     1       2.017   8.144  19.332  0.00  0.00    +0.000 OA
ATOM     20  N   UNL     1       1.068   8.970  19.905  0.00  0.00    +0.000 NA
BRANCH  16  24
ATOM     21  C   UNL     1      -1.499  13.377  20.083  0.00  0.00    +0.000 A 
ATOM     22  C   UNL     1      -1.591  12.196  20.819  0.00  0.00    +0.000 A 
ATOM     23  C   UNL     1      -0.790  11.097  20.496  0.00  0.00    +0.000 A 
ATOM     24  C   UNL     1       0.096  11.161  19.413  0.00  0.00    +0.000 A 
ATOM     25  C   UNL     1       0.156  12.338  18.655  0.00  0.00    +0.000 A 
ATOM     26  C   UNL     1      -0.640  13.439  18.988  0.00  0.00    +0.000 A 
BRANCH  21  28
ATOM     27  C   UNL     1      -3.610  13.993  20.932  0.00  0.00    +0.000 C 
ATOM     28  O   UNL     1      -2.314  14.395  20.498  0.00  0.00    +0.000 OA
ENDBRANCH  21  28
ENDBRANCH  16  24
ENDBRANCH   1  18
TORSDOF 3
ENDMDL
