MODEL 1
REMARK VINA RESULT:      -7.7      0.000      0.000
REMARK  Name = 
REMARK  3 active torsions:
REMARK  status: ('A' for Active; 'I' for Inactive)
REMARK    1  A    between atoms: C_2  and  N_3
REMARK    2  A    between atoms: C_2  and  N_11
REMARK    3  A    between atoms: N_14  and  C_15
REMARK                            x       y       z     vdW  Elec       q    Type
REMARK                         _______ _______ _______ _____ _____    ______ ____
ROOT
ATOM      1  N   UNL     1       2.336   4.497  18.492  0.00  0.00    +0.000 N 
ATOM      2  C   UNL     1       1.566   4.510  19.756  0.00  0.00    +0.000 C 
ATOM      3  C   UNL     1       1.981   5.659  20.720  0.00  0.00    +0.000 C 
ATOM      4  N   UNL     1       2.135   6.946  20.011  0.00  0.00    +0.000 N 
ATOM      5  C   UNL     1       2.986   6.864  18.807  0.00  0.00    +0.000 C 
ATOM      6  C   UNL     1       2.393   5.825  17.848  0.00  0.00    +0.000 C 
ENDROOT
BRANCH   4   7
ATOM      7  C   UNL     1       1.511   8.128  20.381  0.00  0.00    +0.000 A 
ATOM      8  C   UNL     1       1.165   8.325  21.738  0.00  0.00    +0.000 A 
ATOM      9  C   UNL     1       0.519   9.478  22.200  0.00  0.00    +0.000 A 
ATOM     10  C   UNL     1       0.216  10.495  21.309  0.00  0.00    +0.000 A 
ATOM     11 CL   UNL     1      -0.575  11.915  21.869  0.00  0.00    +0.000 Cl
ATOM     12  C   UNL     1       0.540  10.358  19.968  0.00  0.00    +0.000 A 
ATOM     13  C   UNL     1       1.165   9.186  19.504  0.00  0.00    +0.000 A 
ATOM     14 CL   UNL     1       1.358   9.098  17.781  0.00  0.00    +0.000 Cl
ENDBRANCH   4   7
BRANCH   1  16
ATOM     15  S   UNL     1       3.045   1.892  18.811  0.00  0.00    +0.000 S 
ATOM     16  C   UNL     1       3.117   3.410  18.077  0.00  0.00    +0.000 C 
BRANCH  16  17
ATOM     17  N   UNL     1       4.004   3.737  17.064  0.00  0.00    +0.000 N 
ATOM     18  C   UNL     1       5.119   4.587  17.144  0.00  0.00    +0.000 A 
ATOM     19  C   UNL     1       5.952   4.591  18.249  0.00  0.00    +0.000 A 
ATOM     20  C   UNL     1       7.003   5.493  18.275  0.00  0.00    +0.000 A 
ATOM     21 CL   UNL     1       8.036   5.556  19.651  0.00  0.00    +0.000 Cl
ATOM     22  C   UNL     1       7.223   6.347  17.207  0.00  0.00    +0.000 A 
ATOM     23  C   UNL     1       6.377   6.230  16.120  0.00  0.00    +0.000 A 
ATOM     24  N   UNL     1       5.347   5.353  16.056  0.00  0.00    +0.000 NA
ATOM     25  H   UNL     1       3.594   3.743  16.138  0.00  0.00    +0.000 HD
ENDBRANCH  16  17
ENDBRANCH   1  16
TORSDOF 3
ENDMDL
MODEL 2
REMARK VINA RESULT:      -7.6      2.192      2.651
REMARK  Name = 
REMARK  3 active torsions:
REMARK  status: ('A' for Active; 'I' for Inactive)
REMARK    1  A    between atoms: C_2  and  N_3
REMARK    2  A    between atoms: C_2  and  N_11
REMARK    3  A    between atoms: N_14  and  C_15
REMARK                            x       y       z     vdW  Elec       q    Type
REMARK                         _______ _______ _______ _____ _____    ______ ____
ROOT
ATOM      1  N   UNL     1       2.337   5.495  19.445  0.00  0.00    +0.000 N 
ATOM      2  C   UNL     1       1.530   5.778  20.653  0.00  0.00    +0.000 C 
ATOM      3  C   UNL     1       1.666   7.246  21.155  0.00  0.00    +0.000 C 
ATOM      4  N   UNL     1       1.584   8.218  20.045  0.00  0.00    +0.000 N 
ATOM      5  C   UNL     1       2.482   7.908  18.915  0.00  0.00    +0.000 C 
ATOM      6  C   UNL     1       2.151   6.507  18.386  0.00  0.00    +0.000 C 
ENDROOT
BRANCH   4   7
ATOM      7  C   UNL     1       0.719   9.302  20.010  0.00  0.00    +0.000 A 
ATOM      8  C   UNL     1       0.392   9.878  18.760  0.00  0.00    +0.000 A 
ATOM      9  C   UNL     1      -0.458  10.983  18.630  0.00  0.00    +0.000 A 
ATOM     10  C   UNL     1      -1.034  11.539  19.761  0.00  0.00    +0.000 A 
ATOM     11 CL   UNL     1      -2.080  12.895  19.608  0.00  0.00    +0.000 Cl
ATOM     12  C   UNL     1      -0.753  11.010  21.011  0.00  0.00    +0.000 A 
ATOM     13  C   UNL     1       0.122   9.915  21.139  0.00  0.00    +0.000 A 
ATOM     14 CL   UNL     1       0.498   9.473  22.775  0.00  0.00    +0.000 Cl
ENDBRANCH   4   7
BRANCH   1  16
ATOM     15  S   UNL     1       3.027   2.870  19.619  0.00  0.00    +0.000 S 
ATOM     16  C   UNL     1       3.338   4.514  19.401  0.00  0.00    +0.000 C 
BRANCH  16  17
ATOM     17  N   UNL     1       4.608   5.045  19.241  0.00  0.00    +0.000 N 
ATOM     18  C   UNL     1       5.496   4.833  18.175  0.00  0.00    +0.000 A 
ATOM     19  C   UNL     1       5.058   4.775  16.864  0.00  0.00    +0.000 A 
ATOM     20  C   UNL     1       5.988   4.514  15.872  0.00  0.00    +0.000 A 
ATOM     21 CL   UNL     1       5.473   4.393  14.233  0.00  0.00    +0.000 Cl
ATOM     22  C   UNL     1       7.325   4.342  16.189  0.00  0.00    +0.000 A 
ATOM     23  C   UNL     1       7.682   4.479  17.518  0.00  0.00    +0.000 A 
ATOM     24  N   UNL     1       6.801   4.744  18.512  0.00  0.00    +0.000 NA
ATOM     25  H   UNL     1       5.099   5.216  20.110  0.00  0.00    +0.000 HD
ENDBRANCH  16  17
ENDBRANCH   1  16
TORSDOF 3
ENDMDL
MODEL 3
REMARK VINA RESULT:      -7.6      4.393      8.483
REMARK  Name = 
REMARK  3 active torsions:
REMARK  status: ('A' for Active; 'I' for Inactive)
REMARK    1  A    between atoms: C_2  and  N_3
REMARK    2  A    between atoms: C_2  and  N_11
REMARK    3  A    between atoms: N_14  and  C_15
REMARK                            x       y       z     vdW  Elec       q    Type
REMARK                         _______ _______ _______ _____ _____    ______ ____
ROOT
ATOM      1  N   UNL     1       0.135  10.073  19.013  0.00  0.00    +0.000 N 
ATOM      2  C   UNL     1       0.678   9.351  17.840  0.00  0.00    +0.000 C 
ATOM      3  C   UNL     1       2.056   8.679  18.113  0.00  0.00    +0.000 C 
ATOM      4  N   UNL     1       2.077   7.972  19.409  0.00  0.00    +0.000 N 
ATOM      5  C   UNL     1       1.599   8.790  20.542  0.00  0.00    +0.000 C 
ATOM      6  C   UNL     1       0.170   9.261  20.246  0.00  0.00    +0.000 C 
ENDROOT
BRANCH   4   7
ATOM      7  C   UNL     1       2.456   6.648  19.578  0.00  0.00    +0.000 A 
ATOM      8  C   UNL     1       1.840   5.884  20.597  0.00  0.00    +0.000 A 
ATOM      9  C   UNL     1       2.170   4.547  20.850  0.00  0.00    +0.000 A 
ATOM     10  C   UNL     1       3.122   3.917  20.066  0.00  0.00    +0.000 A 
ATOM     11 CL   UNL     1       3.531   2.275  20.369  0.00  0.00    +0.000 Cl
ATOM     12  C   UNL     1       3.752   4.618  19.048  0.00  0.00    +0.000 A 
ATOM     13  C   UNL     1       3.436   5.969  18.814  0.00  0.00    +0.000 A 
ATOM     14 CL   UNL     1       4.422   6.749  17.617  0.00  0.00    +0.000 Cl
ENDBRANCH   4   7
BRANCH   1  16
ATOM     15  S   UNL     1       0.279  12.485  20.260  0.00  0.00    +0.000 S 
ATOM     16  C   UNL     1      -0.157  11.444  19.006  0.00  0.00    +0.000 C 
BRANCH  16  17
ATOM     17  N   UNL     1      -0.907  11.830  17.907  0.00  0.00    +0.000 N 
ATOM     18  C   UNL     1      -2.289  11.669  17.715  0.00  0.00    +0.000 A 
ATOM     19  C   UNL     1      -3.193  11.861  18.745  0.00  0.00    +0.000 A 
ATOM     20  C   UNL     1      -4.536  11.635  18.489  0.00  0.00    +0.000 A 
ATOM     21 CL   UNL     1      -5.686  11.824  19.757  0.00  0.00    +0.000 Cl
ATOM     22  C   UNL     1      -4.957  11.254  17.227  0.00  0.00    +0.000 A 
ATOM     23  C   UNL     1      -3.991  11.147  16.244  0.00  0.00    +0.000 A 
ATOM     24  N   UNL     1      -2.672  11.370  16.455  0.00  0.00    +0.000 NA
ATOM     25  H   UNL     1      -0.402  11.808  17.029  0.00  0.00    +0.000 HD
ENDBRANCH  16  17
ENDBRANCH   1  16
TORSDOF 3
ENDMDL
MODEL 4
REMARK VINA RESULT:      -7.3      1.386      1.799
REMARK  Name = 
REMARK  3 active torsions:
REMARK  status: ('A' for Active; 'I' for Inactive)
REMARK    1  A    between atoms: C_2  and  N_3
REMARK    2  A    between atoms: C_2  and  N_11
REMARK    3  A    between atoms: N_14  and  C_15
REMARK                            x       y       z     vdW  Elec       q    Type
REMARK                         _______ _______ _______ _____ _____    ______ ____
ROOT
ATOM      1  N   UNL     1       2.272   4.731  19.155  0.00  0.00    +0.000 N 
ATOM      2  C   UNL     1       1.532   5.167  20.361  0.00  0.00    +0.000 C 
ATOM      3  C   UNL     1       1.911   6.601  20.832  0.00  0.00    +0.000 C 
ATOM      4  N   UNL     1       1.981   7.552  19.703  0.00  0.00    +0.000 N 
ATOM      5  C   UNL     1       2.807   7.077  18.575  0.00  0.00    +0.000 C 
ATOM      6  C   UNL     1       2.245   5.740  18.077  0.00  0.00    +0.000 C 
ENDROOT
BRANCH   4   7
ATOM      7  C   UNL     1       1.306   8.763  19.651  0.00  0.00    +0.000 A 
ATOM      8  C   UNL     1       1.017   9.332  18.388  0.00  0.00    +0.000 A 
ATOM      9  C   UNL     1       0.355  10.557  18.239  0.00  0.00    +0.000 A 
ATOM     10  C   UNL     1      -0.065  11.248  19.363  0.00  0.00    +0.000 A 
ATOM     11 CL   UNL     1      -0.881  12.752  19.188  0.00  0.00    +0.000 Cl
ATOM     12  C   UNL     1       0.185  10.732  20.626  0.00  0.00    +0.000 A 
ATOM     13  C   UNL     1       0.874   9.514  20.771  0.00  0.00    +0.000 A 
ATOM     14 CL   UNL     1       1.251   9.083  22.410  0.00  0.00    +0.000 Cl
ENDBRANCH   4   7
BRANCH   1  16
ATOM     15  S   UNL     1       3.247   2.534  20.426  0.00  0.00    +0.000 S 
ATOM     16  C   UNL     1       3.097   3.599  19.125  0.00  0.00    +0.000 C 
BRANCH  16  17
ATOM     17  N   UNL     1       3.832   3.496  17.955  0.00  0.00    +0.000 N 
ATOM     18  C   UNL     1       4.931   4.278  17.564  0.00  0.00    +0.000 A 
ATOM     19  C   UNL     1       5.906   4.665  18.465  0.00  0.00    +0.000 A 
ATOM     20  C   UNL     1       6.933   5.477  18.013  0.00  0.00    +0.000 A 
ATOM     21 CL   UNL     1       8.143   6.012  19.116  0.00  0.00    +0.000 Cl
ATOM     22  C   UNL     1       6.990   5.865  16.685  0.00  0.00    +0.000 A 
ATOM     23  C   UNL     1       6.006   5.379  15.843  0.00  0.00    +0.000 A 
ATOM     24  N   UNL     1       4.994   4.577  16.248  0.00  0.00    +0.000 NA
ATOM     25  H   UNL     1       3.300   3.171  17.157  0.00  0.00    +0.000 HD
ENDBRANCH  16  17
ENDBRANCH   1  16
TORSDOF 3
ENDMDL
MODEL 5
REMARK VINA RESULT:      -7.3      3.552      5.443
REMARK  Name = 
REMARK  3 active torsions:
REMARK  status: ('A' for Active; 'I' for Inactive)
REMARK    1  A    between atoms: C_2  and  N_3
REMARK    2  A    between atoms: C_2  and  N_11
REMARK    3  A    between atoms: N_14  and  C_15
REMARK                            x       y       z     vdW  Elec       q    Type
REMARK                         _______ _______ _______ _____ _____    ______ ____
ROOT
ATOM      1  N   UNL     1       0.778   8.975  20.151  0.00  0.00    +0.000 N 
ATOM      2  C   UNL     1       0.263   8.688  21.509  0.00  0.00    +0.000 C 
ATOM      3  C   UNL     1       0.451   9.871  22.503  0.00  0.00    +0.000 C 
ATOM      4  N   UNL     1       0.074  11.165  21.897  0.00  0.00    +0.000 N 
ATOM      5  C   UNL     1       0.697  11.411  20.581  0.00  0.00    +0.000 C 
ATOM      6  C   UNL     1       0.309  10.274  19.628  0.00  0.00    +0.000 C 
ENDROOT
BRANCH   4   7
ATOM      7  C   UNL     1      -0.819  12.066  22.458  0.00  0.00    +0.000 A 
ATOM      8  C   UNL     1      -2.060  11.591  22.941  0.00  0.00    +0.000 A 
ATOM      9  C   UNL     1      -3.028  12.429  23.508  0.00  0.00    +0.000 A 
ATOM     10  C   UNL     1      -2.771  13.785  23.632  0.00  0.00    +0.000 A 
ATOM     11 CL   UNL     1      -3.954  14.820  24.329  0.00  0.00    +0.000 Cl
ATOM     12  C   UNL     1      -1.566  14.303  23.182  0.00  0.00    +0.000 A 
ATOM     13  C   UNL     1      -0.607  13.461  22.590  0.00  0.00    +0.000 A 
ATOM     14 CL   UNL     1       0.775  14.282  21.933  0.00  0.00    +0.000 Cl
ENDBRANCH   4   7
BRANCH   1  16
ATOM     15  S   UNL     1       2.284   8.477  17.942  0.00  0.00    +0.000 S 
ATOM     16  C   UNL     1       1.780   8.216  19.532  0.00  0.00    +0.000 C 
BRANCH  16  17
ATOM     17  N   UNL     1       2.249   7.185  20.331  0.00  0.00    +0.000 N 
ATOM     18  C   UNL     1       2.178   5.806  20.077  0.00  0.00    +0.000 A 
ATOM     19  C   UNL     1       2.388   5.288  18.812  0.00  0.00    +0.000 A 
ATOM     20  C   UNL     1       2.252   3.921  18.632  0.00  0.00    +0.000 A 
ATOM     21 CL   UNL     1       2.466   3.244  17.063  0.00  0.00    +0.000 Cl
ATOM     22  C   UNL     1       1.941   3.098  19.702  0.00  0.00    +0.000 A 
ATOM     23  C   UNL     1       1.811   3.697  20.941  0.00  0.00    +0.000 A 
ATOM     24  N   UNL     1       1.946   5.027  21.155  0.00  0.00    +0.000 NA
ATOM     25  H   UNL     1       2.228   7.386  21.323  0.00  0.00    +0.000 HD
ENDBRANCH  16  17
ENDBRANCH   1  16
TORSDOF 3
ENDMDL
MODEL 6
REMARK VINA RESULT:      -7.2      2.711      3.332
REMARK  Name = 
REMARK  3 active torsions:
REMARK  status: ('A' for Active; 'I' for Inactive)
REMARK    1  A    between atoms: C_2  and  N_3
REMARK    2  A    between atoms: C_2  and  N_11
REMARK    3  A    between atoms: N_14  and  C_15
REMARK                            x       y       z     vdW  Elec       q    Type
REMARK                         _______ _______ _______ _____ _____    ______ ____
ROOT
ATOM      1  N   UNL     1       4.478   6.057  17.927  0.00  0.00    +0.000 N 
ATOM      2  C   UNL     1       4.325   7.491  17.590  0.00  0.00    +0.000 C 
ATOM      3  C   UNL     1       2.851   7.987  17.667  0.00  0.00    +0.000 C 
ATOM      4  N   UNL     1       2.168   7.502  18.884  0.00  0.00    +0.000 N 
ATOM      5  C   UNL     1       2.300   6.048  19.101  0.00  0.00    +0.000 C 
ATOM      6  C   UNL     1       3.789   5.690  19.180  0.00  0.00    +0.000 C 
ENDROOT
BRANCH   4   7
ATOM      7  C   UNL     1       1.501   8.315  19.789  0.00  0.00    +0.000 A 
ATOM      8  C   UNL     1       1.633   8.053  21.172  0.00  0.00    +0.000 A 
ATOM      9  C   UNL     1       0.984   8.810  22.156  0.00  0.00    +0.000 A 
ATOM     10  C   UNL     1       0.190   9.881  21.781  0.00  0.00    +0.000 A 
ATOM     11 CL   UNL     1      -0.608  10.815  22.984  0.00  0.00    +0.000 Cl
ATOM     12  C   UNL     1       0.031  10.186  20.438  0.00  0.00    +0.000 A 
ATOM     13  C   UNL     1       0.664   9.407  19.453  0.00  0.00    +0.000 A 
ATOM     14 CL   UNL     1       0.238   9.815  17.820  0.00  0.00    +0.000 Cl
ENDBRANCH   4   7
BRANCH   1  16
ATOM     15  S   UNL     1       4.754   3.452  17.198  0.00  0.00    +0.000 S 
ATOM     16  C   UNL     1       5.013   5.112  17.041  0.00  0.00    +0.000 C 
BRANCH  16  17
ATOM     17  N   UNL     1       5.837   5.677  16.080  0.00  0.00    +0.000 N 
ATOM     18  C   UNL     1       6.183   5.142  14.829  0.00  0.00    +0.000 A 
ATOM     19  C   UNL     1       5.260   4.478  14.041  0.00  0.00    +0.000 A 
ATOM     20  C   UNL     1       5.691   3.936  12.841  0.00  0.00    +0.000 A 
ATOM     21 CL   UNL     1       4.580   3.067  11.853  0.00  0.00    +0.000 Cl
ATOM     22  C   UNL     1       7.007   4.082  12.435  0.00  0.00    +0.000 A 
ATOM     23  C   UNL     1       7.843   4.815  13.257  0.00  0.00    +0.000 A 
ATOM     24  N   UNL     1       7.454   5.367  14.431  0.00  0.00    +0.000 NA
ATOM     25  H   UNL     1       6.574   6.261  16.456  0.00  0.00    +0.000 HD
ENDBRANCH  16  17
ENDBRANCH   1  16
TORSDOF 3
ENDMDL
MODEL 7
REMARK VINA RESULT:      -7.2      2.255      3.177
REMARK  Name = 
REMARK  3 active torsions:
REMARK  status: ('A' for Active; 'I' for Inactive)
REMARK    1  A    between atoms: C_2  and  N_3
REMARK    2  A    between atoms: C_2  and  N_11
REMARK    3  A    between atoms: N_14  and  C_15
REMARK                            x       y       z     vdW  Elec       q    Type
REMARK                         _______ _______ _______ _____ _____    ______ ____
ROOT
ATOM      1  N   UNL     1       2.311   7.481  19.356  0.00  0.00    +0.000 N 
ATOM      2  C   UNL     1       2.447   8.323  18.147  0.00  0.00    +0.000 C 
ATOM      3  C   UNL     1       1.207   9.225  17.880  0.00  0.00    +0.000 C 
ATOM      4  N   UNL     1       0.730   9.886  19.113  0.00  0.00    +0.000 N 
ATOM      5  C   UNL     1       0.540   8.962  20.249  0.00  0.00    +0.000 C 
ATOM      6  C   UNL     1       1.867   8.249  20.537  0.00  0.00    +0.000 C 
ENDROOT
BRANCH   4   7
ATOM      7  C   UNL     1       0.520  11.251  19.243  0.00  0.00    +0.000 A 
ATOM      8  C   UNL     1       1.388  12.001  20.070  0.00  0.00    +0.000 A 
ATOM      9  C   UNL     1       1.243  13.379  20.274  0.00  0.00    +0.000 A 
ATOM     10  C   UNL     1       0.225  14.062  19.629  0.00  0.00    +0.000 A 
ATOM     11 CL   UNL     1       0.042  15.754  19.873  0.00  0.00    +0.000 Cl
ATOM     12  C   UNL     1      -0.650  13.376  18.801  0.00  0.00    +0.000 A 
ATOM     13  C   UNL     1      -0.516  11.988  18.620  0.00  0.00    +0.000 A 
ATOM     14 CL   UNL     1      -1.781  11.251  17.686  0.00  0.00    +0.000 Cl
ENDBRANCH   4   7
BRANCH   1  16
ATOM     15  S   UNL     1       1.787   5.111  20.584  0.00  0.00    +0.000 S 
ATOM     16  C   UNL     1       2.367   6.080  19.330  0.00  0.00    +0.000 C 
BRANCH  16  17
ATOM     17  N   UNL     1       3.018   5.587  18.211  0.00  0.00    +0.000 N 
ATOM     18  C   UNL     1       4.384   5.692  17.900  0.00  0.00    +0.000 A 
ATOM     19  C   UNL     1       5.363   5.556  18.868  0.00  0.00    +0.000 A 
ATOM     20  C   UNL     1       6.686   5.721  18.493  0.00  0.00    +0.000 A 
ATOM     21 CL   UNL     1       7.928   5.599  19.679  0.00  0.00    +0.000 Cl
ATOM     22  C   UNL     1       7.013   5.990  17.174  0.00  0.00    +0.000 A 
ATOM     23  C   UNL     1       5.974   6.047  16.264  0.00  0.00    +0.000 A 
ATOM     24  N   UNL     1       4.672   5.881  16.594  0.00  0.00    +0.000 NA
ATOM     25  H   UNL     1       2.445   5.555  17.376  0.00  0.00    +0.000 HD
ENDBRANCH  16  17
ENDBRANCH   1  16
TORSDOF 3
ENDMDL
MODEL 8
REMARK VINA RESULT:      -7.1      4.069      8.915
REMARK  Name = 
REMARK  3 active torsions:
REMARK  status: ('A' for Active; 'I' for Inactive)
REMARK    1  A    between atoms: C_2  and  N_3
REMARK    2  A    between atoms: C_2  and  N_11
REMARK    3  A    between atoms: N_14  and  C_15
REMARK                            x       y       z     vdW  Elec       q    Type
REMARK                         _______ _______ _______ _____ _____    ______ ____
ROOT
ATOM      1  N   UNL     1       0.150  10.190  19.716  0.00  0.00    +0.000 N 
ATOM      2  C   UNL     1       0.629   9.684  18.409  0.00  0.00    +0.000 C 
ATOM      3  C   UNL     1       1.952   8.870  18.510  0.00  0.00    +0.000 C 
ATOM      4  N   UNL     1       1.926   7.913  19.636  0.00  0.00    +0.000 N 
ATOM      5  C   UNL     1       1.519   8.516  20.921  0.00  0.00    +0.000 C 
ATOM      6  C   UNL     1       0.129   9.143  20.757  0.00  0.00    +0.000 C 
ENDROOT
BRANCH   4   7
ATOM      7  C   UNL     1       2.202   6.558  19.524  0.00  0.00    +0.000 A 
ATOM      8  C   UNL     1       1.598   5.659  20.434  0.00  0.00    +0.000 A 
ATOM      9  C   UNL     1       1.831   4.278  20.407  0.00  0.00    +0.000 A 
ATOM     10  C   UNL     1       2.667   3.745  19.440  0.00  0.00    +0.000 A 
ATOM     11 CL   UNL     1       2.955   2.050  19.400  0.00  0.00    +0.000 Cl
ATOM     12  C   UNL     1       3.280   4.580  18.519  0.00  0.00    +0.000 A 
ATOM     13  C   UNL     1       3.064   5.970  18.566  0.00  0.00    +0.000 A 
ATOM     14 CL   UNL     1       4.024   6.893  17.452  0.00  0.00    +0.000 Cl
ENDBRANCH   4   7
BRANCH   1  16
ATOM     15  S   UNL     1      -0.219  12.719  18.789  0.00  0.00    +0.000 S 
ATOM     16  C   UNL     1      -0.035  11.551  19.993  0.00  0.00    +0.000 C 
BRANCH  16  17
ATOM     17  N   UNL     1       0.032  11.841  21.346  0.00  0.00    +0.000 N 
ATOM     18  C   UNL     1      -0.924  12.513  22.125  0.00  0.00    +0.000 A 
ATOM     19  C   UNL     1      -2.280  12.298  21.958  0.00  0.00    +0.000 A 
ATOM     20  C   UNL     1      -3.162  13.036  22.731  0.00  0.00    +0.000 A 
ATOM     21 CL   UNL     1      -4.858  12.824  22.522  0.00  0.00    +0.000 Cl
ATOM     22  C   UNL     1      -2.689  13.944  23.663  0.00  0.00    +0.000 A 
ATOM     23  C   UNL     1      -1.318  14.048  23.805  0.00  0.00    +0.000 A 
ATOM     24  N   UNL     1      -0.428  13.336  23.074  0.00  0.00    +0.000 NA
ATOM     25  H   UNL     1       0.971  11.990  21.694  0.00  0.00    +0.000 HD
ENDBRANCH  16  17
ENDBRANCH   1  16
TORSDOF 3
ENDMDL
MODEL 9
REMARK VINA RESULT:      -7.1      5.919      9.432
REMARK  Name = 
REMARK  3 active torsions:
REMARK  status: ('A' for Active; 'I' for Inactive)
REMARK    1  A    between atoms: C_2  and  N_3
REMARK    2  A    between atoms: C_2  and  N_11
REMARK    3  A    between atoms: N_14  and  C_15
REMARK                            x       y       z     vdW  Elec       q    Type
REMARK                         _______ _______ _______ _____ _____    ______ ____
ROOT
ATOM      1  N   UNL     1      -0.631  13.290  20.654  0.00  0.00    +0.000 N 
ATOM      2  C   UNL     1      -1.453  12.185  20.111  0.00  0.00    +0.000 C 
ATOM      3  C   UNL     1      -0.768  11.426  18.937  0.00  0.00    +0.000 C 
ATOM      4  N   UNL     1       0.652  11.134  19.223  0.00  0.00    +0.000 N 
ATOM      5  C   UNL     1       1.421  12.308  19.679  0.00  0.00    +0.000 C 
ATOM      6  C   UNL     1       0.758  12.878  20.939  0.00  0.00    +0.000 C 
ENDROOT
BRANCH   4   7
ATOM      7  C   UNL     1       1.230   9.876  19.133  0.00  0.00    +0.000 A 
ATOM      8  C   UNL     1       1.841   9.488  17.918  0.00  0.00    +0.000 A 
ATOM      9  C   UNL     1       2.435   8.234  17.730  0.00  0.00    +0.000 A 
ATOM     10  C   UNL     1       2.456   7.325  18.775  0.00  0.00    +0.000 A 
ATOM     11 CL   UNL     1       3.185   5.784  18.553  0.00  0.00    +0.000 Cl
ATOM     12  C   UNL     1       1.878   7.656  19.991  0.00  0.00    +0.000 A 
ATOM     13  C   UNL     1       1.259   8.908  20.166  0.00  0.00    +0.000 A 
ATOM     14 CL   UNL     1       0.443   9.109  21.685  0.00  0.00    +0.000 Cl
ENDBRANCH   4   7
BRANCH   1  16
ATOM     15  S   UNL     1      -1.479  15.438  22.090  0.00  0.00    +0.000 S 
ATOM     16  C   UNL     1      -1.053  14.627  20.672  0.00  0.00    +0.000 C 
BRANCH  16  17
ATOM     17  N   UNL     1      -1.160  15.177  19.406  0.00  0.00    +0.000 N 
ATOM     18  C   UNL     1      -0.255  16.043  18.770  0.00  0.00    +0.000 A 
ATOM     19  C   UNL     1       1.113  15.874  18.880  0.00  0.00    +0.000 A 
ATOM     20  C   UNL     1       1.941  16.798  18.265  0.00  0.00    +0.000 A 
ATOM     21 CL   UNL     1       3.649  16.643  18.414  0.00  0.00    +0.000 Cl
ATOM     22  C   UNL     1       1.404  17.848  17.538  0.00  0.00    +0.000 A 
ATOM     23  C   UNL     1       0.027  17.902  17.430  0.00  0.00    +0.000 A 
ATOM     24  N   UNL     1      -0.811  17.011  18.010  0.00  0.00    +0.000 NA
ATOM     25  H   UNL     1      -2.112  15.341  19.102  0.00  0.00    +0.000 HD
ENDBRANCH  16  17
ENDBRANCH   1  16
TORSDOF 3
ENDMDL
