MODEL 1
REMARK VINA RESULT:      -7.9      0.000      0.000
REMARK  Name = 
REMARK  6 active torsions:
REMARK  status: ('A' for Active; 'I' for Inactive)
REMARK    1  A    between atoms: C_1  and  O_2
REMARK    2  A    between atoms: O_2  and  C_3
REMARK    3  A    between atoms: C_7  and  N_8
REMARK    4  A    between atoms: N_8  and  S_9
REMARK    5  A    between atoms: S_9  and  C_12
REMARK    6  A    between atoms: C_16  and  C_17
REMARK                            x       y       z     vdW  Elec       q    Type
REMARK                         _______ _______ _______ _____ _____    ______ ____
ROOT
ATOM      1  S   UNL     1       6.429   4.719  16.458  0.00  0.00    +0.000 S 
ATOM      2  O   UNL     1       5.704   6.012  16.858  0.00  0.00    +0.000 OA
ATOM      3  O   UNL     1       7.726   4.818  17.278  0.00  0.00    +0.000 OA
ENDROOT
BRANCH   1   4
ATOM      4  C   UNL     1       6.753   4.621  14.694  0.00  0.00    +0.000 A 
ATOM      5  C   UNL     1       7.707   5.444  14.087  0.00  0.00    +0.000 A 
ATOM      6  C   UNL     1       7.929   5.347  12.715  0.00  0.00    +0.000 A 
ATOM      7  C   UNL     1       7.205   4.434  11.943  0.00  0.00    +0.000 A 
ATOM      8  C   UNL     1       6.231   3.589  12.532  0.00  0.00    +0.000 A 
ATOM      9  C   UNL     1       6.026   3.711  13.926  0.00  0.00    +0.000 A 
BRANCH   8  10
ATOM     10  C   UNL     1       5.433   2.589  11.719  0.00  0.00    +0.000 C 
ATOM     11  N   UNL     1       5.890   1.410  11.454  0.00  0.00    +0.000 NA
ATOM     12  N   UNL     1       4.146   2.909  11.203  0.00  0.00    +0.000 N 
ATOM     13  H   UNL     1       6.800   1.050  11.759  0.00  0.00    +0.000 HD
ATOM     14  H   UNL     1       3.681   3.813  11.350  0.00  0.00    +0.000 HD
ATOM     15  H   UNL     1       3.627   2.209  10.653  0.00  0.00    +0.000 HD
ENDBRANCH   8  10
ENDBRANCH   1   4
BRANCH   1  16
ATOM     16  N   UNL     1       5.525   3.422  17.226  0.00  0.00    +0.000 N 
ATOM     17  H   UNL     1       5.578   2.554  16.675  0.00  0.00    +0.000 HD
BRANCH  16  22
ATOM     18  C   UNL     1       2.818   3.869  19.767  0.00  0.00    +0.000 A 
ATOM     19  C   UNL     1       1.733   4.148  18.929  0.00  0.00    +0.000 A 
ATOM     20  C   UNL     1       1.902   4.201  17.545  0.00  0.00    +0.000 A 
ATOM     21  C   UNL     1       3.159   3.969  16.981  0.00  0.00    +0.000 A 
ATOM     22  C   UNL     1       4.261   3.700  17.803  0.00  0.00    +0.000 A 
ATOM     23  C   UNL     1       4.093   3.657  19.195  0.00  0.00    +0.000 A 
BRANCH  18  25
ATOM     24  C   UNL     1       1.674   2.948  21.710  0.00  0.00    +0.000 C 
ATOM     25  O   UNL     1       2.588   3.783  21.102  0.00  0.00    +0.000 OA
ENDBRANCH  18  25
ENDBRANCH  16  22
ENDBRANCH   1  16
TORSDOF 5
ENDMDL
MODEL 2
REMARK VINA RESULT:      -7.8      4.076      5.417
REMARK  Name = 
REMARK  6 active torsions:
REMARK  status: ('A' for Active; 'I' for Inactive)
REMARK    1  A    between atoms: C_1  and  O_2
REMARK    2  A    between atoms: O_2  and  C_3
REMARK    3  A    between atoms: C_7  and  N_8
REMARK    4  A    between atoms: N_8  and  S_9
REMARK    5  A    between atoms: S_9  and  C_12
REMARK    6  A    between atoms: C_16  and  C_17
REMARK                            x       y       z     vdW  Elec       q    Type
REMARK                         _______ _______ _______ _____ _____    ______ ____
ROOT
ATOM      1  S   UNL     1       3.310   3.153  18.206  0.00  0.00    +0.000 S 
ATOM      2  O   UNL     1       3.505   1.732  18.756  0.00  0.00    +0.000 OA
ATOM      3  O   UNL     1       2.326   2.909  17.049  0.00  0.00    +0.000 OA
ENDROOT
BRANCH   1   4
ATOM      4  C   UNL     1       4.844   3.896  17.641  0.00  0.00    +0.000 A 
ATOM      5  C   UNL     1       5.229   3.829  16.299  0.00  0.00    +0.000 A 
ATOM      6  C   UNL     1       6.430   4.411  15.895  0.00  0.00    +0.000 A 
ATOM      7  C   UNL     1       7.249   5.060  16.823  0.00  0.00    +0.000 A 
ATOM      8  C   UNL     1       6.883   5.142  18.190  0.00  0.00    +0.000 A 
ATOM      9  C   UNL     1       5.662   4.541  18.570  0.00  0.00    +0.000 A 
BRANCH   8  10
ATOM     10  C   UNL     1       7.753   5.841  19.216  0.00  0.00    +0.000 C 
ATOM     11  N   UNL     1       7.953   5.341  20.391  0.00  0.00    +0.000 NA
ATOM     12  N   UNL     1       8.382   7.086  18.933  0.00  0.00    +0.000 N 
ATOM     13  H   UNL     1       7.560   4.457  20.728  0.00  0.00    +0.000 HD
ATOM     14  H   UNL     1       8.296   7.577  18.035  0.00  0.00    +0.000 HD
ATOM     15  H   UNL     1       8.966   7.538  19.650  0.00  0.00    +0.000 HD
ENDBRANCH   8  10
ENDBRANCH   1   4
BRANCH   1  16
ATOM     16  N   UNL     1       2.357   3.995  19.419  0.00  0.00    +0.000 N 
ATOM     17  H   UNL     1       1.474   3.500  19.608  0.00  0.00    +0.000 HD
BRANCH  16  22
ATOM     18  C   UNL     1       1.730   7.532  20.455  0.00  0.00    +0.000 A 
ATOM     19  C   UNL     1       1.983   8.195  19.248  0.00  0.00    +0.000 A 
ATOM     20  C   UNL     1       2.369   7.478  18.115  0.00  0.00    +0.000 A 
ATOM     21  C   UNL     1       2.501   6.088  18.173  0.00  0.00    +0.000 A 
ATOM     22  C   UNL     1       2.265   5.408  19.375  0.00  0.00    +0.000 A 
ATOM     23  C   UNL     1       1.887   6.129  20.517  0.00  0.00    +0.000 A 
BRANCH  18  25
ATOM     24  C   UNL     1       0.945   9.601  21.473  0.00  0.00    +0.000 C 
ATOM     25  O   UNL     1       1.312   8.273  21.514  0.00  0.00    +0.000 OA
ENDBRANCH  18  25
ENDBRANCH  16  22
ENDBRANCH   1  16
TORSDOF 5
ENDMDL
MODEL 3
REMARK VINA RESULT:      -7.8      2.655      6.792
REMARK  Name = 
REMARK  6 active torsions:
REMARK  status: ('A' for Active; 'I' for Inactive)
REMARK    1  A    between atoms: C_1  and  O_2
REMARK    2  A    between atoms: O_2  and  C_3
REMARK    3  A    between atoms: C_7  and  N_8
REMARK    4  A    between atoms: N_8  and  S_9
REMARK    5  A    between atoms: S_9  and  C_12
REMARK    6  A    between atoms: C_16  and  C_17
REMARK                            x       y       z     vdW  Elec       q    Type
REMARK                         _______ _______ _______ _____ _____    ______ ____
ROOT
ATOM      1  S   UNL     1       5.600   6.179  16.347  0.00  0.00    +0.000 S 
ATOM      2  O   UNL     1       6.416   7.269  17.057  0.00  0.00    +0.000 OA
ATOM      3  O   UNL     1       5.122   6.916  15.084  0.00  0.00    +0.000 OA
ENDROOT
BRANCH   1   4
ATOM      4  C   UNL     1       4.227   5.581  17.338  0.00  0.00    +0.000 A 
ATOM      5  C   UNL     1       3.381   6.467  18.011  0.00  0.00    +0.000 A 
ATOM      6  C   UNL     1       2.329   5.969  18.777  0.00  0.00    +0.000 A 
ATOM      7  C   UNL     1       2.116   4.591  18.877  0.00  0.00    +0.000 A 
ATOM      8  C   UNL     1       2.959   3.671  18.206  0.00  0.00    +0.000 A 
ATOM      9  C   UNL     1       4.019   4.205  17.438  0.00  0.00    +0.000 A 
BRANCH   8  10
ATOM     10  C   UNL     1       2.749   2.172  18.296  0.00  0.00    +0.000 C 
ATOM     11  N   UNL     1       3.703   1.336  18.050  0.00  0.00    +0.000 NA
ATOM     12  N   UNL     1       1.486   1.618  18.648  0.00  0.00    +0.000 N 
ATOM     13  H   UNL     1       4.658   1.596  17.783  0.00  0.00    +0.000 HD
ATOM     14  H   UNL     1       0.657   2.183  18.866  0.00  0.00    +0.000 HD
ATOM     15  H   UNL     1       1.373   0.596  18.701  0.00  0.00    +0.000 HD
ENDBRANCH   8  10
ENDBRANCH   1   4
BRANCH   1  16
ATOM     16  N   UNL     1       6.784   5.023  15.754  0.00  0.00    +0.000 N 
ATOM     17  H   UNL     1       7.690   5.142  16.228  0.00  0.00    +0.000 HD
BRANCH  16  22
ATOM     18  C   UNL     1       6.175   3.425  12.429  0.00  0.00    +0.000 A 
ATOM     19  C   UNL     1       7.081   4.141  11.638  0.00  0.00    +0.000 A 
ATOM     20  C   UNL     1       7.870   5.146  12.198  0.00  0.00    +0.000 A 
ATOM     21  C   UNL     1       7.766   5.444  13.560  0.00  0.00    +0.000 A 
ATOM     22  C   UNL     1       6.855   4.748  14.366  0.00  0.00    +0.000 A 
ATOM     23  C   UNL     1       6.055   3.745  13.800  0.00  0.00    +0.000 A 
BRANCH  18  25
ATOM     24  C   UNL     1       6.000   1.310  11.234  0.00  0.00    +0.000 C 
ATOM     25  O   UNL     1       5.466   2.426  11.842  0.00  0.00    +0.000 OA
ENDBRANCH  18  25
ENDBRANCH  16  22
ENDBRANCH   1  16
TORSDOF 5
ENDMDL
MODEL 4
REMARK VINA RESULT:      -7.7      3.105      4.518
REMARK  Name = 
REMARK  6 active torsions:
REMARK  status: ('A' for Active; 'I' for Inactive)
REMARK    1  A    between atoms: C_1  and  O_2
REMARK    2  A    between atoms: O_2  and  C_3
REMARK    3  A    between atoms: C_7  and  N_8
REMARK    4  A    between atoms: N_8  and  S_9
REMARK    5  A    between atoms: S_9  and  C_12
REMARK    6  A    between atoms: C_16  and  C_17
REMARK                            x       y       z     vdW  Elec       q    Type
REMARK                         _______ _______ _______ _____ _____    ______ ____
ROOT
ATOM      1  S   UNL     1       3.882   3.045  18.714  0.00  0.00    +0.000 S 
ATOM      2  O   UNL     1       4.211   2.494  20.109  0.00  0.00    +0.000 OA
ATOM      3  O   UNL     1       3.683   1.752  17.905  0.00  0.00    +0.000 OA
ENDROOT
BRANCH   1   4
ATOM      4  C   UNL     1       5.198   4.065  18.041  0.00  0.00    +0.000 A 
ATOM      5  C   UNL     1       5.901   4.964  18.848  0.00  0.00    +0.000 A 
ATOM      6  C   UNL     1       6.912   5.746  18.292  0.00  0.00    +0.000 A 
ATOM      7  C   UNL     1       7.226   5.636  16.935  0.00  0.00    +0.000 A 
ATOM      8  C   UNL     1       6.528   4.734  16.093  0.00  0.00    +0.000 A 
ATOM      9  C   UNL     1       5.507   3.955  16.685  0.00  0.00    +0.000 A 
BRANCH   8  10
ATOM     10  C   UNL     1       6.850   4.594  14.618  0.00  0.00    +0.000 C 
ATOM     11  N   UNL     1       6.344   3.647  13.899  0.00  0.00    +0.000 NA
ATOM     12  N   UNL     1       7.731   5.498  13.961  0.00  0.00    +0.000 N 
ATOM     13  H   UNL     1       5.699   2.928  14.243  0.00  0.00    +0.000 HD
ATOM     14  H   UNL     1       8.191   6.288  14.429  0.00  0.00    +0.000 HD
ATOM     15  H   UNL     1       7.932   5.378  12.958  0.00  0.00    +0.000 HD
ENDBRANCH   8  10
ENDBRANCH   1   4
BRANCH   1  16
ATOM     16  N   UNL     1       2.267   3.725  18.851  0.00  0.00    +0.000 N 
ATOM     17  H   UNL     1       1.659   3.397  18.088  0.00  0.00    +0.000 HD
BRANCH  16  22
ATOM     18  C   UNL     1       2.249   7.458  18.636  0.00  0.00    +0.000 A 
ATOM     19  C   UNL     1       1.912   7.783  19.955  0.00  0.00    +0.000 A 
ATOM     20  C   UNL     1       1.681   6.778  20.895  0.00  0.00    +0.000 A 
ATOM     21  C   UNL     1       1.791   5.434  20.528  0.00  0.00    +0.000 A 
ATOM     22  C   UNL     1       2.114   5.088  19.209  0.00  0.00    +0.000 A 
ATOM     23  C   UNL     1       2.336   6.098  18.262  0.00  0.00    +0.000 A 
BRANCH  18  25
ATOM     24  C   UNL     1       2.022   9.762  17.877  0.00  0.00    +0.000 C 
ATOM     25  O   UNL     1       2.508   8.476  17.775  0.00  0.00    +0.000 OA
ENDBRANCH  18  25
ENDBRANCH  16  22
ENDBRANCH   1  16
TORSDOF 5
ENDMDL
MODEL 5
REMARK VINA RESULT:      -7.7      3.178      4.347
REMARK  Name = 
REMARK  6 active torsions:
REMARK  status: ('A' for Active; 'I' for Inactive)
REMARK    1  A    between atoms: C_1  and  O_2
REMARK    2  A    between atoms: O_2  and  C_3
REMARK    3  A    between atoms: C_7  and  N_8
REMARK    4  A    between atoms: N_8  and  S_9
REMARK    5  A    between atoms: S_9  and  C_12
REMARK    6  A    between atoms: C_16  and  C_17
REMARK                            x       y       z     vdW  Elec       q    Type
REMARK                         _______ _______ _______ _____ _____    ______ ____
ROOT
ATOM      1  S   UNL     1       3.750   3.084  18.853  0.00  0.00    +0.000 S 
ATOM      2  O   UNL     1       4.128   2.278  20.103  0.00  0.00    +0.000 OA
ATOM      3  O   UNL     1       3.315   1.974  17.882  0.00  0.00    +0.000 OA
ENDROOT
BRANCH   1   4
ATOM      4  C   UNL     1       5.120   4.046  18.204  0.00  0.00    +0.000 A 
ATOM      5  C   UNL     1       5.869   4.887  19.032  0.00  0.00    +0.000 A 
ATOM      6  C   UNL     1       6.923   5.625  18.495  0.00  0.00    +0.000 A 
ATOM      7  C   UNL     1       7.234   5.529  17.136  0.00  0.00    +0.000 A 
ATOM      8  C   UNL     1       6.490   4.685  16.274  0.00  0.00    +0.000 A 
ATOM      9  C   UNL     1       5.427   3.950  16.846  0.00  0.00    +0.000 A 
BRANCH   8  10
ATOM     10  C   UNL     1       6.808   4.561  14.797  0.00  0.00    +0.000 C 
ATOM     11  N   UNL     1       6.314   3.611  14.073  0.00  0.00    +0.000 NA
ATOM     12  N   UNL     1       7.670   5.484  14.141  0.00  0.00    +0.000 N 
ATOM     13  H   UNL     1       5.684   2.878  14.415  0.00  0.00    +0.000 HD
ATOM     14  H   UNL     1       8.118   6.279  14.613  0.00  0.00    +0.000 HD
ATOM     15  H   UNL     1       7.868   5.375  13.137  0.00  0.00    +0.000 HD
ENDBRANCH   8  10
ENDBRANCH   1   4
BRANCH   1  16
ATOM     16  N   UNL     1       2.255   3.911  19.267  0.00  0.00    +0.000 N 
ATOM     17  H   UNL     1       1.442   3.447  18.838  0.00  0.00    +0.000 HD
BRANCH  16  22
ATOM     18  C   UNL     1       1.733   7.438  20.395  0.00  0.00    +0.000 A 
ATOM     19  C   UNL     1       2.048   8.126  19.218  0.00  0.00    +0.000 A 
ATOM     20  C   UNL     1       2.441   7.430  18.075  0.00  0.00    +0.000 A 
ATOM     21  C   UNL     1       2.517   6.034  18.092  0.00  0.00    +0.000 A 
ATOM     22  C   UNL     1       2.219   5.328  19.265  0.00  0.00    +0.000 A 
ATOM     23  C   UNL     1       1.834   6.028  20.417  0.00  0.00    +0.000 A 
BRANCH  18  25
ATOM     24  C   UNL     1       0.091   8.795  21.577  0.00  0.00    +0.000 C 
ATOM     25  O   UNL     1       1.311   8.161  21.464  0.00  0.00    +0.000 OA
ENDBRANCH  18  25
ENDBRANCH  16  22
ENDBRANCH   1  16
TORSDOF 5
ENDMDL
MODEL 6
REMARK VINA RESULT:      -7.6      3.919      5.476
REMARK  Name = 
REMARK  6 active torsions:
REMARK  status: ('A' for Active; 'I' for Inactive)
REMARK    1  A    between atoms: C_1  and  O_2
REMARK    2  A    between atoms: O_2  and  C_3
REMARK    3  A    between atoms: C_7  and  N_8
REMARK    4  A    between atoms: N_8  and  S_9
REMARK    5  A    between atoms: S_9  and  C_12
REMARK    6  A    between atoms: C_16  and  C_17
REMARK                            x       y       z     vdW  Elec       q    Type
REMARK                         _______ _______ _______ _____ _____    ______ ____
ROOT
ATOM      1  S   UNL     1       3.407   3.147  17.844  0.00  0.00    +0.000 S 
ATOM      2  O   UNL     1       3.555   1.624  17.971  0.00  0.00    +0.000 OA
ATOM      3  O   UNL     1       2.322   3.268  16.761  0.00  0.00    +0.000 OA
ENDROOT
BRANCH   1   4
ATOM      4  C   UNL     1       4.936   3.955  17.360  0.00  0.00    +0.000 A 
ATOM      5  C   UNL     1       5.362   3.959  16.029  0.00  0.00    +0.000 A 
ATOM      6  C   UNL     1       6.557   4.590  15.688  0.00  0.00    +0.000 A 
ATOM      7  C   UNL     1       7.330   5.218  16.668  0.00  0.00    +0.000 A 
ATOM      8  C   UNL     1       6.923   5.228  18.026  0.00  0.00    +0.000 A 
ATOM      9  C   UNL     1       5.708   4.579  18.341  0.00  0.00    +0.000 A 
BRANCH   8  10
ATOM     10  C   UNL     1       7.742   5.903  19.108  0.00  0.00    +0.000 C 
ATOM     11  N   UNL     1       7.891   5.373  20.277  0.00  0.00    +0.000 NA
ATOM     12  N   UNL     1       8.379   7.156  18.886  0.00  0.00    +0.000 N 
ATOM     13  H   UNL     1       7.487   4.479  20.573  0.00  0.00    +0.000 HD
ATOM     14  H   UNL     1       8.332   7.670  17.998  0.00  0.00    +0.000 HD
ATOM     15  H   UNL     1       8.928   7.591  19.640  0.00  0.00    +0.000 HD
ENDBRANCH   8  10
ENDBRANCH   1   4
BRANCH   1  16
ATOM     16  N   UNL     1       2.608   3.662  19.322  0.00  0.00    +0.000 N 
ATOM     17  H   UNL     1       1.859   3.007  19.588  0.00  0.00    +0.000 HD
BRANCH  16  22
ATOM     18  C   UNL     1       2.301   7.334  18.689  0.00  0.00    +0.000 A 
ATOM     19  C   UNL     1       1.822   7.763  19.932  0.00  0.00    +0.000 A 
ATOM     20  C   UNL     1       1.592   6.845  20.957  0.00  0.00    +0.000 A 
ATOM     21  C   UNL     1       1.844   5.486  20.753  0.00  0.00    +0.000 A 
ATOM     22  C   UNL     1       2.311   5.035  19.511  0.00  0.00    +0.000 A 
ATOM     23  C   UNL     1       2.532   5.956  18.478  0.00  0.00    +0.000 A 
BRANCH  18  25
ATOM     24  C   UNL     1       2.080   9.572  17.751  0.00  0.00    +0.000 C 
ATOM     25  O   UNL     1       2.551   8.276  17.743  0.00  0.00    +0.000 OA
ENDBRANCH  18  25
ENDBRANCH  16  22
ENDBRANCH   1  16
TORSDOF 5
ENDMDL
MODEL 7
REMARK VINA RESULT:      -7.6      2.737      6.761
REMARK  Name = 
REMARK  6 active torsions:
REMARK  status: ('A' for Active; 'I' for Inactive)
REMARK    1  A    between atoms: C_1  and  O_2
REMARK    2  A    between atoms: O_2  and  C_3
REMARK    3  A    between atoms: C_7  and  N_8
REMARK    4  A    between atoms: N_8  and  S_9
REMARK    5  A    between atoms: S_9  and  C_12
REMARK    6  A    between atoms: C_16  and  C_17
REMARK                            x       y       z     vdW  Elec       q    Type
REMARK                         _______ _______ _______ _____ _____    ______ ____
ROOT
ATOM      1  S   UNL     1       5.838   6.254  16.517  0.00  0.00    +0.000 S 
ATOM      2  O   UNL     1       6.517   7.339  17.365  0.00  0.00    +0.000 OA
ATOM      3  O   UNL     1       5.246   7.082  15.364  0.00  0.00    +0.000 OA
ENDROOT
BRANCH   1   4
ATOM      4  C   UNL     1       4.573   5.357  17.421  0.00  0.00    +0.000 A 
ATOM      5  C   UNL     1       3.322   5.927  17.674  0.00  0.00    +0.000 A 
ATOM      6  C   UNL     1       2.365   5.205  18.385  0.00  0.00    +0.000 A 
ATOM      7  C   UNL     1       2.648   3.916  18.844  0.00  0.00    +0.000 A 
ATOM      8  C   UNL     1       3.908   3.313  18.603  0.00  0.00    +0.000 A 
ATOM      9  C   UNL     1       4.859   4.071  17.881  0.00  0.00    +0.000 A 
BRANCH   8  10
ATOM     10  C   UNL     1       4.241   1.916  19.088  0.00  0.00    +0.000 C 
ATOM     11  N   UNL     1       3.792   0.864  18.488  0.00  0.00    +0.000 NA
ATOM     12  N   UNL     1       5.058   1.702  20.234  0.00  0.00    +0.000 N 
ATOM     13  H   UNL     1       3.192   0.872  17.657  0.00  0.00    +0.000 HD
ATOM     14  H   UNL     1       5.472   2.461  20.789  0.00  0.00    +0.000 HD
ATOM     15  H   UNL     1       5.267   0.742  20.541  0.00  0.00    +0.000 HD
ENDBRANCH   8  10
ENDBRANCH   1   4
BRANCH   1  16
ATOM     16  N   UNL     1       7.152   5.352  15.776  0.00  0.00    +0.000 N 
ATOM     17  H   UNL     1       8.068   5.711  16.079  0.00  0.00    +0.000 HD
BRANCH  16  22
ATOM     18  C   UNL     1       6.052   3.651  12.633  0.00  0.00    +0.000 A 
ATOM     19  C   UNL     1       6.965   4.194  11.722  0.00  0.00    +0.000 A 
ATOM     20  C   UNL     1       7.919   5.120  12.143  0.00  0.00    +0.000 A 
ATOM     21  C   UNL     1       7.976   5.511  13.484  0.00  0.00    +0.000 A 
ATOM     22  C   UNL     1       7.063   4.988  14.409  0.00  0.00    +0.000 A 
ATOM     23  C   UNL     1       6.097   4.065  13.984  0.00  0.00    +0.000 A 
BRANCH  18  25
ATOM     24  C   UNL     1       4.195   2.928  11.231  0.00  0.00    +0.000 C 
ATOM     25  O   UNL     1       5.175   2.719  12.179  0.00  0.00    +0.000 OA
ENDBRANCH  18  25
ENDBRANCH  16  22
ENDBRANCH   1  16
TORSDOF 5
ENDMDL
MODEL 8
REMARK VINA RESULT:      -7.5      1.577      2.118
REMARK  Name = 
REMARK  6 active torsions:
REMARK  status: ('A' for Active; 'I' for Inactive)
REMARK    1  A    between atoms: C_1  and  O_2
REMARK    2  A    between atoms: O_2  and  C_3
REMARK    3  A    between atoms: C_7  and  N_8
REMARK    4  A    between atoms: N_8  and  S_9
REMARK    5  A    between atoms: S_9  and  C_12
REMARK    6  A    between atoms: C_16  and  C_17
REMARK                            x       y       z     vdW  Elec       q    Type
REMARK                         _______ _______ _______ _____ _____    ______ ____
ROOT
ATOM      1  S   UNL     1       6.840   4.660  16.444  0.00  0.00    +0.000 S 
ATOM      2  O   UNL     1       6.662   6.083  16.993  0.00  0.00    +0.000 OA
ATOM      3  O   UNL     1       8.134   4.213  17.144  0.00  0.00    +0.000 OA
ENDROOT
BRANCH   1   4
ATOM      4  C   UNL     1       6.993   4.620  14.655  0.00  0.00    +0.000 A 
ATOM      5  C   UNL     1       7.877   5.469  13.986  0.00  0.00    +0.000 A 
ATOM      6  C   UNL     1       7.967   5.417  12.596  0.00  0.00    +0.000 A 
ATOM      7  C   UNL     1       7.178   4.520  11.870  0.00  0.00    +0.000 A 
ATOM      8  C   UNL     1       6.272   3.648  12.523  0.00  0.00    +0.000 A 
ATOM      9  C   UNL     1       6.202   3.725  13.933  0.00  0.00    +0.000 A 
BRANCH   8  10
ATOM     10  C   UNL     1       5.407   2.665  11.760  0.00  0.00    +0.000 C 
ATOM     11  N   UNL     1       4.218   2.974  11.359  0.00  0.00    +0.000 NA
ATOM     12  N   UNL     1       5.864   1.351  11.456  0.00  0.00    +0.000 N 
ATOM     13  H   UNL     1       3.764   3.880  11.511  0.00  0.00    +0.000 HD
ATOM     14  H   UNL     1       6.790   0.994  11.722  0.00  0.00    +0.000 HD
ATOM     15  H   UNL     1       5.254   0.705  10.936  0.00  0.00    +0.000 HD
ENDBRANCH   8  10
ENDBRANCH   1   4
BRANCH   1  16
ATOM     16  N   UNL     1       5.578   3.704  17.209  0.00  0.00    +0.000 N 
ATOM     17  H   UNL     1       5.568   2.742  16.844  0.00  0.00    +0.000 HD
BRANCH  16  22
ATOM     18  C   UNL     1       2.933   6.187  18.112  0.00  0.00    +0.000 A 
ATOM     19  C   UNL     1       1.789   5.392  17.981  0.00  0.00    +0.000 A 
ATOM     20  C   UNL     1       1.895   4.058  17.586  0.00  0.00    +0.000 A 
ATOM     21  C   UNL     1       3.149   3.501  17.322  0.00  0.00    +0.000 A 
ATOM     22  C   UNL     1       4.305   4.284  17.434  0.00  0.00    +0.000 A 
ATOM     23  C   UNL     1       4.198   5.628  17.822  0.00  0.00    +0.000 A 
BRANCH  18  25
ATOM     24  C   UNL     1       1.991   8.428  17.947  0.00  0.00    +0.000 C 
ATOM     25  O   UNL     1       2.775   7.465  18.546  0.00  0.00    +0.000 OA
ENDBRANCH  18  25
ENDBRANCH  16  22
ENDBRANCH   1  16
TORSDOF 5
ENDMDL
MODEL 9
REMARK VINA RESULT:      -7.5      4.653      6.213
REMARK  Name = 
REMARK  6 active torsions:
REMARK  status: ('A' for Active; 'I' for Inactive)
REMARK    1  A    between atoms: C_1  and  O_2
REMARK    2  A    between atoms: O_2  and  C_3
REMARK    3  A    between atoms: C_7  and  N_8
REMARK    4  A    between atoms: N_8  and  S_9
REMARK    5  A    between atoms: S_9  and  C_12
REMARK    6  A    between atoms: C_16  and  C_17
REMARK                            x       y       z     vdW  Elec       q    Type
REMARK                         _______ _______ _______ _____ _____    ______ ____
ROOT
ATOM      1  S   UNL     1       2.775   4.407  19.667  0.00  0.00    +0.000 S 
ATOM      2  O   UNL     1       2.845   3.242  20.665  0.00  0.00    +0.000 OA
ATOM      3  O   UNL     1       1.583   3.996  18.787  0.00  0.00    +0.000 OA
ENDROOT
BRANCH   1   4
ATOM      4  C   UNL     1       4.285   4.596  18.713  0.00  0.00    +0.000 A 
ATOM      5  C   UNL     1       4.349   4.197  17.375  0.00  0.00    +0.000 A 
ATOM      6  C   UNL     1       5.539   4.352  16.665  0.00  0.00    +0.000 A 
ATOM      7  C   UNL     1       6.665   4.902  17.283  0.00  0.00    +0.000 A 
ATOM      8  C   UNL     1       6.628   5.314  18.639  0.00  0.00    +0.000 A 
ATOM      9  C   UNL     1       5.409   5.143  19.333  0.00  0.00    +0.000 A 
BRANCH   8  10
ATOM     10  C   UNL     1       7.834   5.915  19.332  0.00  0.00    +0.000 C 
ATOM     11  N   UNL     1       8.377   5.352  20.361  0.00  0.00    +0.000 NA
ATOM     12  N   UNL     1       8.419   7.133  18.884  0.00  0.00    +0.000 N 
ATOM     13  H   UNL     1       8.058   4.478  20.790  0.00  0.00    +0.000 HD
ATOM     14  H   UNL     1       8.075   7.667  18.077  0.00  0.00    +0.000 HD
ATOM     15  H   UNL     1       9.238   7.518  19.375  0.00  0.00    +0.000 HD
ENDBRANCH   8  10
ENDBRANCH   1   4
BRANCH   1  16
ATOM     16  N   UNL     1       2.180   5.778  20.593  0.00  0.00    +0.000 N 
ATOM     17  H   UNL     1       1.431   5.494  21.239  0.00  0.00    +0.000 HD
BRANCH  16  22
ATOM     18  C   UNL     1       1.174   9.327  19.980  0.00  0.00    +0.000 A 
ATOM     19  C   UNL     1       1.511   9.452  18.627  0.00  0.00    +0.000 A 
ATOM     20  C   UNL     1       2.075   8.379  17.936  0.00  0.00    +0.000 A 
ATOM     21  C   UNL     1       2.305   7.165  18.588  0.00  0.00    +0.000 A 
ATOM     22  C   UNL     1       1.987   7.024  19.946  0.00  0.00    +0.000 A 
ATOM     23  C   UNL     1       1.429   8.105  20.643  0.00  0.00    +0.000 A 
BRANCH  18  25
ATOM     24  C   UNL     1      -0.126  10.342  21.772  0.00  0.00    +0.000 C 
ATOM     25  O   UNL     1       0.584  10.386  20.591  0.00  0.00    +0.000 OA
ENDBRANCH  18  25
ENDBRANCH  16  22
ENDBRANCH   1  16
TORSDOF 5
ENDMDL
