MODEL 1
REMARK VINA RESULT:      -6.2      0.000      0.000
REMARK  Name = 
REMARK  4 active torsions:
REMARK  status: ('A' for Active; 'I' for Inactive)
REMARK    1  A    between atoms: C_1  and  C_2
REMARK    2  A    between atoms: N_6  and  C_7
REMARK    3  A    between atoms: C_7  and  C_8
REMARK    4  A    between atoms: N_10  and  C_11
REMARK                            x       y       z     vdW  Elec       q    Type
REMARK                         _______ _______ _______ _____ _____    ______ ____
ROOT
ATOM      1  C   UNL     1       3.734   6.210  18.433  0.00  0.00    +0.000 C 
ATOM      2  O   UNL     1       3.339   6.983  17.561  0.00  0.00    +0.000 OA
ATOM      3  N   UNL     1       4.717   5.251  18.238  0.00  0.00    +0.000 N 
ATOM      4  H   UNL     1       4.565   4.347  18.685  0.00  0.00    +0.000 HD
ENDROOT
BRANCH   3   5
ATOM      5  C   UNL     1       5.450   5.169  17.014  0.00  0.00    +0.000 A 
ATOM      6  C   UNL     1       6.614   5.916  16.753  0.00  0.00    +0.000 A 
ATOM      7 CL   UNL     1       7.391   6.883  17.966  0.00  0.00    +0.000 Cl
ATOM      8  C   UNL     1       7.275   5.795  15.526  0.00  0.00    +0.000 A 
ATOM      9  C   UNL     1       6.790   4.917  14.560  0.00  0.00    +0.000 A 
ATOM     10 CL   UNL     1       7.614   4.765  13.058  0.00  0.00    +0.000 Cl
ATOM     11  C   UNL     1       5.661   4.143  14.807  0.00  0.00    +0.000 A 
ATOM     12  C   UNL     1       5.006   4.262  16.032  0.00  0.00    +0.000 A 
ATOM     13 CL   UNL     1       3.590   3.301  16.302  0.00  0.00    +0.000 Cl
ENDBRANCH   3   5
BRANCH   1  14
ATOM     14  C   UNL     1       3.105   6.222  19.813  0.00  0.00    +0.000 C 
BRANCH  14  20
ATOM     15  C   UNL     1       0.472   2.192  18.613  0.00  0.00    +0.000 C 
ATOM     16  C   UNL     1       1.237   2.976  19.639  0.00  0.00    +0.000 A 
ATOM     17  C   UNL     1       1.334   2.529  20.955  0.00  0.00    +0.000 A 
ATOM     18  C   UNL     1       2.027   3.291  21.886  0.00  0.00    +0.000 A 
ATOM     19  C   UNL     1       2.607   4.490  21.494  0.00  0.00    +0.000 A 
ATOM     20  N   UNL     1       2.529   4.913  20.207  0.00  0.00    +0.000 N 
ATOM     21  C   UNL     1       1.864   4.172  19.288  0.00  0.00    +0.000 A 
ENDBRANCH  14  20
ENDBRANCH   1  14
TORSDOF 3
ENDMDL
MODEL 2
REMARK VINA RESULT:      -6.2      2.953      6.519
REMARK  Name = 
REMARK  4 active torsions:
REMARK  status: ('A' for Active; 'I' for Inactive)
REMARK    1  A    between atoms: C_1  and  C_2
REMARK    2  A    between atoms: N_6  and  C_7
REMARK    3  A    between atoms: C_7  and  C_8
REMARK    4  A    between atoms: N_10  and  C_11
REMARK                            x       y       z     vdW  Elec       q    Type
REMARK                         _______ _______ _______ _____ _____    ______ ____
ROOT
ATOM      1  C   UNL     1       4.391   4.713  18.835  0.00  0.00    +0.000 C 
ATOM      2  O   UNL     1       5.086   5.210  19.720  0.00  0.00    +0.000 OA
ATOM      3  N   UNL     1       3.069   5.057  18.595  0.00  0.00    +0.000 N 
ATOM      4  H   UNL     1       2.436   4.293  18.360  0.00  0.00    +0.000 HD
ENDROOT
BRANCH   3   5
ATOM      5  C   UNL     1       2.436   6.129  19.297  0.00  0.00    +0.000 A 
ATOM      6  C   UNL     1       2.455   7.466  18.855  0.00  0.00    +0.000 A 
ATOM      7 CL   UNL     1       3.094   7.927  17.310  0.00  0.00    +0.000 Cl
ATOM      8  C   UNL     1       1.824   8.468  19.600  0.00  0.00    +0.000 A 
ATOM      9  C   UNL     1       1.157   8.142  20.778  0.00  0.00    +0.000 A 
ATOM     10 CL   UNL     1       0.373   9.378  21.682  0.00  0.00    +0.000 Cl
ATOM     11  C   UNL     1       1.094   6.824  21.216  0.00  0.00    +0.000 A 
ATOM     12  C   UNL     1       1.721   5.825  20.472  0.00  0.00    +0.000 A 
ATOM     13 CL   UNL     1       1.644   4.196  21.056  0.00  0.00    +0.000 Cl
ENDBRANCH   3   5
BRANCH   1  14
ATOM     14  C   UNL     1       4.943   3.610  17.953  0.00  0.00    +0.000 C 
BRANCH  14  20
ATOM     15  C   UNL     1       5.603   3.590  13.035  0.00  0.00    +0.000 C 
ATOM     16  C   UNL     1       6.008   4.093  14.390  0.00  0.00    +0.000 A 
ATOM     17  C   UNL     1       7.095   4.952  14.539  0.00  0.00    +0.000 A 
ATOM     18  C   UNL     1       7.459   5.378  15.809  0.00  0.00    +0.000 A 
ATOM     19  C   UNL     1       6.739   4.938  16.912  0.00  0.00    +0.000 A 
ATOM     20  N   UNL     1       5.669   4.118  16.763  0.00  0.00    +0.000 N 
ATOM     21  C   UNL     1       5.299   3.704  15.526  0.00  0.00    +0.000 A 
ENDBRANCH  14  20
ENDBRANCH   1  14
TORSDOF 3
ENDMDL
MODEL 3
REMARK VINA RESULT:      -6.2      3.086      6.409
REMARK  Name = 
REMARK  4 active torsions:
REMARK  status: ('A' for Active; 'I' for Inactive)
REMARK    1  A    between atoms: C_1  and  C_2
REMARK    2  A    between atoms: N_6  and  C_7
REMARK    3  A    between atoms: C_7  and  C_8
REMARK    4  A    between atoms: N_10  and  C_11
REMARK                            x       y       z     vdW  Elec       q    Type
REMARK                         _______ _______ _______ _____ _____    ______ ____
ROOT
ATOM      1  C   UNL     1       2.603   4.579  17.886  0.00  0.00    +0.000 C 
ATOM      2  O   UNL     1       1.418   4.625  17.555  0.00  0.00    +0.000 OA
ATOM      3  N   UNL     1       3.214   5.497  18.725  0.00  0.00    +0.000 N 
ATOM      4  H   UNL     1       4.162   5.779  18.478  0.00  0.00    +0.000 HD
ENDROOT
BRANCH   3   5
ATOM      5  C   UNL     1       2.467   6.521  19.385  0.00  0.00    +0.000 A 
ATOM      6  C   UNL     1       2.284   7.814  18.857  0.00  0.00    +0.000 A 
ATOM      7 CL   UNL     1       2.796   8.246  17.257  0.00  0.00    +0.000 Cl
ATOM      8  C   UNL     1       1.550   8.772  19.563  0.00  0.00    +0.000 A 
ATOM      9  C   UNL     1       0.978   8.443  20.790  0.00  0.00    +0.000 A 
ATOM     10 CL   UNL     1       0.066   9.623  21.647  0.00  0.00    +0.000 Cl
ATOM     11  C   UNL     1       1.114   7.163  21.315  0.00  0.00    +0.000 A 
ATOM     12  C   UNL     1       1.844   6.208  20.609  0.00  0.00    +0.000 A 
ATOM     13 CL   UNL     1       2.015   4.628  21.301  0.00  0.00    +0.000 Cl
ENDBRANCH   3   5
BRANCH   1  14
ATOM     14  C   UNL     1       3.516   3.504  17.328  0.00  0.00    +0.000 C 
BRANCH  14  20
ATOM     15  C   UNL     1       6.851   4.670  13.845  0.00  0.00    +0.000 C 
ATOM     16  C   UNL     1       6.489   4.548  15.296  0.00  0.00    +0.000 A 
ATOM     17  C   UNL     1       7.426   4.816  16.292  0.00  0.00    +0.000 A 
ATOM     18  C   UNL     1       7.067   4.667  17.625  0.00  0.00    +0.000 A 
ATOM     19  C   UNL     1       5.782   4.247  17.946  0.00  0.00    +0.000 A 
ATOM     20  N   UNL     1       4.866   4.006  16.975  0.00  0.00    +0.000 N 
ATOM     21  C   UNL     1       5.204   4.157  15.671  0.00  0.00    +0.000 A 
ENDBRANCH  14  20
ENDBRANCH   1  14
TORSDOF 3
ENDMDL
MODEL 4
REMARK VINA RESULT:      -6.2      2.931      6.571
REMARK  Name = 
REMARK  4 active torsions:
REMARK  status: ('A' for Active; 'I' for Inactive)
REMARK    1  A    between atoms: C_1  and  C_2
REMARK    2  A    between atoms: N_6  and  C_7
REMARK    3  A    between atoms: C_7  and  C_8
REMARK    4  A    between atoms: N_10  and  C_11
REMARK                            x       y       z     vdW  Elec       q    Type
REMARK                         _______ _______ _______ _____ _____    ______ ____
ROOT
ATOM      1  C   UNL     1       3.153   4.211  17.885  0.00  0.00    +0.000 C 
ATOM      2  O   UNL     1       2.008   4.203  17.436  0.00  0.00    +0.000 OA
ATOM      3  N   UNL     1       3.619   5.123  18.820  0.00  0.00    +0.000 N 
ATOM      4  H   UNL     1       4.567   5.470  18.683  0.00  0.00    +0.000 HD
ENDROOT
BRANCH   3   5
ATOM      5  C   UNL     1       2.746   6.070  19.439  0.00  0.00    +0.000 A 
ATOM      6  C   UNL     1       1.990   5.792  20.594  0.00  0.00    +0.000 A 
ATOM      7 CL   UNL     1       2.178   4.325  21.498  0.00  0.00    +0.000 Cl
ATOM      8  C   UNL     1       1.145   6.765  21.140  0.00  0.00    +0.000 A 
ATOM      9  C   UNL     1       1.062   8.024  20.550  0.00  0.00    +0.000 A 
ATOM     10 CL   UNL     1       0.031   9.217  21.233  0.00  0.00    +0.000 Cl
ATOM     11  C   UNL     1       1.826   8.333  19.429  0.00  0.00    +0.000 A 
ATOM     12  C   UNL     1       2.670   7.364  18.888  0.00  0.00    +0.000 A 
ATOM     13 CL   UNL     1       3.591   7.773  17.478  0.00  0.00    +0.000 Cl
ENDBRANCH   3   5
BRANCH   1  14
ATOM     14  C   UNL     1       4.183   3.217  17.381  0.00  0.00    +0.000 C 
BRANCH  14  20
ATOM     15  C   UNL     1       6.059   3.660  12.810  0.00  0.00    +0.000 C 
ATOM     16  C   UNL     1       6.109   4.020  14.266  0.00  0.00    +0.000 A 
ATOM     17  C   UNL     1       7.122   4.834  14.768  0.00  0.00    +0.000 A 
ATOM     18  C   UNL     1       7.155   5.126  16.125  0.00  0.00    +0.000 A 
ATOM     19  C   UNL     1       6.181   4.597  16.963  0.00  0.00    +0.000 A 
ATOM     20  N   UNL     1       5.184   3.821  16.469  0.00  0.00    +0.000 N 
ATOM     21  C   UNL     1       5.138   3.538  15.144  0.00  0.00    +0.000 A 
ENDBRANCH  14  20
ENDBRANCH   1  14
TORSDOF 3
ENDMDL
MODEL 5
REMARK VINA RESULT:      -6.2      2.898      6.607
REMARK  Name = 
REMARK  4 active torsions:
REMARK  status: ('A' for Active; 'I' for Inactive)
REMARK    1  A    between atoms: C_1  and  C_2
REMARK    2  A    between atoms: N_6  and  C_7
REMARK    3  A    between atoms: C_7  and  C_8
REMARK    4  A    between atoms: N_10  and  C_11
REMARK                            x       y       z     vdW  Elec       q    Type
REMARK                         _______ _______ _______ _____ _____    ______ ____
ROOT
ATOM      1  C   UNL     1       4.378   4.566  18.642  0.00  0.00    +0.000 C 
ATOM      2  O   UNL     1       5.085   4.986  19.557  0.00  0.00    +0.000 OA
ATOM      3  N   UNL     1       3.073   4.975  18.415  0.00  0.00    +0.000 N 
ATOM      4  H   UNL     1       2.411   4.252  18.135  0.00  0.00    +0.000 HD
ENDROOT
BRANCH   3   5
ATOM      5  C   UNL     1       2.478   6.032  19.172  0.00  0.00    +0.000 A 
ATOM      6  C   UNL     1       1.852   5.840  20.418  0.00  0.00    +0.000 A 
ATOM      7 CL   UNL     1       1.897   4.323  21.258  0.00  0.00    +0.000 Cl
ATOM      8  C   UNL     1       1.279   6.920  21.098  0.00  0.00    +0.000 A 
ATOM      9  C   UNL     1       1.342   8.198  20.550  0.00  0.00    +0.000 A 
ATOM     10 CL   UNL     1       0.646   9.523  21.398  0.00  0.00    +0.000 Cl
ATOM     11  C   UNL     1       1.986   8.419  19.337  0.00  0.00    +0.000 A 
ATOM     12  C   UNL     1       2.559   7.343  18.661  0.00  0.00    +0.000 A 
ATOM     13 CL   UNL     1       3.334   7.646  17.142  0.00  0.00    +0.000 Cl
ENDBRANCH   3   5
BRANCH   1  14
ATOM     14  C   UNL     1       4.892   3.491  17.703  0.00  0.00    +0.000 C 
BRANCH  14  20
ATOM     15  C   UNL     1       5.735   3.534  12.814  0.00  0.00    +0.000 C 
ATOM     16  C   UNL     1       6.071   4.041  14.187  0.00  0.00    +0.000 A 
ATOM     17  C   UNL     1       7.121   4.936  14.382  0.00  0.00    +0.000 A 
ATOM     18  C   UNL     1       7.422   5.365  15.667  0.00  0.00    +0.000 A 
ATOM     19  C   UNL     1       6.678   4.890  16.740  0.00  0.00    +0.000 A 
ATOM     20  N   UNL     1       5.643   4.034  16.545  0.00  0.00    +0.000 N 
ATOM     21  C   UNL     1       5.334   3.617  15.293  0.00  0.00    +0.000 A 
ENDBRANCH  14  20
ENDBRANCH   1  14
TORSDOF 3
ENDMDL
MODEL 6
REMARK VINA RESULT:      -6.1      3.033      6.564
REMARK  Name = 
REMARK  4 active torsions:
REMARK  status: ('A' for Active; 'I' for Inactive)
REMARK    1  A    between atoms: C_1  and  C_2
REMARK    2  A    between atoms: N_6  and  C_7
REMARK    3  A    between atoms: C_7  and  C_8
REMARK    4  A    between atoms: N_10  and  C_11
REMARK                            x       y       z     vdW  Elec       q    Type
REMARK                         _______ _______ _______ _____ _____    ______ ____
ROOT
ATOM      1  C   UNL     1       2.592   4.405  17.744  0.00  0.00    +0.000 C 
ATOM      2  O   UNL     1       1.382   4.384  17.522  0.00  0.00    +0.000 OA
ATOM      3  N   UNL     1       3.219   5.330  18.565  0.00  0.00    +0.000 N 
ATOM      4  H   UNL     1       4.120   5.683  18.247  0.00  0.00    +0.000 HD
ENDROOT
BRANCH   3   5
ATOM      5  C   UNL     1       2.471   6.277  19.331  0.00  0.00    +0.000 A 
ATOM      6  C   UNL     1       1.851   5.971  20.557  0.00  0.00    +0.000 A 
ATOM      7 CL   UNL     1       2.083   4.453  21.363  0.00  0.00    +0.000 Cl
ATOM      8  C   UNL     1       1.123   6.946  21.248  0.00  0.00    +0.000 A 
ATOM      9  C   UNL     1       1.024   8.235  20.731  0.00  0.00    +0.000 A 
ATOM     10 CL   UNL     1       0.139   9.431  21.591  0.00  0.00    +0.000 Cl
ATOM     11  C   UNL     1       1.658   8.572  19.539  0.00  0.00    +0.000 A 
ATOM     12  C   UNL     1       2.386   7.600  18.853  0.00  0.00    +0.000 A 
ATOM     13 CL   UNL     1       3.144   8.044  17.360  0.00  0.00    +0.000 Cl
ENDBRANCH   3   5
BRANCH   1  14
ATOM     14  C   UNL     1       3.516   3.413  17.063  0.00  0.00    +0.000 C 
BRANCH  14  20
ATOM     15  C   UNL     1       7.827   5.367  18.550  0.00  0.00    +0.000 C 
ATOM     16  C   UNL     1       6.914   4.953  17.433  0.00  0.00    +0.000 A 
ATOM     17  C   UNL     1       7.264   5.178  16.103  0.00  0.00    +0.000 A 
ATOM     18  C   UNL     1       6.386   4.806  15.094  0.00  0.00    +0.000 A 
ATOM     19  C   UNL     1       5.170   4.222  15.425  0.00  0.00    +0.000 A 
ATOM     20  N   UNL     1       4.840   3.986  16.719  0.00  0.00    +0.000 N 
ATOM     21  C   UNL     1       5.695   4.336  17.712  0.00  0.00    +0.000 A 
ENDBRANCH  14  20
ENDBRANCH   1  14
TORSDOF 3
ENDMDL
MODEL 7
REMARK VINA RESULT:      -6.1      3.093      6.482
REMARK  Name = 
REMARK  4 active torsions:
REMARK  status: ('A' for Active; 'I' for Inactive)
REMARK    1  A    between atoms: C_1  and  C_2
REMARK    2  A    between atoms: N_6  and  C_7
REMARK    3  A    between atoms: C_7  and  C_8
REMARK    4  A    between atoms: N_10  and  C_11
REMARK                            x       y       z     vdW  Elec       q    Type
REMARK                         _______ _______ _______ _____ _____    ______ ____
ROOT
ATOM      1  C   UNL     1       2.643   4.516  17.882  0.00  0.00    +0.000 C 
ATOM      2  O   UNL     1       1.462   4.564  17.542  0.00  0.00    +0.000 OA
ATOM      3  N   UNL     1       3.241   5.417  18.752  0.00  0.00    +0.000 N 
ATOM      4  H   UNL     1       4.189   5.711  18.521  0.00  0.00    +0.000 HD
ENDROOT
BRANCH   3   5
ATOM      5  C   UNL     1       2.480   6.419  19.430  0.00  0.00    +0.000 A 
ATOM      6  C   UNL     1       2.309   7.729  18.942  0.00  0.00    +0.000 A 
ATOM      7 CL   UNL     1       2.853   8.214  17.368  0.00  0.00    +0.000 Cl
ATOM      8  C   UNL     1       1.561   8.663  19.665  0.00  0.00    +0.000 A 
ATOM      9  C   UNL     1       0.964   8.294  20.868  0.00  0.00    +0.000 A 
ATOM     10 CL   UNL     1       0.036   9.445  21.745  0.00  0.00    +0.000 Cl
ATOM     11  C   UNL     1       1.089   6.997  21.353  0.00  0.00    +0.000 A 
ATOM     12  C   UNL     1       1.833   6.065  20.630  0.00  0.00    +0.000 A 
ATOM     13 CL   UNL     1       1.989   4.463  21.271  0.00  0.00    +0.000 Cl
ENDBRANCH   3   5
BRANCH   1  14
ATOM     14  C   UNL     1       3.568   3.462  17.306  0.00  0.00    +0.000 C 
BRANCH  14  20
ATOM     15  C   UNL     1       7.848   5.515  18.748  0.00  0.00    +0.000 C 
ATOM     16  C   UNL     1       6.970   5.000  17.644  0.00  0.00    +0.000 A 
ATOM     17  C   UNL     1       7.368   5.091  16.312  0.00  0.00    +0.000 A 
ATOM     18  C   UNL     1       6.521   4.630  15.314  0.00  0.00    +0.000 A 
ATOM     19  C   UNL     1       5.287   4.091  15.657  0.00  0.00    +0.000 A 
ATOM     20  N   UNL     1       4.911   3.986  16.956  0.00  0.00    +0.000 N 
ATOM     21  C   UNL     1       5.735   4.424  17.939  0.00  0.00    +0.000 A 
ENDBRANCH  14  20
ENDBRANCH   1  14
TORSDOF 3
ENDMDL
MODEL 8
REMARK VINA RESULT:      -5.9      4.039      5.700
REMARK  Name = 
REMARK  4 active torsions:
REMARK  status: ('A' for Active; 'I' for Inactive)
REMARK    1  A    between atoms: C_1  and  C_2
REMARK    2  A    between atoms: N_6  and  C_7
REMARK    3  A    between atoms: C_7  and  C_8
REMARK    4  A    between atoms: N_10  and  C_11
REMARK                            x       y       z     vdW  Elec       q    Type
REMARK                         _______ _______ _______ _____ _____    ______ ____
ROOT
ATOM      1  C   UNL     1       1.998   8.394  17.987  0.00  0.00    +0.000 C 
ATOM      2  O   UNL     1       1.060   7.875  17.384  0.00  0.00    +0.000 OA
ATOM      3  N   UNL     1       3.044   7.687  18.560  0.00  0.00    +0.000 N 
ATOM      4  H   UNL     1       3.374   8.017  19.467  0.00  0.00    +0.000 HD
ENDROOT
BRANCH   3   5
ATOM      5  C   UNL     1       3.179   6.276  18.382  0.00  0.00    +0.000 A 
ATOM      6  C   UNL     1       3.923   5.691  17.339  0.00  0.00    +0.000 A 
ATOM      7 CL   UNL     1       4.911   6.626  16.263  0.00  0.00    +0.000 Cl
ATOM      8  C   UNL     1       4.001   4.300  17.217  0.00  0.00    +0.000 A 
ATOM      9  C   UNL     1       3.355   3.484  18.142  0.00  0.00    +0.000 A 
ATOM     10 CL   UNL     1       3.466   1.774  17.993  0.00  0.00    +0.000 Cl
ATOM     11  C   UNL     1       2.643   4.037  19.201  0.00  0.00    +0.000 A 
ATOM     12  C   UNL     1       2.568   5.425  19.323  0.00  0.00    +0.000 A 
ATOM     13 CL   UNL     1       1.654   6.084  20.640  0.00  0.00    +0.000 Cl
ENDBRANCH   3   5
BRANCH   1  14
ATOM     14  C   UNL     1       2.039   9.896  18.198  0.00  0.00    +0.000 C 
BRANCH  14  20
ATOM     15  C   UNL     1      -0.317   9.328  22.527  0.00  0.00    +0.000 C 
ATOM     16  C   UNL     1      -0.128  10.096  21.252  0.00  0.00    +0.000 A 
ATOM     17  C   UNL     1      -0.937  11.189  20.947  0.00  0.00    +0.000 A 
ATOM     18  C   UNL     1      -0.753  11.861  19.747  0.00  0.00    +0.000 A 
ATOM     19  C   UNL     1       0.230  11.432  18.865  0.00  0.00    +0.000 A 
ATOM     20  N   UNL     1       1.030  10.380  19.172  0.00  0.00    +0.000 N 
ATOM     21  C   UNL     1       0.865   9.723  20.346  0.00  0.00    +0.000 A 
ENDBRANCH  14  20
ENDBRANCH   1  14
TORSDOF 3
ENDMDL
MODEL 9
REMARK VINA RESULT:      -5.9      4.056      6.059
REMARK  Name = 
REMARK  4 active torsions:
REMARK  status: ('A' for Active; 'I' for Inactive)
REMARK    1  A    between atoms: C_1  and  C_2
REMARK    2  A    between atoms: N_6  and  C_7
REMARK    3  A    between atoms: C_7  and  C_8
REMARK    4  A    between atoms: N_10  and  C_11
REMARK                            x       y       z     vdW  Elec       q    Type
REMARK                         _______ _______ _______ _____ _____    ______ ____
ROOT
ATOM      1  C   UNL     1       1.751   5.922  20.549  0.00  0.00    +0.000 C 
ATOM      2  O   UNL     1       0.548   5.748  20.358  0.00  0.00    +0.000 OA
ATOM      3  N   UNL     1       2.413   7.118  20.318  0.00  0.00    +0.000 N 
ATOM      4  H   UNL     1       3.343   7.051  19.905  0.00  0.00    +0.000 HD
ENDROOT
BRANCH   3   5
ATOM      5  C   UNL     1       1.706   8.304  19.947  0.00  0.00    +0.000 A 
ATOM      6  C   UNL     1       0.976   9.092  20.857  0.00  0.00    +0.000 A 
ATOM      7 CL   UNL     1       1.009   8.807  22.568  0.00  0.00    +0.000 Cl
ATOM      8  C   UNL     1       0.297  10.234  20.422  0.00  0.00    +0.000 A 
ATOM      9  C   UNL     1       0.356  10.609  19.082  0.00  0.00    +0.000 A 
ATOM     10 CL   UNL     1      -0.471  12.022  18.556  0.00  0.00    +0.000 Cl
ATOM     11  C   UNL     1       1.100   9.867  18.170  0.00  0.00    +0.000 A 
ATOM     12  C   UNL     1       1.779   8.730  18.606  0.00  0.00    +0.000 A 
ATOM     13 CL   UNL     1       2.677   7.814  17.441  0.00  0.00    +0.000 Cl
ENDBRANCH   3   5
BRANCH   1  14
ATOM     14  C   UNL     1       2.629   4.776  21.016  0.00  0.00    +0.000 C 
BRANCH  14  20
ATOM     15  C   UNL     1       4.892   3.896  16.690  0.00  0.00    +0.000 C 
ATOM     16  C   UNL     1       4.050   3.402  17.830  0.00  0.00    +0.000 A 
ATOM     17  C   UNL     1       3.536   2.107  17.833  0.00  0.00    +0.000 A 
ATOM     18  C   UNL     1       2.740   1.690  18.891  0.00  0.00    +0.000 A 
ATOM     19  C   UNL     1       2.461   2.572  19.927  0.00  0.00    +0.000 A 
ATOM     20  N   UNL     1       2.979   3.826  19.932  0.00  0.00    +0.000 N 
ATOM     21  C   UNL     1       3.766   4.239  18.909  0.00  0.00    +0.000 A 
ENDBRANCH  14  20
ENDBRANCH   1  14
TORSDOF 3
ENDMDL
