MODEL 1
REMARK VINA RESULT:      -7.8      0.000      0.000
REMARK  Name = 
REMARK  4 active torsions:
REMARK  status: ('A' for Active; 'I' for Inactive)
REMARK    1  A    between atoms: C_2  and  C_3
REMARK    2  A    between atoms: C_3  and  C_4
REMARK    3  A    between atoms: N_7  and  C_8
REMARK    4  A    between atoms: C_11  and  N_12
REMARK                            x       y       z     vdW  Elec       q    Type
REMARK                         _______ _______ _______ _____ _____    ______ ____
ROOT
ATOM      1  C   UNL     1       4.269   5.078  17.055  0.00  0.00    +0.000 A 
ATOM      2  C   UNL     1       4.760   6.298  17.491  0.00  0.00    +0.000 A 
ATOM      3  C   UNL     1       4.000   7.127  18.318  0.00  0.00    +0.000 A 
ATOM      4  C   UNL     1       2.719   6.784  18.749  0.00  0.00    +0.000 A 
ATOM      5  C   UNL     1       2.235   5.527  18.368  0.00  0.00    +0.000 A 
ATOM      6  C   UNL     1       3.003   4.685  17.523  0.00  0.00    +0.000 A 
ENDROOT
BRANCH   4   7
ATOM      7  N   UNL     1       1.912   7.657  19.545  0.00  0.00    +0.000 N 
ATOM      8  C   UNL     1       1.388   8.846  19.095  0.00  0.00    +0.000 C 
ATOM      9  O   UNL     1       1.516   9.268  17.942  0.00  0.00    +0.000 OA
ATOM     10  N   UNL     1       0.722   9.638  19.985  0.00  0.00    +0.000 N 
ATOM     11  C   UNL     1       0.476  11.005  19.541  0.00  0.00    +0.000 C 
ATOM     12  C   UNL     1       0.021  11.685  20.778  0.00  0.00    +0.000 A 
ATOM     13  C   UNL     1       0.015  13.037  21.062  0.00  0.00    +0.000 A 
ATOM     14  C   UNL     1      -0.556  13.441  22.264  0.00  0.00    +0.000 A 
ATOM     15  C   UNL     1      -1.183  12.502  23.100  0.00  0.00    +0.000 A 
ATOM     16  C   UNL     1      -1.112  11.129  22.825  0.00  0.00    +0.000 A 
ATOM     17  C   UNL     1      -0.417  10.730  21.699  0.00  0.00    +0.000 A 
ATOM     18  C   UNL     1       0.124   9.380  21.300  0.00  0.00    +0.000 C 
ATOM     19  H   UNL     1       1.729   7.387  20.498  0.00  0.00    +0.000 HD
ENDBRANCH   4   7
BRANCH   1  22
ATOM     20  O   UNL     1       5.752   5.808  14.588  0.00  0.00    +0.000 OA
ATOM     21  C   UNL     1       5.638   4.655  14.991  0.00  0.00    +0.000 C 
ATOM     22  N   UNL     1       4.983   4.250  16.157  0.00  0.00    +0.000 N 
ATOM     23  H   UNL     1       4.999   3.268  16.379  0.00  0.00    +0.000 HD
BRANCH  21  24
ATOM     24  C   UNL     1       6.212   3.490  14.192  0.00  0.00    +0.000 C 
BRANCH  24  25
ATOM     25  C   UNL     1       6.125   3.695  12.701  0.00  0.00    +0.000 C 
ATOM     26  C   UNL     1       6.161   2.506  11.776  0.00  0.00    +0.000 C 
ATOM     27  C   UNL     1       4.894   3.299  11.923  0.00  0.00    +0.000 C 
ENDBRANCH  24  25
ENDBRANCH  21  24
ENDBRANCH   1  22
TORSDOF 4
ENDMDL
MODEL 2
REMARK VINA RESULT:      -7.8      2.370      3.861
REMARK  Name = 
REMARK  4 active torsions:
REMARK  status: ('A' for Active; 'I' for Inactive)
REMARK    1  A    between atoms: C_2  and  C_3
REMARK    2  A    between atoms: C_3  and  C_4
REMARK    3  A    between atoms: N_7  and  C_8
REMARK    4  A    between atoms: C_11  and  N_12
REMARK                            x       y       z     vdW  Elec       q    Type
REMARK                         _______ _______ _______ _____ _____    ______ ____
ROOT
ATOM      1  C   UNL     1       2.756   7.369  18.671  0.00  0.00    +0.000 A 
ATOM      2  C   UNL     1       2.413   8.457  17.885  0.00  0.00    +0.000 A 
ATOM      3  C   UNL     1       1.493   9.408  18.331  0.00  0.00    +0.000 A 
ATOM      4  C   UNL     1       0.872   9.321  19.577  0.00  0.00    +0.000 A 
ATOM      5  C   UNL     1       1.255   8.262  20.406  0.00  0.00    +0.000 A 
ATOM      6  C   UNL     1       2.185   7.291  19.954  0.00  0.00    +0.000 A 
ENDROOT
BRANCH   4   7
ATOM      7  N   UNL     1      -0.117  10.258  20.013  0.00  0.00    +0.000 N 
ATOM      8  C   UNL     1      -0.216  10.732  21.301  0.00  0.00    +0.000 C 
ATOM      9  O   UNL     1       0.565  10.436  22.210  0.00  0.00    +0.000 OA
ATOM     10  N   UNL     1      -1.269  11.542  21.613  0.00  0.00    +0.000 N 
ATOM     11  C   UNL     1      -1.498  11.745  23.039  0.00  0.00    +0.000 C 
ATOM     12  C   UNL     1      -2.829  12.398  23.077  0.00  0.00    +0.000 A 
ATOM     13  C   UNL     1      -3.718  12.476  24.132  0.00  0.00    +0.000 A 
ATOM     14  C   UNL     1      -4.870  13.233  23.951  0.00  0.00    +0.000 A 
ATOM     15  C   UNL     1      -5.058  13.961  22.764  0.00  0.00    +0.000 A 
ATOM     16  C   UNL     1      -4.177  13.820  21.683  0.00  0.00    +0.000 A 
ATOM     17  C   UNL     1      -3.111  12.953  21.826  0.00  0.00    +0.000 A 
ATOM     18  C   UNL     1      -2.201  12.330  20.798  0.00  0.00    +0.000 C 
ATOM     19  H   UNL     1      -0.789  10.579  19.335  0.00  0.00    +0.000 HD
ENDBRANCH   4   7
BRANCH   1  22
ATOM     20  O   UNL     1       2.116   4.654  17.652  0.00  0.00    +0.000 OA
ATOM     21  C   UNL     1       3.261   5.076  17.776  0.00  0.00    +0.000 C 
ATOM     22  N   UNL     1       3.627   6.350  18.217  0.00  0.00    +0.000 N 
ATOM     23  H   UNL     1       4.610   6.568  18.238  0.00  0.00    +0.000 HD
BRANCH  21  24
ATOM     24  C   UNL     1       4.458   4.183  17.467  0.00  0.00    +0.000 C 
BRANCH  24  25
ATOM     25  C   UNL     1       4.864   4.217  16.015  0.00  0.00    +0.000 C 
ATOM     26  C   UNL     1       5.581   5.423  15.465  0.00  0.00    +0.000 C 
ATOM     27  C   UNL     1       6.311   4.117  15.600  0.00  0.00    +0.000 C 
ENDBRANCH  24  25
ENDBRANCH  21  24
ENDBRANCH   1  22
TORSDOF 4
ENDMDL
MODEL 3
REMARK VINA RESULT:      -7.8      0.991      1.195
REMARK  Name = 
REMARK  4 active torsions:
REMARK  status: ('A' for Active; 'I' for Inactive)
REMARK    1  A    between atoms: C_2  and  C_3
REMARK    2  A    between atoms: C_3  and  C_4
REMARK    3  A    between atoms: N_7  and  C_8
REMARK    4  A    between atoms: C_11  and  N_12
REMARK                            x       y       z     vdW  Elec       q    Type
REMARK                         _______ _______ _______ _____ _____    ______ ____
ROOT
ATOM      1  C   UNL     1       4.854   5.156  16.051  0.00  0.00    +0.000 A 
ATOM      2  C   UNL     1       4.963   6.522  16.253  0.00  0.00    +0.000 A 
ATOM      3  C   UNL     1       4.209   7.169  17.234  0.00  0.00    +0.000 A 
ATOM      4  C   UNL     1       3.310   6.489  18.056  0.00  0.00    +0.000 A 
ATOM      5  C   UNL     1       3.235   5.100  17.905  0.00  0.00    +0.000 A 
ATOM      6  C   UNL     1       3.997   4.441  16.906  0.00  0.00    +0.000 A 
ENDROOT
BRANCH   4   7
ATOM      7  N   UNL     1       2.489   7.155  19.020  0.00  0.00    +0.000 N 
ATOM      8  C   UNL     1       1.641   8.197  18.721  0.00  0.00    +0.000 C 
ATOM      9  O   UNL     1       1.460   8.640  17.583  0.00  0.00    +0.000 OA
ATOM     10  N   UNL     1       0.990   8.816  19.749  0.00  0.00    +0.000 N 
ATOM     11  C   UNL     1       0.371  10.093  19.415  0.00  0.00    +0.000 C 
ATOM     12  C   UNL     1       0.010  10.650  20.741  0.00  0.00    +0.000 A 
ATOM     13  C   UNL     1      -0.243  11.965  21.080  0.00  0.00    +0.000 A 
ATOM     14  C   UNL     1      -0.661  12.228  22.380  0.00  0.00    +0.000 A 
ATOM     15  C   UNL     1      -0.901  11.169  23.273  0.00  0.00    +0.000 A 
ATOM     16  C   UNL     1      -0.579   9.848  22.930  0.00  0.00    +0.000 A 
ATOM     17  C   UNL     1      -0.030   9.619  21.683  0.00  0.00    +0.000 A 
ATOM     18  C   UNL     1       0.715   8.427  21.136  0.00  0.00    +0.000 C 
ATOM     19  H   UNL     1       2.548   6.849  19.977  0.00  0.00    +0.000 HD
ENDBRANCH   4   7
BRANCH   1  22
ATOM     20  O   UNL     1       7.560   5.680  14.946  0.00  0.00    +0.000 OA
ATOM     21  C   UNL     1       6.816   4.802  14.521  0.00  0.00    +0.000 C 
ATOM     22  N   UNL     1       5.549   4.484  15.017  0.00  0.00    +0.000 N 
ATOM     23  H   UNL     1       5.064   3.714  14.587  0.00  0.00    +0.000 HD
BRANCH  21  24
ATOM     24  C   UNL     1       7.222   3.948  13.325  0.00  0.00    +0.000 C 
BRANCH  24  25
ATOM     25  C   UNL     1       6.151   2.972  12.904  0.00  0.00    +0.000 C 
ATOM     26  C   UNL     1       5.162   3.360  11.836  0.00  0.00    +0.000 C 
ATOM     27  C   UNL     1       6.188   2.300  11.554  0.00  0.00    +0.000 C 
ENDBRANCH  24  25
ENDBRANCH  21  24
ENDBRANCH   1  22
TORSDOF 4
ENDMDL
MODEL 4
REMARK VINA RESULT:      -7.7      1.872      3.273
REMARK  Name = 
REMARK  4 active torsions:
REMARK  status: ('A' for Active; 'I' for Inactive)
REMARK    1  A    between atoms: C_2  and  C_3
REMARK    2  A    between atoms: C_3  and  C_4
REMARK    3  A    between atoms: N_7  and  C_8
REMARK    4  A    between atoms: C_11  and  N_12
REMARK                            x       y       z     vdW  Elec       q    Type
REMARK                         _______ _______ _______ _____ _____    ______ ____
ROOT
ATOM      1  C   UNL     1       2.686   6.857  18.383  0.00  0.00    +0.000 A 
ATOM      2  C   UNL     1       2.369   6.765  19.729  0.00  0.00    +0.000 A 
ATOM      3  C   UNL     1       1.746   7.820  20.397  0.00  0.00    +0.000 A 
ATOM      4  C   UNL     1       1.411   9.015  19.761  0.00  0.00    +0.000 A 
ATOM      5  C   UNL     1       1.668   9.098  18.388  0.00  0.00    +0.000 A 
ATOM      6  C   UNL     1       2.306   8.029  17.708  0.00  0.00    +0.000 A 
ENDROOT
BRANCH   4   7
ATOM      7  N   UNL     1       0.830  10.123  20.455  0.00  0.00    +0.000 N 
ATOM      8  C   UNL     1       0.097  10.008  21.614  0.00  0.00    +0.000 C 
ATOM      9  O   UNL     1      -0.099   8.943  22.208  0.00  0.00    +0.000 OA
ATOM     10  N   UNL     1      -0.492  11.130  22.121  0.00  0.00    +0.000 N 
ATOM     11  C   UNL     1      -1.501  10.895  23.146  0.00  0.00    +0.000 C 
ATOM     12  C   UNL     1      -2.152  12.220  23.290  0.00  0.00    +0.000 A 
ATOM     13  C   UNL     1      -3.397  12.513  23.812  0.00  0.00    +0.000 A 
ATOM     14  C   UNL     1      -3.747  13.854  23.930  0.00  0.00    +0.000 A 
ATOM     15  C   UNL     1      -2.818  14.859  23.611  0.00  0.00    +0.000 A 
ATOM     16  C   UNL     1      -1.584  14.542  23.024  0.00  0.00    +0.000 A 
ATOM     17  C   UNL     1      -1.306  13.210  22.782  0.00  0.00    +0.000 A 
ATOM     18  C   UNL     1      -0.270  12.563  21.898  0.00  0.00    +0.000 C 
ATOM     19  H   UNL     1       0.955  11.040  20.061  0.00  0.00    +0.000 HD
ENDBRANCH   4   7
BRANCH   1  22
ATOM     20  O   UNL     1       5.510   6.787  17.466  0.00  0.00    +0.000 OA
ATOM     21  C   UNL     1       4.712   5.877  17.265  0.00  0.00    +0.000 C 
ATOM     22  N   UNL     1       3.384   5.834  17.697  0.00  0.00    +0.000 N 
ATOM     23  H   UNL     1       2.855   5.005  17.485  0.00  0.00    +0.000 HD
BRANCH  21  24
ATOM     24  C   UNL     1       5.116   4.651  16.453  0.00  0.00    +0.000 C 
BRANCH  24  25
ATOM     25  C   UNL     1       5.566   4.990  15.054  0.00  0.00    +0.000 C 
ATOM     26  C   UNL     1       7.018   4.852  14.679  0.00  0.00    +0.000 C 
ATOM     27  C   UNL     1       6.003   3.917  14.087  0.00  0.00    +0.000 C 
ENDBRANCH  24  25
ENDBRANCH  21  24
ENDBRANCH   1  22
TORSDOF 4
ENDMDL
MODEL 5
REMARK VINA RESULT:      -7.7      2.244      3.660
REMARK  Name = 
REMARK  4 active torsions:
REMARK  status: ('A' for Active; 'I' for Inactive)
REMARK    1  A    between atoms: C_2  and  C_3
REMARK    2  A    between atoms: C_3  and  C_4
REMARK    3  A    between atoms: N_7  and  C_8
REMARK    4  A    between atoms: C_11  and  N_12
REMARK                            x       y       z     vdW  Elec       q    Type
REMARK                         _______ _______ _______ _____ _____    ______ ____
ROOT
ATOM      1  C   UNL     1       2.940   7.183  18.610  0.00  0.00    +0.000 A 
ATOM      2  C   UNL     1       2.346   7.085  19.858  0.00  0.00    +0.000 A 
ATOM      3  C   UNL     1       1.399   8.019  20.282  0.00  0.00    +0.000 A 
ATOM      4  C   UNL     1       0.999   9.093  19.487  0.00  0.00    +0.000 A 
ATOM      5  C   UNL     1       1.544   9.169  18.200  0.00  0.00    +0.000 A 
ATOM      6  C   UNL     1       2.510   8.225  17.769  0.00  0.00    +0.000 A 
ENDROOT
BRANCH   4   7
ATOM      7  N   UNL     1       0.077  10.088  19.941  0.00  0.00    +0.000 N 
ATOM      8  C   UNL     1      -0.045  10.486  21.252  0.00  0.00    +0.000 C 
ATOM      9  O   UNL     1       0.660  10.063  22.173  0.00  0.00    +0.000 OA
ATOM     10  N   UNL     1      -1.036  11.369  21.571  0.00  0.00    +0.000 N 
ATOM     11  C   UNL     1      -1.319  11.501  22.995  0.00  0.00    +0.000 C 
ATOM     12  C   UNL     1      -2.586  12.270  23.018  0.00  0.00    +0.000 A 
ATOM     13  C   UNL     1      -3.517  12.362  24.034  0.00  0.00    +0.000 A 
ATOM     14  C   UNL     1      -4.587  13.232  23.853  0.00  0.00    +0.000 A 
ATOM     15  C   UNL     1      -4.649  14.048  22.711  0.00  0.00    +0.000 A 
ATOM     16  C   UNL     1      -3.730  13.896  21.663  0.00  0.00    +0.000 A 
ATOM     17  C   UNL     1      -2.754  12.926  21.795  0.00  0.00    +0.000 A 
ATOM     18  C   UNL     1      -1.852  12.288  20.769  0.00  0.00    +0.000 C 
ATOM     19  H   UNL     1      -0.529  10.512  19.257  0.00  0.00    +0.000 HD
ENDBRANCH   4   7
BRANCH   1  22
ATOM     20  O   UNL     1       2.701   4.465  17.437  0.00  0.00    +0.000 OA
ATOM     21  C   UNL     1       3.776   5.011  17.663  0.00  0.00    +0.000 C 
ATOM     22  N   UNL     1       3.956   6.296  18.181  0.00  0.00    +0.000 N 
ATOM     23  H   UNL     1       4.901   6.626  18.284  0.00  0.00    +0.000 HD
BRANCH  21  24
ATOM     24  C   UNL     1       5.090   4.280  17.409  0.00  0.00    +0.000 C 
BRANCH  24  25
ATOM     25  C   UNL     1       5.409   4.129  15.943  0.00  0.00    +0.000 C 
ATOM     26  C   UNL     1       5.573   5.353  15.080  0.00  0.00    +0.000 C 
ATOM     27  C   UNL     1       6.766   4.494  15.392  0.00  0.00    +0.000 C 
ENDBRANCH  24  25
ENDBRANCH  21  24
ENDBRANCH   1  22
TORSDOF 4
ENDMDL
MODEL 6
REMARK VINA RESULT:      -7.6      2.264      3.743
REMARK  Name = 
REMARK  4 active torsions:
REMARK  status: ('A' for Active; 'I' for Inactive)
REMARK    1  A    between atoms: C_2  and  C_3
REMARK    2  A    between atoms: C_3  and  C_4
REMARK    3  A    between atoms: N_7  and  C_8
REMARK    4  A    between atoms: C_11  and  N_12
REMARK                            x       y       z     vdW  Elec       q    Type
REMARK                         _______ _______ _______ _____ _____    ______ ____
ROOT
ATOM      1  C   UNL     1       2.591   7.005  18.497  0.00  0.00    +0.000 A 
ATOM      2  C   UNL     1       2.317   6.932  19.854  0.00  0.00    +0.000 A 
ATOM      3  C   UNL     1       1.690   7.986  20.520  0.00  0.00    +0.000 A 
ATOM      4  C   UNL     1       1.308   9.161  19.871  0.00  0.00    +0.000 A 
ATOM      5  C   UNL     1       1.522   9.222  18.489  0.00  0.00    +0.000 A 
ATOM      6  C   UNL     1       2.164   8.155  17.811  0.00  0.00    +0.000 A 
ENDROOT
BRANCH   4   7
ATOM      7  N   UNL     1       0.723  10.269  20.561  0.00  0.00    +0.000 N 
ATOM      8  C   UNL     1      -0.039  10.152  21.701  0.00  0.00    +0.000 C 
ATOM      9  O   UNL     1      -0.262   9.084  22.279  0.00  0.00    +0.000 OA
ATOM     10  N   UNL     1      -0.628  11.276  22.203  0.00  0.00    +0.000 N 
ATOM     11  C   UNL     1      -1.665  11.043  23.201  0.00  0.00    +0.000 C 
ATOM     12  C   UNL     1      -2.304  12.374  23.341  0.00  0.00    +0.000 A 
ATOM     13  C   UNL     1      -3.558  12.677  23.836  0.00  0.00    +0.000 A 
ATOM     14  C   UNL     1      -3.896  14.020  23.957  0.00  0.00    +0.000 A 
ATOM     15  C   UNL     1      -2.948  15.017  23.670  0.00  0.00    +0.000 A 
ATOM     16  C   UNL     1      -1.704  14.692  23.111  0.00  0.00    +0.000 A 
ATOM     17  C   UNL     1      -1.435  13.359  22.863  0.00  0.00    +0.000 A 
ATOM     18  C   UNL     1      -0.385  12.708  21.999  0.00  0.00    +0.000 C 
ATOM     19  H   UNL     1       0.868  11.188  20.178  0.00  0.00    +0.000 HD
ENDBRANCH   4   7
BRANCH   1  22
ATOM     20  O   UNL     1       1.809   4.182  18.001  0.00  0.00    +0.000 OA
ATOM     21  C   UNL     1       2.878   4.661  17.637  0.00  0.00    +0.000 C 
ATOM     22  N   UNL     1       3.291   5.985  17.810  0.00  0.00    +0.000 N 
ATOM     23  H   UNL     1       4.186   6.244  17.428  0.00  0.00    +0.000 HD
BRANCH  21  24
ATOM     24  C   UNL     1       3.925   3.794  16.946  0.00  0.00    +0.000 C 
BRANCH  24  25
ATOM     25  C   UNL     1       5.006   4.598  16.267  0.00  0.00    +0.000 C 
ATOM     26  C   UNL     1       6.441   4.440  16.700  0.00  0.00    +0.000 C 
ATOM     27  C   UNL     1       6.010   3.947  15.348  0.00  0.00    +0.000 C 
ENDBRANCH  24  25
ENDBRANCH  21  24
ENDBRANCH   1  22
TORSDOF 4
ENDMDL
MODEL 7
REMARK VINA RESULT:      -7.6      2.226      3.784
REMARK  Name = 
REMARK  4 active torsions:
REMARK  status: ('A' for Active; 'I' for Inactive)
REMARK    1  A    between atoms: C_2  and  C_3
REMARK    2  A    between atoms: C_3  and  C_4
REMARK    3  A    between atoms: N_7  and  C_8
REMARK    4  A    between atoms: C_11  and  N_12
REMARK                            x       y       z     vdW  Elec       q    Type
REMARK                         _______ _______ _______ _____ _____    ______ ____
ROOT
ATOM      1  C   UNL     1       2.512   7.486  18.593  0.00  0.00    +0.000 A 
ATOM      2  C   UNL     1       2.045   8.576  17.877  0.00  0.00    +0.000 A 
ATOM      3  C   UNL     1       1.201   9.519  18.465  0.00  0.00    +0.000 A 
ATOM      4  C   UNL     1       0.779   9.421  19.791  0.00  0.00    +0.000 A 
ATOM      5  C   UNL     1       1.292   8.359  20.545  0.00  0.00    +0.000 A 
ATOM      6  C   UNL     1       2.146   7.397  19.948  0.00  0.00    +0.000 A 
ENDROOT
BRANCH   4   7
ATOM      7  N   UNL     1      -0.136  10.349  20.381  0.00  0.00    +0.000 N 
ATOM      8  C   UNL     1       0.234  11.562  20.916  0.00  0.00    +0.000 C 
ATOM      9  O   UNL     1       1.387  12.003  20.904  0.00  0.00    +0.000 OA
ATOM     10  N   UNL     1      -0.721  12.310  21.542  0.00  0.00    +0.000 N 
ATOM     11  C   UNL     1      -0.216  13.409  22.356  0.00  0.00    +0.000 C 
ATOM     12  C   UNL     1      -1.411  13.842  23.119  0.00  0.00    +0.000 A 
ATOM     13  C   UNL     1      -1.465  14.561  24.297  0.00  0.00    +0.000 A 
ATOM     14  C   UNL     1      -2.718  14.932  24.771  0.00  0.00    +0.000 A 
ATOM     15  C   UNL     1      -3.870  14.655  24.015  0.00  0.00    +0.000 A 
ATOM     16  C   UNL     1      -3.802  13.870  22.855  0.00  0.00    +0.000 A 
ATOM     17  C   UNL     1      -2.564  13.388  22.472  0.00  0.00    +0.000 A 
ATOM     18  C   UNL     1      -2.187  12.286  21.515  0.00  0.00    +0.000 C 
ATOM     19  H   UNL     1      -1.108  10.090  20.417  0.00  0.00    +0.000 HD
ENDBRANCH   4   7
BRANCH   1  22
ATOM     20  O   UNL     1       1.780   4.708  17.836  0.00  0.00    +0.000 OA
ATOM     21  C   UNL     1       2.908   5.171  17.699  0.00  0.00    +0.000 C 
ATOM     22  N   UNL     1       3.308   6.475  18.004  0.00  0.00    +0.000 N 
ATOM     23  H   UNL     1       4.263   6.724  17.808  0.00  0.00    +0.000 HD
BRANCH  21  24
ATOM     24  C   UNL     1       4.048   4.303  17.177  0.00  0.00    +0.000 C 
BRANCH  24  25
ATOM     25  C   UNL     1       5.116   5.094  16.465  0.00  0.00    +0.000 C 
ATOM     26  C   UNL     1       6.454   4.461  16.180  0.00  0.00    +0.000 C 
ATOM     27  C   UNL     1       5.518   4.772  15.046  0.00  0.00    +0.000 C 
ENDBRANCH  24  25
ENDBRANCH  21  24
ENDBRANCH   1  22
TORSDOF 4
ENDMDL
MODEL 8
REMARK VINA RESULT:      -7.5      2.087      3.389
REMARK  Name = 
REMARK  4 active torsions:
REMARK  status: ('A' for Active; 'I' for Inactive)
REMARK    1  A    between atoms: C_2  and  C_3
REMARK    2  A    between atoms: C_3  and  C_4
REMARK    3  A    between atoms: N_7  and  C_8
REMARK    4  A    between atoms: C_11  and  N_12
REMARK                            x       y       z     vdW  Elec       q    Type
REMARK                         _______ _______ _______ _____ _____    ______ ____
ROOT
ATOM      1  C   UNL     1       2.856   7.185  18.336  0.00  0.00    +0.000 A 
ATOM      2  C   UNL     1       2.495   8.284  17.574  0.00  0.00    +0.000 A 
ATOM      3  C   UNL     1       1.641   9.265  18.081  0.00  0.00    +0.000 A 
ATOM      4  C   UNL     1       1.105   9.198  19.367  0.00  0.00    +0.000 A 
ATOM      5  C   UNL     1       1.510   8.126  20.170  0.00  0.00    +0.000 A 
ATOM      6  C   UNL     1       2.373   7.125  19.655  0.00  0.00    +0.000 A 
ENDROOT
BRANCH   4   7
ATOM      7  N   UNL     1       0.180  10.167  19.869  0.00  0.00    +0.000 N 
ATOM      8  C   UNL     1       0.049  10.490  21.200  0.00  0.00    +0.000 C 
ATOM      9  O   UNL     1       0.745  10.014  22.101  0.00  0.00    +0.000 OA
ATOM     10  N   UNL     1      -0.944  11.356  21.560  0.00  0.00    +0.000 N 
ATOM     11  C   UNL     1      -1.238  11.407  22.988  0.00  0.00    +0.000 C 
ATOM     12  C   UNL     1      -2.504  12.177  23.044  0.00  0.00    +0.000 A 
ATOM     13  C   UNL     1      -3.443  12.212  24.057  0.00  0.00    +0.000 A 
ATOM     14  C   UNL     1      -4.509  13.094  23.917  0.00  0.00    +0.000 A 
ATOM     15  C   UNL     1      -4.561  13.974  22.823  0.00  0.00    +0.000 A 
ATOM     16  C   UNL     1      -3.633  13.880  21.776  0.00  0.00    +0.000 A 
ATOM     17  C   UNL     1      -2.659  12.902  21.860  0.00  0.00    +0.000 A 
ATOM     18  C   UNL     1      -1.750  12.321  20.806  0.00  0.00    +0.000 C 
ATOM     19  H   UNL     1      -0.419  10.631  19.206  0.00  0.00    +0.000 HD
ENDBRANCH   4   7
BRANCH   1  22
ATOM     20  O   UNL     1       5.655   7.264  17.346  0.00  0.00    +0.000 OA
ATOM     21  C   UNL     1       4.967   6.249  17.345  0.00  0.00    +0.000 C 
ATOM     22  N   UNL     1       3.659   6.138  17.825  0.00  0.00    +0.000 N 
ATOM     23  H   UNL     1       3.228   5.229  17.787  0.00  0.00    +0.000 HD
BRANCH  21  24
ATOM     24  C   UNL     1       5.501   4.946  16.758  0.00  0.00    +0.000 C 
BRANCH  24  25
ATOM     25  C   UNL     1       5.596   4.970  15.253  0.00  0.00    +0.000 C 
ATOM     26  C   UNL     1       6.948   5.001  14.588  0.00  0.00    +0.000 C 
ATOM     27  C   UNL     1       6.089   3.774  14.477  0.00  0.00    +0.000 C 
ENDBRANCH  24  25
ENDBRANCH  21  24
ENDBRANCH   1  22
TORSDOF 4
ENDMDL
MODEL 9
REMARK VINA RESULT:      -7.4      1.874      2.906
REMARK  Name = 
REMARK  4 active torsions:
REMARK  status: ('A' for Active; 'I' for Inactive)
REMARK    1  A    between atoms: C_2  and  C_3
REMARK    2  A    between atoms: C_3  and  C_4
REMARK    3  A    between atoms: N_7  and  C_8
REMARK    4  A    between atoms: C_11  and  N_12
REMARK                            x       y       z     vdW  Elec       q    Type
REMARK                         _______ _______ _______ _____ _____    ______ ____
ROOT
ATOM      1  C   UNL     1       2.769   6.834  18.337  0.00  0.00    +0.000 A 
ATOM      2  C   UNL     1       2.500   8.086  17.806  0.00  0.00    +0.000 A 
ATOM      3  C   UNL     1       1.855   9.066  18.561  0.00  0.00    +0.000 A 
ATOM      4  C   UNL     1       1.447   8.849  19.877  0.00  0.00    +0.000 A 
ATOM      5  C   UNL     1       1.768   7.612  20.447  0.00  0.00    +0.000 A 
ATOM      6  C   UNL     1       2.418   6.612  19.680  0.00  0.00    +0.000 A 
ENDROOT
BRANCH   4   7
ATOM      7  N   UNL     1       0.731   9.829  20.635  0.00  0.00    +0.000 N 
ATOM      8  C   UNL     1      -0.445  10.414  20.223  0.00  0.00    +0.000 C 
ATOM      9  O   UNL     1      -1.035  10.124  19.178  0.00  0.00    +0.000 OA
ATOM     10  N   UNL     1      -0.974  11.411  20.990  0.00  0.00    +0.000 N 
ATOM     11  C   UNL     1      -2.022  12.199  20.351  0.00  0.00    +0.000 C 
ATOM     12  C   UNL     1      -2.191  13.347  21.274  0.00  0.00    +0.000 A 
ATOM     13  C   UNL     1      -2.745  14.585  21.012  0.00  0.00    +0.000 A 
ATOM     14  C   UNL     1      -2.882  15.469  22.077  0.00  0.00    +0.000 A 
ATOM     15  C   UNL     1      -2.549  15.064  23.380  0.00  0.00    +0.000 A 
ATOM     16  C   UNL     1      -1.930  13.827  23.616  0.00  0.00    +0.000 A 
ATOM     17  C   UNL     1      -1.671  13.016  22.528  0.00  0.00    +0.000 A 
ATOM     18  C   UNL     1      -0.757  11.825  22.380  0.00  0.00    +0.000 C 
ATOM     19  H   UNL     1       1.120  10.115  21.518  0.00  0.00    +0.000 HD
ENDBRANCH   4   7
BRANCH   1  22
ATOM     20  O   UNL     1       5.618   6.019  18.127  0.00  0.00    +0.000 OA
ATOM     21  C   UNL     1       4.713   5.482  17.496  0.00  0.00    +0.000 C 
ATOM     22  N   UNL     1       3.354   5.796  17.573  0.00  0.00    +0.000 N 
ATOM     23  H   UNL     1       2.720   5.247  17.016  0.00  0.00    +0.000 HD
BRANCH  21  24
ATOM     24  C   UNL     1       5.015   4.378  16.488  0.00  0.00    +0.000 C 
BRANCH  24  25
ATOM     25  C   UNL     1       5.544   4.901  15.177  0.00  0.00    +0.000 C 
ATOM     26  C   UNL     1       7.003   4.738  14.838  0.00  0.00    +0.000 C 
ATOM     27  C   UNL     1       5.968   3.966  14.070  0.00  0.00    +0.000 C 
ENDBRANCH  24  25
ENDBRANCH  21  24
ENDBRANCH   1  22
TORSDOF 4
ENDMDL
