MODEL 1
REMARK VINA RESULT:      -9.8      0.000      0.000
REMARK  Name = 
REMARK  5 active torsions:
REMARK  status: ('A' for Active; 'I' for Inactive)
REMARK    1  A    between atoms: C_1  and  C_2
REMARK    2  A    between atoms: C_2  and  C_4
REMARK    3  A    between atoms: C_8  and  N_9
REMARK    4  A    between atoms: C_10  and  C_12
REMARK    5  A    between atoms: C_15  and  C_16
REMARK                            x       y       z     vdW  Elec       q    Type
REMARK                         _______ _______ _______ _____ _____    ______ ____
ROOT
ATOM      1  C   UNL     1       6.369   4.934  18.393  0.00  0.00    +0.000 C 
ATOM      2  C   UNL     1       5.350   6.085  18.295  0.00  0.00    +0.000 C 
ATOM      3  C   UNL     1       4.102   5.372  18.648  0.00  0.00    +0.000 A 
ATOM      4  C   UNL     1       2.788   5.796  18.770  0.00  0.00    +0.000 A 
ATOM      5  C   UNL     1       1.836   4.820  19.103  0.00  0.00    +0.000 A 
ATOM      6  C   UNL     1       2.245   3.507  19.326  0.00  0.00    +0.000 A 
ATOM      7  N   UNL     1       3.527   3.100  19.263  0.00  0.00    +0.000 NA
ATOM      8  C   UNL     1       4.398   4.056  18.934  0.00  0.00    +0.000 A 
ATOM      9  O   UNL     1       5.736   3.744  18.894  0.00  0.00    +0.000 OA
ENDROOT
BRANCH   4  10
ATOM     10  C   UNL     1       2.365   7.184  18.639  0.00  0.00    +0.000 A 
ATOM     11  C   UNL     1       2.367   8.077  17.583  0.00  0.00    +0.000 A 
ATOM     12  C   UNL     1       1.828   9.290  18.070  0.00  0.00    +0.000 A 
ATOM     13  C   UNL     1       1.535   9.066  19.396  0.00  0.00    +0.000 A 
ATOM     14  O   UNL     1       1.850   7.793  19.746  0.00  0.00    +0.000 OA
ENDBRANCH   4  10
BRANCH   1  16
ATOM     15  N   UNL     1       6.278   4.985  15.941  0.00  0.00    +0.000 N 
ATOM     16  C   UNL     1       7.048   4.651  17.048  0.00  0.00    +0.000 C 
ATOM     17  O   UNL     1       8.181   4.166  17.021  0.00  0.00    +0.000 OA
ATOM     18  H   UNL     1       5.427   5.507  16.138  0.00  0.00    +0.000 HD
BRANCH  15  23
ATOM     19  C   UNL     1       6.134   3.636  12.480  0.00  0.00    +0.000 A 
ATOM     20  C   UNL     1       7.183   4.331  11.870  0.00  0.00    +0.000 A 
ATOM     21  C   UNL     1       7.951   5.221  12.613  0.00  0.00    +0.000 A 
ATOM     22  C   UNL     1       7.665   5.439  13.960  0.00  0.00    +0.000 A 
ATOM     23  C   UNL     1       6.610   4.772  14.586  0.00  0.00    +0.000 A 
ATOM     24  C   UNL     1       5.861   3.847  13.844  0.00  0.00    +0.000 A 
BRANCH  19  26
ATOM     25  C   UNL     1       3.939   3.153  11.200  0.00  0.00    +0.000 C 
ATOM     26  C   UNL     1       5.285   2.684  11.700  0.00  0.00    +0.000 C 
ATOM     27  O   UNL     1       5.685   1.544  11.479  0.00  0.00    +0.000 OA
ENDBRANCH  19  26
ENDBRANCH  15  23
ENDBRANCH   1  16
TORSDOF 4
ENDMDL
MODEL 2
REMARK VINA RESULT:      -8.9      2.488      8.699
REMARK  Name = 
REMARK  5 active torsions:
REMARK  status: ('A' for Active; 'I' for Inactive)
REMARK    1  A    between atoms: C_1  and  C_2
REMARK    2  A    between atoms: C_2  and  C_4
REMARK    3  A    between atoms: C_8  and  N_9
REMARK    4  A    between atoms: C_10  and  C_12
REMARK    5  A    between atoms: C_15  and  C_16
REMARK                            x       y       z     vdW  Elec       q    Type
REMARK                         _______ _______ _______ _____ _____    ______ ____
ROOT
ATOM      1  C   UNL     1       3.358   5.799  18.468  0.00  0.00    +0.000 C 
ATOM      2  C   UNL     1       4.037   5.491  17.120  0.00  0.00    +0.000 C 
ATOM      3  C   UNL     1       5.434   5.283  17.564  0.00  0.00    +0.000 A 
ATOM      4  C   UNL     1       6.593   4.959  16.875  0.00  0.00    +0.000 A 
ATOM      5  C   UNL     1       7.773   4.866  17.629  0.00  0.00    +0.000 A 
ATOM      6  C   UNL     1       7.727   5.064  19.007  0.00  0.00    +0.000 A 
ATOM      7  N   UNL     1       6.596   5.325  19.690  0.00  0.00    +0.000 NA
ATOM      8  C   UNL     1       5.499   5.414  18.934  0.00  0.00    +0.000 A 
ATOM      9  O   UNL     1       4.289   5.629  19.551  0.00  0.00    +0.000 OA
ENDROOT
BRANCH   4  10
ATOM     10  C   UNL     1       6.635   4.651  15.451  0.00  0.00    +0.000 A 
ATOM     11  C   UNL     1       5.958   3.740  14.660  0.00  0.00    +0.000 A 
ATOM     12  C   UNL     1       6.432   3.912  13.340  0.00  0.00    +0.000 A 
ATOM     13  C   UNL     1       7.373   4.914  13.404  0.00  0.00    +0.000 A 
ATOM     14  O   UNL     1       7.498   5.371  14.677  0.00  0.00    +0.000 OA
ENDBRANCH   4  10
BRANCH   1  16
ATOM     15  N   UNL     1       2.030   7.490  19.651  0.00  0.00    +0.000 N 
ATOM     16  C   UNL     1       2.755   7.208  18.499  0.00  0.00    +0.000 C 
ATOM     17  O   UNL     1       2.933   7.975  17.551  0.00  0.00    +0.000 OA
ATOM     18  H   UNL     1       2.102   6.801  20.396  0.00  0.00    +0.000 HD
BRANCH  15  23
ATOM     19  C   UNL     1       0.119  10.053  21.546  0.00  0.00    +0.000 A 
ATOM     20  C   UNL     1      -0.098  11.021  20.559  0.00  0.00    +0.000 A 
ATOM     21  C   UNL     1       0.365  10.807  19.265  0.00  0.00    +0.000 A 
ATOM     22  C   UNL     1       1.063   9.642  18.953  0.00  0.00    +0.000 A 
ATOM     23  C   UNL     1       1.308   8.671  19.925  0.00  0.00    +0.000 A 
ATOM     24  C   UNL     1       0.808   8.871  21.220  0.00  0.00    +0.000 A 
BRANCH  19  26
ATOM     25  C   UNL     1      -1.527  11.189  23.186  0.00  0.00    +0.000 C 
ATOM     26  C   UNL     1      -0.356  10.265  22.947  0.00  0.00    +0.000 C 
ATOM     27  O   UNL     1       0.207   9.696  23.879  0.00  0.00    +0.000 OA
ENDBRANCH  19  26
ENDBRANCH  15  23
ENDBRANCH   1  16
TORSDOF 4
ENDMDL
MODEL 3
REMARK VINA RESULT:      -8.7      2.064      8.054
REMARK  Name = 
REMARK  5 active torsions:
REMARK  status: ('A' for Active; 'I' for Inactive)
REMARK    1  A    between atoms: C_1  and  C_2
REMARK    2  A    between atoms: C_2  and  C_4
REMARK    3  A    between atoms: C_8  and  N_9
REMARK    4  A    between atoms: C_10  and  C_12
REMARK    5  A    between atoms: C_15  and  C_16
REMARK                            x       y       z     vdW  Elec       q    Type
REMARK                         _______ _______ _______ _____ _____    ______ ____
ROOT
ATOM      1  C   UNL     1       3.523   4.239  18.761  0.00  0.00    +0.000 C 
ATOM      2  C   UNL     1       4.131   4.269  17.347  0.00  0.00    +0.000 C 
ATOM      3  C   UNL     1       5.530   4.637  17.662  0.00  0.00    +0.000 A 
ATOM      4  C   UNL     1       6.646   4.830  16.864  0.00  0.00    +0.000 A 
ATOM      5  C   UNL     1       7.832   5.206  17.514  0.00  0.00    +0.000 A 
ATOM      6  C   UNL     1       7.847   5.332  18.900  0.00  0.00    +0.000 A 
ATOM      7  N   UNL     1       6.781   5.093  19.687  0.00  0.00    +0.000 NA
ATOM      8  C   UNL     1       5.672   4.748  19.029  0.00  0.00    +0.000 A 
ATOM      9  O   UNL     1       4.546   4.435  19.753  0.00  0.00    +0.000 OA
ENDROOT
BRANCH   4  10
ATOM     10  C   UNL     1       6.667   4.602  15.425  0.00  0.00    +0.000 A 
ATOM     11  C   UNL     1       5.933   3.784  14.586  0.00  0.00    +0.000 A 
ATOM     12  C   UNL     1       6.416   4.001  13.275  0.00  0.00    +0.000 A 
ATOM     13  C   UNL     1       7.419   4.936  13.393  0.00  0.00    +0.000 A 
ATOM     14  O   UNL     1       7.573   5.309  14.689  0.00  0.00    +0.000 OA
ENDBRANCH   4  10
BRANCH   1  16
ATOM     15  N   UNL     1       2.861   6.593  18.976  0.00  0.00    +0.000 N 
ATOM     16  C   UNL     1       2.409   5.280  18.931  0.00  0.00    +0.000 C 
ATOM     17  O   UNL     1       1.236   4.916  19.017  0.00  0.00    +0.000 OA
ATOM     18  H   UNL     1       3.844   6.729  18.746  0.00  0.00    +0.000 HD
BRANCH  15  23
ATOM     19  C   UNL     1       0.979   9.246  20.774  0.00  0.00    +0.000 A 
ATOM     20  C   UNL     1       0.567  10.058  19.713  0.00  0.00    +0.000 A 
ATOM     21  C   UNL     1       0.888   9.709  18.405  0.00  0.00    +0.000 A 
ATOM     22  C   UNL     1       1.640   8.563  18.150  0.00  0.00    +0.000 A 
ATOM     23  C   UNL     1       2.080   7.747  19.195  0.00  0.00    +0.000 A 
ATOM     24  C   UNL     1       1.723   8.081  20.509  0.00  0.00    +0.000 A 
BRANCH  19  26
ATOM     25  C   UNL     1      -0.754  10.018  22.531  0.00  0.00    +0.000 C 
ATOM     26  C   UNL     1       0.658   9.608  22.188  0.00  0.00    +0.000 C 
ATOM     27  O   UNL     1       1.537   9.572  23.046  0.00  0.00    +0.000 OA
ENDBRANCH  19  26
ENDBRANCH  15  23
ENDBRANCH   1  16
TORSDOF 4
ENDMDL
MODEL 4
REMARK VINA RESULT:      -8.6      0.852      1.094
REMARK  Name = 
REMARK  5 active torsions:
REMARK  status: ('A' for Active; 'I' for Inactive)
REMARK    1  A    between atoms: C_1  and  C_2
REMARK    2  A    between atoms: C_2  and  C_4
REMARK    3  A    between atoms: C_8  and  N_9
REMARK    4  A    between atoms: C_10  and  C_12
REMARK    5  A    between atoms: C_15  and  C_16
REMARK                            x       y       z     vdW  Elec       q    Type
REMARK                         _______ _______ _______ _____ _____    ______ ____
ROOT
ATOM      1  C   UNL     1       6.325   5.365  18.344  0.00  0.00    +0.000 C 
ATOM      2  C   UNL     1       5.181   6.327  18.714  0.00  0.00    +0.000 C 
ATOM      3  C   UNL     1       4.097   5.360  19.000  0.00  0.00    +0.000 A 
ATOM      4  C   UNL     1       2.782   5.525  19.405  0.00  0.00    +0.000 A 
ATOM      5  C   UNL     1       2.015   4.361  19.558  0.00  0.00    +0.000 A 
ATOM      6  C   UNL     1       2.601   3.116  19.336  0.00  0.00    +0.000 A 
ATOM      7  N   UNL     1       3.892   2.946  18.996  0.00  0.00    +0.000 NA
ATOM      8  C   UNL     1       4.583   4.079  18.851  0.00  0.00    +0.000 A 
ATOM      9  O   UNL     1       5.923   4.001  18.554  0.00  0.00    +0.000 OA
ENDROOT
BRANCH   4  10
ATOM     10  C   UNL     1       2.188   6.815  19.737  0.00  0.00    +0.000 A 
ATOM     11  C   UNL     1       1.628   7.328  20.892  0.00  0.00    +0.000 A 
ATOM     12  C   UNL     1       1.219   8.649  20.598  0.00  0.00    +0.000 A 
ATOM     13  C   UNL     1       1.548   8.860  19.279  0.00  0.00    +0.000 A 
ATOM     14  O   UNL     1       2.141   7.758  18.752  0.00  0.00    +0.000 OA
ENDBRANCH   4  10
BRANCH   1  16
ATOM     15  N   UNL     1       6.285   4.642  16.000  0.00  0.00    +0.000 N 
ATOM     16  C   UNL     1       6.801   5.566  16.900  0.00  0.00    +0.000 C 
ATOM     17  O   UNL     1       7.577   6.484  16.630  0.00  0.00    +0.000 OA
ATOM     18  H   UNL     1       5.549   4.040  16.360  0.00  0.00    +0.000 HD
BRANCH  15  23
ATOM     19  C   UNL     1       6.109   3.547  12.452  0.00  0.00    +0.000 A 
ATOM     20  C   UNL     1       7.135   4.306  11.878  0.00  0.00    +0.000 A 
ATOM     21  C   UNL     1       7.898   5.154  12.673  0.00  0.00    +0.000 A 
ATOM     22  C   UNL     1       7.631   5.268  14.037  0.00  0.00    +0.000 A 
ATOM     23  C   UNL     1       6.600   4.536  14.628  0.00  0.00    +0.000 A 
ATOM     24  C   UNL     1       5.855   3.653  13.832  0.00  0.00    +0.000 A 
BRANCH  19  26
ATOM     25  C   UNL     1       3.926   3.137  11.127  0.00  0.00    +0.000 C 
ATOM     26  C   UNL     1       5.265   2.639  11.616  0.00  0.00    +0.000 C 
ATOM     27  O   UNL     1       5.664   1.510  11.343  0.00  0.00    +0.000 OA
ENDBRANCH  19  26
ENDBRANCH  15  23
ENDBRANCH   1  16
TORSDOF 4
ENDMDL
MODEL 5
REMARK VINA RESULT:      -8.4      1.161      1.420
REMARK  Name = 
REMARK  5 active torsions:
REMARK  status: ('A' for Active; 'I' for Inactive)
REMARK    1  A    between atoms: C_1  and  C_2
REMARK    2  A    between atoms: C_2  and  C_4
REMARK    3  A    between atoms: C_8  and  N_9
REMARK    4  A    between atoms: C_10  and  C_12
REMARK    5  A    between atoms: C_15  and  C_16
REMARK                            x       y       z     vdW  Elec       q    Type
REMARK                         _______ _______ _______ _____ _____    ______ ____
ROOT
ATOM      1  C   UNL     1       5.441   4.753  18.158  0.00  0.00    +0.000 C 
ATOM      2  C   UNL     1       4.463   5.901  18.470  0.00  0.00    +0.000 C 
ATOM      3  C   UNL     1       3.531   5.218  19.395  0.00  0.00    +0.000 A 
ATOM      4  C   UNL     1       2.408   5.655  20.080  0.00  0.00    +0.000 A 
ATOM      5  C   UNL     1       1.738   4.707  20.867  0.00  0.00    +0.000 A 
ATOM      6  C   UNL     1       2.234   3.408  20.954  0.00  0.00    +0.000 A 
ATOM      7  N   UNL     1       3.355   2.991  20.336  0.00  0.00    +0.000 NA
ATOM      8  C   UNL     1       3.956   3.921  19.590  0.00  0.00    +0.000 A 
ATOM      9  O   UNL     1       5.136   3.600  18.961  0.00  0.00    +0.000 OA
ENDROOT
BRANCH   4  10
ATOM     10  C   UNL     1       1.938   7.034  20.076  0.00  0.00    +0.000 A 
ATOM     11  C   UNL     1       1.376   7.844  21.046  0.00  0.00    +0.000 A 
ATOM     12  C   UNL     1       1.125   9.097  20.440  0.00  0.00    +0.000 A 
ATOM     13  C   UNL     1       1.544   8.974  19.135  0.00  0.00    +0.000 A 
ATOM     14  O   UNL     1       2.043   7.732  18.908  0.00  0.00    +0.000 OA
ENDBRANCH   4  10
BRANCH   1  16
ATOM     15  N   UNL     1       6.562   4.812  15.976  0.00  0.00    +0.000 N 
ATOM     16  C   UNL     1       5.438   4.383  16.670  0.00  0.00    +0.000 C 
ATOM     17  O   UNL     1       4.488   3.760  16.193  0.00  0.00    +0.000 OA
ATOM     18  H   UNL     1       7.317   5.186  16.547  0.00  0.00    +0.000 HD
BRANCH  15  23
ATOM     19  C   UNL     1       6.209   3.632  12.469  0.00  0.00    +0.000 A 
ATOM     20  C   UNL     1       7.184   4.396  11.821  0.00  0.00    +0.000 A 
ATOM     21  C   UNL     1       7.974   5.278  12.552  0.00  0.00    +0.000 A 
ATOM     22  C   UNL     1       7.781   5.418  13.926  0.00  0.00    +0.000 A 
ATOM     23  C   UNL     1       6.801   4.680  14.591  0.00  0.00    +0.000 A 
ATOM     24  C   UNL     1       6.031   3.764  13.858  0.00  0.00    +0.000 A 
BRANCH  19  26
ATOM     25  C   UNL     1       3.990   3.170  11.224  0.00  0.00    +0.000 C 
ATOM     26  C   UNL     1       5.338   2.688  11.703  0.00  0.00    +0.000 C 
ATOM     27  O   UNL     1       5.723   1.543  11.478  0.00  0.00    +0.000 OA
ENDBRANCH  19  26
ENDBRANCH  15  23
ENDBRANCH   1  16
TORSDOF 4
ENDMDL
MODEL 6
REMARK VINA RESULT:      -8.4      1.261      1.406
REMARK  Name = 
REMARK  5 active torsions:
REMARK  status: ('A' for Active; 'I' for Inactive)
REMARK    1  A    between atoms: C_1  and  C_2
REMARK    2  A    between atoms: C_2  and  C_4
REMARK    3  A    between atoms: C_8  and  N_9
REMARK    4  A    between atoms: C_10  and  C_12
REMARK    5  A    between atoms: C_15  and  C_16
REMARK                            x       y       z     vdW  Elec       q    Type
REMARK                         _______ _______ _______ _____ _____    ______ ____
ROOT
ATOM      1  C   UNL     1       5.522   5.878  17.909  0.00  0.00    +0.000 C 
ATOM      2  C   UNL     1       4.448   6.848  18.436  0.00  0.00    +0.000 C 
ATOM      3  C   UNL     1       3.527   5.897  19.097  0.00  0.00    +0.000 A 
ATOM      4  C   UNL     1       2.344   6.078  19.797  0.00  0.00    +0.000 A 
ATOM      5  C   UNL     1       1.708   4.922  20.275  0.00  0.00    +0.000 A 
ATOM      6  C   UNL     1       2.294   3.676  20.065  0.00  0.00    +0.000 A 
ATOM      7  N   UNL     1       3.471   3.498  19.434  0.00  0.00    +0.000 NA
ATOM      8  C   UNL     1       4.037   4.621  18.987  0.00  0.00    +0.000 A 
ATOM      9  O   UNL     1       5.265   4.542  18.374  0.00  0.00    +0.000 OA
ENDROOT
BRANCH   4  10
ATOM     10  C   UNL     1       1.775   7.382  20.110  0.00  0.00    +0.000 A 
ATOM     11  C   UNL     1       1.574   8.530  19.364  0.00  0.00    +0.000 A 
ATOM     12  C   UNL     1       0.975   9.479  20.225  0.00  0.00    +0.000 A 
ATOM     13  C   UNL     1       0.852   8.855  21.445  0.00  0.00    +0.000 A 
ATOM     14  O   UNL     1       1.327   7.585  21.383  0.00  0.00    +0.000 OA
ENDBRANCH   4  10
BRANCH   1  16
ATOM     15  N   UNL     1       6.315   4.828  15.837  0.00  0.00    +0.000 N 
ATOM     16  C   UNL     1       5.617   5.900  16.378  0.00  0.00    +0.000 C 
ATOM     17  O   UNL     1       5.098   6.820  15.743  0.00  0.00    +0.000 OA
ATOM     18  H   UNL     1       6.554   4.084  16.488  0.00  0.00    +0.000 HD
BRANCH  15  23
ATOM     19  C   UNL     1       6.103   3.503  12.370  0.00  0.00    +0.000 A 
ATOM     20  C   UNL     1       7.144   4.198  11.746  0.00  0.00    +0.000 A 
ATOM     21  C   UNL     1       7.929   5.079  12.481  0.00  0.00    +0.000 A 
ATOM     22  C   UNL     1       7.668   5.290  13.834  0.00  0.00    +0.000 A 
ATOM     23  C   UNL     1       6.623   4.623  14.475  0.00  0.00    +0.000 A 
ATOM     24  C   UNL     1       5.856   3.706  13.741  0.00  0.00    +0.000 A 
BRANCH  19  26
ATOM     25  C   UNL     1       3.897   3.049  11.099  0.00  0.00    +0.000 C 
ATOM     26  C   UNL     1       5.236   2.561  11.599  0.00  0.00    +0.000 C 
ATOM     27  O   UNL     1       5.615   1.412  11.385  0.00  0.00    +0.000 OA
ENDBRANCH  19  26
ENDBRANCH  15  23
ENDBRANCH   1  16
TORSDOF 4
ENDMDL
MODEL 7
REMARK VINA RESULT:      -8.4      2.325      8.230
REMARK  Name = 
REMARK  5 active torsions:
REMARK  status: ('A' for Active; 'I' for Inactive)
REMARK    1  A    between atoms: C_1  and  C_2
REMARK    2  A    between atoms: C_2  and  C_4
REMARK    3  A    between atoms: C_8  and  N_9
REMARK    4  A    between atoms: C_10  and  C_12
REMARK    5  A    between atoms: C_15  and  C_16
REMARK                            x       y       z     vdW  Elec       q    Type
REMARK                         _______ _______ _______ _____ _____    ______ ____
ROOT
ATOM      1  C   UNL     1       3.372   5.573  18.820  0.00  0.00    +0.000 C 
ATOM      2  C   UNL     1       3.988   5.326  17.430  0.00  0.00    +0.000 C 
ATOM      3  C   UNL     1       5.419   5.198  17.789  0.00  0.00    +0.000 A 
ATOM      4  C   UNL     1       6.553   4.955  17.029  0.00  0.00    +0.000 A 
ATOM      5  C   UNL     1       7.778   4.924  17.712  0.00  0.00    +0.000 A 
ATOM      6  C   UNL     1       7.801   5.100  19.094  0.00  0.00    +0.000 A 
ATOM      7  N   UNL     1       6.698   5.281  19.845  0.00  0.00    +0.000 NA
ATOM      8  C   UNL     1       5.556   5.314  19.155  0.00  0.00    +0.000 A 
ATOM      9  O   UNL     1       4.373   5.445  19.844  0.00  0.00    +0.000 OA
ENDROOT
BRANCH   4  10
ATOM     10  C   UNL     1       6.530   4.671  15.600  0.00  0.00    +0.000 A 
ATOM     11  C   UNL     1       5.792   3.798  14.821  0.00  0.00    +0.000 A 
ATOM     12  C   UNL     1       6.221   3.976  13.486  0.00  0.00    +0.000 A 
ATOM     13  C   UNL     1       7.199   4.943  13.531  0.00  0.00    +0.000 A 
ATOM     14  O   UNL     1       7.388   5.373  14.805  0.00  0.00    +0.000 OA
ENDBRANCH   4  10
BRANCH   1  16
ATOM     15  N   UNL     1       2.143   7.223  20.158  0.00  0.00    +0.000 N 
ATOM     16  C   UNL     1       2.688   6.942  18.911  0.00  0.00    +0.000 C 
ATOM     17  O   UNL     1       2.656   7.681  17.925  0.00  0.00    +0.000 OA
ATOM     18  H   UNL     1       2.382   6.569  20.900  0.00  0.00    +0.000 HD
BRANCH  15  23
ATOM     19  C   UNL     1       0.051  10.276  19.809  0.00  0.00    +0.000 A 
ATOM     20  C   UNL     1      -0.144  10.630  21.148  0.00  0.00    +0.000 A 
ATOM     21  C   UNL     1       0.440   9.873  22.159  0.00  0.00    +0.000 A 
ATOM     22  C   UNL     1       1.203   8.750  21.842  0.00  0.00    +0.000 A 
ATOM     23  C   UNL     1       1.396   8.366  20.514  0.00  0.00    +0.000 A 
ATOM     24  C   UNL     1       0.837   9.152  19.496  0.00  0.00    +0.000 A 
BRANCH  19  26
ATOM     25  C   UNL     1      -1.535  10.368  17.770  0.00  0.00    +0.000 C 
ATOM     26  C   UNL     1      -0.578  11.065  18.706  0.00  0.00    +0.000 C 
ATOM     27  O   UNL     1      -0.309  12.256  18.573  0.00  0.00    +0.000 OA
ENDBRANCH  19  26
ENDBRANCH  15  23
ENDBRANCH   1  16
TORSDOF 4
ENDMDL
MODEL 8
REMARK VINA RESULT:      -8.3      1.100      1.185
REMARK  Name = 
REMARK  5 active torsions:
REMARK  status: ('A' for Active; 'I' for Inactive)
REMARK    1  A    between atoms: C_1  and  C_2
REMARK    2  A    between atoms: C_2  and  C_4
REMARK    3  A    between atoms: C_8  and  N_9
REMARK    4  A    between atoms: C_10  and  C_12
REMARK    5  A    between atoms: C_15  and  C_16
REMARK                            x       y       z     vdW  Elec       q    Type
REMARK                         _______ _______ _______ _____ _____    ______ ____
ROOT
ATOM      1  C   UNL     1       5.658   4.824  18.128  0.00  0.00    +0.000 C 
ATOM      2  C   UNL     1       4.678   6.008  18.224  0.00  0.00    +0.000 C 
ATOM      3  C   UNL     1       3.661   5.443  19.139  0.00  0.00    +0.000 A 
ATOM      4  C   UNL     1       2.493   5.965  19.672  0.00  0.00    +0.000 A 
ATOM      5  C   UNL     1       1.743   5.119  20.503  0.00  0.00    +0.000 A 
ATOM      6  C   UNL     1       2.207   3.835  20.778  0.00  0.00    +0.000 A 
ATOM      7  N   UNL     1       3.368   3.340  20.308  0.00  0.00    +0.000 NA
ATOM      8  C   UNL     1       4.046   4.174  19.515  0.00  0.00    +0.000 A 
ATOM      9  O   UNL     1       5.267   3.773  19.028  0.00  0.00    +0.000 OA
ENDROOT
BRANCH   4  10
ATOM     10  C   UNL     1       2.049   7.339  19.472  0.00  0.00    +0.000 A 
ATOM     11  C   UNL     1       2.065   8.188  18.381  0.00  0.00    +0.000 A 
ATOM     12  C   UNL     1       1.492   9.409  18.803  0.00  0.00    +0.000 A 
ATOM     13  C   UNL     1       1.166   9.234  20.128  0.00  0.00    +0.000 A 
ATOM     14  O   UNL     1       1.494   7.982  20.539  0.00  0.00    +0.000 OA
ENDBRANCH   4  10
BRANCH   1  16
ATOM     15  N   UNL     1       6.605   5.034  15.873  0.00  0.00    +0.000 N 
ATOM     16  C   UNL     1       5.773   4.286  16.697  0.00  0.00    +0.000 C 
ATOM     17  O   UNL     1       5.151   3.274  16.369  0.00  0.00    +0.000 OA
ATOM     18  H   UNL     1       7.152   5.755  16.338  0.00  0.00    +0.000 HD
BRANCH  15  23
ATOM     19  C   UNL     1       6.251   3.655  12.439  0.00  0.00    +0.000 A 
ATOM     20  C   UNL     1       7.228   4.381  11.750  0.00  0.00    +0.000 A 
ATOM     21  C   UNL     1       8.019   5.301  12.430  0.00  0.00    +0.000 A 
ATOM     22  C   UNL     1       7.825   5.520  13.793  0.00  0.00    +0.000 A 
ATOM     23  C   UNL     1       6.844   4.822  14.499  0.00  0.00    +0.000 A 
ATOM     24  C   UNL     1       6.073   3.868  13.819  0.00  0.00    +0.000 A 
BRANCH  19  26
ATOM     25  C   UNL     1       5.967   1.339  11.327  0.00  0.00    +0.000 C 
ATOM     26  C   UNL     1       5.380   2.671  11.728  0.00  0.00    +0.000 C 
ATOM     27  O   UNL     1       4.211   2.954  11.478  0.00  0.00    +0.000 OA
ENDBRANCH  19  26
ENDBRANCH  15  23
ENDBRANCH   1  16
TORSDOF 4
ENDMDL
MODEL 9
REMARK VINA RESULT:      -8.1      2.142      7.854
REMARK  Name = 
REMARK  5 active torsions:
REMARK  status: ('A' for Active; 'I' for Inactive)
REMARK    1  A    between atoms: C_1  and  C_2
REMARK    2  A    between atoms: C_2  and  C_4
REMARK    3  A    between atoms: C_8  and  N_9
REMARK    4  A    between atoms: C_10  and  C_12
REMARK    5  A    between atoms: C_15  and  C_16
REMARK                            x       y       z     vdW  Elec       q    Type
REMARK                         _______ _______ _______ _____ _____    ______ ____
ROOT
ATOM      1  C   UNL     1       3.647   4.206  19.189  0.00  0.00    +0.000 C 
ATOM      2  C   UNL     1       4.159   4.226  17.736  0.00  0.00    +0.000 C 
ATOM      3  C   UNL     1       5.529   4.748  17.940  0.00  0.00    +0.000 A 
ATOM      4  C   UNL     1       6.567   5.012  17.061  0.00  0.00    +0.000 A 
ATOM      5  C   UNL     1       7.746   5.537  17.611  0.00  0.00    +0.000 A 
ATOM      6  C   UNL     1       7.835   5.734  18.987  0.00  0.00    +0.000 A 
ATOM      7  N   UNL     1       6.851   5.428  19.854  0.00  0.00    +0.000 NA
ATOM      8  C   UNL     1       5.744   4.941  19.288  0.00  0.00    +0.000 A 
ATOM      9  O   UNL     1       4.704   4.553  20.099  0.00  0.00    +0.000 OA
ENDROOT
BRANCH   4  10
ATOM     10  C   UNL     1       6.521   4.716  15.634  0.00  0.00    +0.000 A 
ATOM     11  C   UNL     1       5.666   3.961  14.852  0.00  0.00    +0.000 A 
ATOM     12  C   UNL     1       6.137   4.052  13.523  0.00  0.00    +0.000 A 
ATOM     13  C   UNL     1       7.256   4.852  13.574  0.00  0.00    +0.000 A 
ATOM     14  O   UNL     1       7.491   5.263  14.846  0.00  0.00    +0.000 OA
ENDBRANCH   4  10
BRANCH   1  16
ATOM     15  N   UNL     1       2.778   6.405  19.846  0.00  0.00    +0.000 N 
ATOM     16  C   UNL     1       2.444   5.137  19.388  0.00  0.00    +0.000 C 
ATOM     17  O   UNL     1       1.306   4.731  19.147  0.00  0.00    +0.000 OA
ATOM     18  H   UNL     1       3.772   6.623  19.856  0.00  0.00    +0.000 HD
BRANCH  15  23
ATOM     19  C   UNL     1       0.917   9.617  19.647  0.00  0.00    +0.000 A 
ATOM     20  C   UNL     1       0.090   9.526  20.771  0.00  0.00    +0.000 A 
ATOM     21  C   UNL     1       0.172   8.416  21.604  0.00  0.00    +0.000 A 
ATOM     22  C   UNL     1       1.061   7.383  21.312  0.00  0.00    +0.000 A 
ATOM     23  C   UNL     1       1.883   7.442  20.185  0.00  0.00    +0.000 A 
ATOM     24  C   UNL     1       1.825   8.579  19.367  0.00  0.00    +0.000 A 
BRANCH  19  26
ATOM     25  C   UNL     1      -0.514  11.401  18.441  0.00  0.00    +0.000 C 
ATOM     26  C   UNL     1       0.838  10.793  18.728  0.00  0.00    +0.000 C 
ATOM     27  O   UNL     1       1.861  11.245  18.219  0.00  0.00    +0.000 OA
ENDBRANCH  19  26
ENDBRANCH  15  23
ENDBRANCH   1  16
TORSDOF 4
ENDMDL
