MODEL 1
REMARK VINA RESULT:      -7.1      0.000      0.000
REMARK  Name = 
REMARK  11 active torsions:
REMARK  status: ('A' for Active; 'I' for Inactive)
REMARK    1  A    between atoms: C_1  and  C_2
REMARK    2  A    between atoms: C_2  and  C_3
REMARK    3  A    between atoms: C_3  and  C_4
REMARK    4  A    between atoms: C_3  and  C_5
REMARK    5  A    between atoms: C_3  and  C_6
REMARK    6  A    between atoms: C_9  and  O_10
REMARK    7  A    between atoms: O_10  and  C_11
REMARK    8  A    between atoms: C_11  and  C_12
REMARK    9  A    between atoms: C_12  and  N_13
REMARK   10  A    between atoms: C_17  and  C_18
REMARK   11  A    between atoms: C_17  and  C_19
REMARK                            x       y       z     vdW  Elec       q    Type
REMARK                         _______ _______ _______ _____ _____    ______ ____
ROOT
ATOM      1  O   UNL     1       3.888   7.010  17.134  0.00  0.00    +0.000 OA
ENDROOT
BRANCH   1   5
ATOM      2  C   UNL     1       1.187   9.058  19.651  0.00  0.00    +0.000 A 
ATOM      3  C   UNL     1       1.851   7.907  20.093  0.00  0.00    +0.000 A 
ATOM      4  C   UNL     1       2.750   7.219  19.281  0.00  0.00    +0.000 A 
ATOM      5  C   UNL     1       3.029   7.646  17.991  0.00  0.00    +0.000 A 
ATOM      6  C   UNL     1       2.391   8.795  17.523  0.00  0.00    +0.000 A 
ATOM      7  C   UNL     1       1.480   9.497  18.342  0.00  0.00    +0.000 A 
BRANCH   2   8
ATOM      8  C   UNL     1       0.183   9.786  20.563  0.00  0.00    +0.000 C 
ATOM      9  C   UNL     1      -1.064  10.306  19.801  0.00  0.00    +0.000 C 
ATOM     10  C   UNL     1       0.867  11.039  21.164  0.00  0.00    +0.000 C 
BRANCH   8  12
ATOM     11  C   UNL     1      -0.101   9.467  23.133  0.00  0.00    +0.000 C 
ATOM     12  C   UNL     1      -0.295   8.882  21.737  0.00  0.00    +0.000 C 
ENDBRANCH   8  12
ENDBRANCH   2   8
ENDBRANCH   1   5
BRANCH   1  13
ATOM     13  C   UNL     1       4.729   6.025  17.761  0.00  0.00    +0.000 C 
BRANCH  13  14
ATOM     14  C   UNL     1       4.398   4.614  17.285  0.00  0.00    +0.000 C 
BRANCH  14  15
ATOM     15  N   UNL     1       3.570   3.892  18.241  0.00  0.00    +0.000 N 
ATOM     16  C   UNL     1       4.053   3.244  19.338  0.00  0.00    +0.000 C 
ATOM     17  O   UNL     1       5.211   3.187  19.717  0.00  0.00    +0.000 OA
ATOM     18  N   UNL     1       2.998   2.660  20.009  0.00  0.00    +0.000 N 
ATOM     19  C   UNL     1       1.729   2.926  19.370  0.00  0.00    +0.000 C 
ATOM     20  C   UNL     1       0.754   3.577  20.333  0.00  0.00    +0.000 C 
ATOM     21  C   UNL     1       1.152   1.662  18.740  0.00  0.00    +0.000 C 
ATOM     22  C   UNL     1       2.201   3.882  18.255  0.00  0.00    +0.000 C 
ATOM     23  O   UNL     1       1.466   4.490  17.491  0.00  0.00    +0.000 OA
ATOM     24  H   UNL     1       3.149   2.113  20.843  0.00  0.00    +0.000 HD
ENDBRANCH  14  15
ENDBRANCH  13  14
ENDBRANCH   1  13
TORSDOF 6
ENDMDL
MODEL 2
REMARK VINA RESULT:      -6.9      0.460      1.096
REMARK  Name = 
REMARK  11 active torsions:
REMARK  status: ('A' for Active; 'I' for Inactive)
REMARK    1  A    between atoms: C_1  and  C_2
REMARK    2  A    between atoms: C_2  and  C_3
REMARK    3  A    between atoms: C_3  and  C_4
REMARK    4  A    between atoms: C_3  and  C_5
REMARK    5  A    between atoms: C_3  and  C_6
REMARK    6  A    between atoms: C_9  and  O_10
REMARK    7  A    between atoms: O_10  and  C_11
REMARK    8  A    between atoms: C_11  and  C_12
REMARK    9  A    between atoms: C_12  and  N_13
REMARK   10  A    between atoms: C_17  and  C_18
REMARK   11  A    between atoms: C_17  and  C_19
REMARK                            x       y       z     vdW  Elec       q    Type
REMARK                         _______ _______ _______ _____ _____    ______ ____
ROOT
ATOM      1  O   UNL     1       3.463   7.376  17.044  0.00  0.00    +0.000 OA
ENDROOT
BRANCH   1   5
ATOM      2  C   UNL     1       0.961   9.418  19.764  0.00  0.00    +0.000 A 
ATOM      3  C   UNL     1       1.197   9.929  18.482  0.00  0.00    +0.000 A 
ATOM      4  C   UNL     1       2.015   9.269  17.567  0.00  0.00    +0.000 A 
ATOM      5  C   UNL     1       2.635   8.070  17.888  0.00  0.00    +0.000 A 
ATOM      6  C   UNL     1       2.413   7.530  19.155  0.00  0.00    +0.000 A 
ATOM      7  C   UNL     1       1.584   8.193  20.085  0.00  0.00    +0.000 A 
BRANCH   2   8
ATOM      8  C   UNL     1       0.069  10.180  20.763  0.00  0.00    +0.000 C 
ATOM      9  C   UNL     1      -1.130  10.893  20.085  0.00  0.00    +0.000 C 
ATOM     10  C   UNL     1       0.907  11.299  21.430  0.00  0.00    +0.000 C 
BRANCH   8  12
ATOM     11  C   UNL     1       0.117   9.475  23.269  0.00  0.00    +0.000 C 
ATOM     12  C   UNL     1      -0.476   9.246  21.883  0.00  0.00    +0.000 C 
ENDBRANCH   8  12
ENDBRANCH   2   8
ENDBRANCH   1   5
BRANCH   1  13
ATOM     13  C   UNL     1       4.435   6.554  17.713  0.00  0.00    +0.000 C 
BRANCH  13  14
ATOM     14  C   UNL     1       4.353   5.100  17.257  0.00  0.00    +0.000 C 
BRANCH  14  15
ATOM     15  N   UNL     1       3.670   4.257  18.229  0.00  0.00    +0.000 N 
ATOM     16  C   UNL     1       4.291   3.613  19.256  0.00  0.00    +0.000 C 
ATOM     17  O   UNL     1       5.473   3.657  19.553  0.00  0.00    +0.000 OA
ATOM     18  N   UNL     1       3.348   2.897  19.965  0.00  0.00    +0.000 N 
ATOM     19  C   UNL     1       2.017   3.062  19.427  0.00  0.00    +0.000 C 
ATOM     20  C   UNL     1       1.055   3.569  20.485  0.00  0.00    +0.000 C 
ATOM     21  C   UNL     1       1.523   1.776  18.774  0.00  0.00    +0.000 C 
ATOM     22  C   UNL     1       2.313   4.109  18.334  0.00  0.00    +0.000 C 
ATOM     23  O   UNL     1       1.470   4.673  17.651  0.00  0.00    +0.000 OA
ATOM     24  H   UNL     1       3.611   2.332  20.759  0.00  0.00    +0.000 HD
ENDBRANCH  14  15
ENDBRANCH  13  14
ENDBRANCH   1  13
TORSDOF 6
ENDMDL
MODEL 3
REMARK VINA RESULT:      -6.9      2.380      4.006
REMARK  Name = 
REMARK  11 active torsions:
REMARK  status: ('A' for Active; 'I' for Inactive)
REMARK    1  A    between atoms: C_1  and  C_2
REMARK    2  A    between atoms: C_2  and  C_3
REMARK    3  A    between atoms: C_3  and  C_4
REMARK    4  A    between atoms: C_3  and  C_5
REMARK    5  A    between atoms: C_3  and  C_6
REMARK    6  A    between atoms: C_9  and  O_10
REMARK    7  A    between atoms: O_10  and  C_11
REMARK    8  A    between atoms: C_11  and  C_12
REMARK    9  A    between atoms: C_12  and  N_13
REMARK   10  A    between atoms: C_17  and  C_18
REMARK   11  A    between atoms: C_17  and  C_19
REMARK                            x       y       z     vdW  Elec       q    Type
REMARK                         _______ _______ _______ _____ _____    ______ ____
ROOT
ATOM      1  O   UNL     1       3.136   5.006  19.655  0.00  0.00    +0.000 OA
ENDROOT
BRANCH   1   5
ATOM      2  C   UNL     1       1.539   8.884  19.167  0.00  0.00    +0.000 A 
ATOM      3  C   UNL     1       2.203   8.242  18.115  0.00  0.00    +0.000 A 
ATOM      4  C   UNL     1       2.733   6.960  18.252  0.00  0.00    +0.000 A 
ATOM      5  C   UNL     1       2.625   6.260  19.445  0.00  0.00    +0.000 A 
ATOM      6  C   UNL     1       1.962   6.868  20.511  0.00  0.00    +0.000 A 
ATOM      7  C   UNL     1       1.421   8.166  20.377  0.00  0.00    +0.000 A 
BRANCH   2   8
ATOM      8  C   UNL     1       0.982  10.309  18.993  0.00  0.00    +0.000 C 
ATOM      9  C   UNL     1       0.711  11.025  20.342  0.00  0.00    +0.000 C 
ATOM     10  C   UNL     1      -0.387  10.228  18.273  0.00  0.00    +0.000 C 
BRANCH   8  12
ATOM     11  C   UNL     1       2.099  12.634  18.634  0.00  0.00    +0.000 C 
ATOM     12  C   UNL     1       1.930  11.201  18.139  0.00  0.00    +0.000 C 
ENDBRANCH   8  12
ENDBRANCH   2   8
ENDBRANCH   1   5
BRANCH   1  13
ATOM     13  C   UNL     1       4.570   4.959  19.756  0.00  0.00    +0.000 C 
BRANCH  13  14
ATOM     14  C   UNL     1       5.156   3.802  18.953  0.00  0.00    +0.000 C 
BRANCH  14  15
ATOM     15  N   UNL     1       5.713   4.241  17.681  0.00  0.00    +0.000 N 
ATOM     16  C   UNL     1       7.026   4.544  17.484  0.00  0.00    +0.000 C 
ATOM     17  O   UNL     1       7.935   4.469  18.293  0.00  0.00    +0.000 OA
ATOM     18  N   UNL     1       7.198   4.937  16.172  0.00  0.00    +0.000 N 
ATOM     19  C   UNL     1       5.966   4.887  15.420  0.00  0.00    +0.000 C 
ATOM     20  C   UNL     1       6.107   4.011  14.189  0.00  0.00    +0.000 C 
ATOM     21  C   UNL     1       5.475   6.289  15.070  0.00  0.00    +0.000 C 
ATOM     22  C   UNL     1       5.039   4.275  16.490  0.00  0.00    +0.000 C 
ATOM     23  O   UNL     1       3.884   3.922  16.303  0.00  0.00    +0.000 OA
ATOM     24  H   UNL     1       8.103   5.224  15.828  0.00  0.00    +0.000 HD
ENDBRANCH  14  15
ENDBRANCH  13  14
ENDBRANCH   1  13
TORSDOF 6
ENDMDL
MODEL 4
REMARK VINA RESULT:      -6.9      1.944      3.787
REMARK  Name = 
REMARK  11 active torsions:
REMARK  status: ('A' for Active; 'I' for Inactive)
REMARK    1  A    between atoms: C_1  and  C_2
REMARK    2  A    between atoms: C_2  and  C_3
REMARK    3  A    between atoms: C_3  and  C_4
REMARK    4  A    between atoms: C_3  and  C_5
REMARK    5  A    between atoms: C_3  and  C_6
REMARK    6  A    between atoms: C_9  and  O_10
REMARK    7  A    between atoms: O_10  and  C_11
REMARK    8  A    between atoms: C_11  and  C_12
REMARK    9  A    between atoms: C_12  and  N_13
REMARK   10  A    between atoms: C_17  and  C_18
REMARK   11  A    between atoms: C_17  and  C_19
REMARK                            x       y       z     vdW  Elec       q    Type
REMARK                         _______ _______ _______ _____ _____    ______ ____
ROOT
ATOM      1  O   UNL     1       2.764   7.193  19.838  0.00  0.00    +0.000 OA
ENDROOT
BRANCH   1   5
ATOM      2  C   UNL     1       0.057  10.329  19.024  0.00  0.00    +0.000 A 
ATOM      3  C   UNL     1       0.892   9.821  18.021  0.00  0.00    +0.000 A 
ATOM      4  C   UNL     1       1.788   8.783  18.266  0.00  0.00    +0.000 A 
ATOM      5  C   UNL     1       1.894   8.204  19.523  0.00  0.00    +0.000 A 
ATOM      6  C   UNL     1       1.070   8.682  20.542  0.00  0.00    +0.000 A 
ATOM      7  C   UNL     1       0.159   9.732  20.299  0.00  0.00    +0.000 A 
BRANCH   2   8
ATOM      8  C   UNL     1      -0.910  11.491  18.730  0.00  0.00    +0.000 C 
ATOM      9  C   UNL     1      -0.180  12.822  18.409  0.00  0.00    +0.000 C 
ATOM     10  C   UNL     1      -1.761  11.768  19.993  0.00  0.00    +0.000 C 
BRANCH   8  12
ATOM     11  C   UNL     1      -2.778   9.948  17.774  0.00  0.00    +0.000 C 
ATOM     12  C   UNL     1      -1.875  11.159  17.554  0.00  0.00    +0.000 C 
ENDBRANCH   8  12
ENDBRANCH   2   8
ENDBRANCH   1   5
BRANCH   1  13
ATOM     13  C   UNL     1       2.246   5.871  19.602  0.00  0.00    +0.000 C 
BRANCH  13  14
ATOM     14  C   UNL     1       2.742   5.299  18.277  0.00  0.00    +0.000 C 
BRANCH  14  15
ATOM     15  N   UNL     1       4.144   4.908  18.338  0.00  0.00    +0.000 N 
ATOM     16  C   UNL     1       4.586   3.715  18.824  0.00  0.00    +0.000 C 
ATOM     17  O   UNL     1       3.913   2.788  19.243  0.00  0.00    +0.000 OA
ATOM     18  N   UNL     1       5.964   3.687  18.745  0.00  0.00    +0.000 N 
ATOM     19  C   UNL     1       6.502   4.895  18.163  0.00  0.00    +0.000 C 
ATOM     20  C   UNL     1       7.366   4.586  16.955  0.00  0.00    +0.000 C 
ATOM     21  C   UNL     1       7.250   5.723  19.204  0.00  0.00    +0.000 C 
ATOM     22  C   UNL     1       5.186   5.609  17.794  0.00  0.00    +0.000 C 
ATOM     23  O   UNL     1       5.103   6.650  17.158  0.00  0.00    +0.000 OA
ATOM     24  H   UNL     1       6.489   2.892  19.075  0.00  0.00    +0.000 HD
ENDBRANCH  14  15
ENDBRANCH  13  14
ENDBRANCH   1  13
TORSDOF 6
ENDMDL
MODEL 5
REMARK VINA RESULT:      -6.8      1.418      2.307
REMARK  Name = 
REMARK  11 active torsions:
REMARK  status: ('A' for Active; 'I' for Inactive)
REMARK    1  A    between atoms: C_1  and  C_2
REMARK    2  A    between atoms: C_2  and  C_3
REMARK    3  A    between atoms: C_3  and  C_4
REMARK    4  A    between atoms: C_3  and  C_5
REMARK    5  A    between atoms: C_3  and  C_6
REMARK    6  A    between atoms: C_9  and  O_10
REMARK    7  A    between atoms: O_10  and  C_11
REMARK    8  A    between atoms: C_11  and  C_12
REMARK    9  A    between atoms: C_12  and  N_13
REMARK   10  A    between atoms: C_17  and  C_18
REMARK   11  A    between atoms: C_17  and  C_19
REMARK                            x       y       z     vdW  Elec       q    Type
REMARK                         _______ _______ _______ _____ _____    ______ ____
ROOT
ATOM      1  O   UNL     1       3.356   6.618  18.467  0.00  0.00    +0.000 OA
ENDROOT
BRANCH   1   5
ATOM      2  C   UNL     1       0.702   9.789  19.324  0.00  0.00    +0.000 A 
ATOM      3  C   UNL     1       1.257   9.641  18.047  0.00  0.00    +0.000 A 
ATOM      4  C   UNL     1       2.130   8.599  17.741  0.00  0.00    +0.000 A 
ATOM      5  C   UNL     1       2.491   7.658  18.694  0.00  0.00    +0.000 A 
ATOM      6  C   UNL     1       1.948   7.772  19.974  0.00  0.00    +0.000 A 
ATOM      7  C   UNL     1       1.061   8.824  20.289  0.00  0.00    +0.000 A 
BRANCH   2   8
ATOM      8  C   UNL     1      -0.244  10.962  19.639  0.00  0.00    +0.000 C 
ATOM      9  C   UNL     1       0.355  12.343  19.265  0.00  0.00    +0.000 C 
ATOM     10  C   UNL     1      -0.495  11.008  21.166  0.00  0.00    +0.000 C 
BRANCH   8  12
ATOM     11  C   UNL     1      -1.851  11.748  17.745  0.00  0.00    +0.000 C 
ATOM     12  C   UNL     1      -1.618  10.807  18.924  0.00  0.00    +0.000 C 
ENDBRANCH   8  12
ENDBRANCH   2   8
ENDBRANCH   1   5
BRANCH   1  13
ATOM     13  C   UNL     1       4.175   6.775  17.296  0.00  0.00    +0.000 C 
BRANCH  13  14
ATOM     14  C   UNL     1       4.748   5.442  16.825  0.00  0.00    +0.000 C 
BRANCH  14  15
ATOM     15  N   UNL     1       4.542   4.380  17.800  0.00  0.00    +0.000 N 
ATOM     16  C   UNL     1       5.396   4.103  18.824  0.00  0.00    +0.000 C 
ATOM     17  O   UNL     1       6.423   4.694  19.115  0.00  0.00    +0.000 OA
ATOM     18  N   UNL     1       4.900   3.032  19.538  0.00  0.00    +0.000 N 
ATOM     19  C   UNL     1       3.644   2.555  19.007  0.00  0.00    +0.000 C 
ATOM     20  C   UNL     1       2.561   2.557  20.071  0.00  0.00    +0.000 C 
ATOM     21  C   UNL     1       3.804   1.185  18.357  0.00  0.00    +0.000 C 
ATOM     22  C   UNL     1       3.412   3.616  17.912  0.00  0.00    +0.000 C 
ATOM     23  O   UNL     1       2.400   3.719  17.235  0.00  0.00    +0.000 OA
ATOM     24  H   UNL     1       5.401   2.657  20.330  0.00  0.00    +0.000 HD
ENDBRANCH  14  15
ENDBRANCH  13  14
ENDBRANCH   1  13
TORSDOF 6
ENDMDL
MODEL 6
REMARK VINA RESULT:      -6.8      2.280      3.676
REMARK  Name = 
REMARK  11 active torsions:
REMARK  status: ('A' for Active; 'I' for Inactive)
REMARK    1  A    between atoms: C_1  and  C_2
REMARK    2  A    between atoms: C_2  and  C_3
REMARK    3  A    between atoms: C_3  and  C_4
REMARK    4  A    between atoms: C_3  and  C_5
REMARK    5  A    between atoms: C_3  and  C_6
REMARK    6  A    between atoms: C_9  and  O_10
REMARK    7  A    between atoms: O_10  and  C_11
REMARK    8  A    between atoms: C_11  and  C_12
REMARK    9  A    between atoms: C_12  and  N_13
REMARK   10  A    between atoms: C_17  and  C_18
REMARK   11  A    between atoms: C_17  and  C_19
REMARK                            x       y       z     vdW  Elec       q    Type
REMARK                         _______ _______ _______ _____ _____    ______ ____
ROOT
ATOM      1  O   UNL     1       3.055   5.259  18.914  0.00  0.00    +0.000 OA
ENDROOT
BRANCH   1   5
ATOM      2  C   UNL     1       1.377   9.120  19.241  0.00  0.00    +0.000 A 
ATOM      3  C   UNL     1       1.454   8.273  20.353  0.00  0.00    +0.000 A 
ATOM      4  C   UNL     1       2.009   6.997  20.269  0.00  0.00    +0.000 A 
ATOM      5  C   UNL     1       2.511   6.508  19.072  0.00  0.00    +0.000 A 
ATOM      6  C   UNL     1       2.456   7.330  17.947  0.00  0.00    +0.000 A 
ATOM      7  C   UNL     1       1.897   8.624  18.026  0.00  0.00    +0.000 A 
BRANCH   2   8
ATOM      8  C   UNL     1       0.739  10.517  19.359  0.00  0.00    +0.000 C 
ATOM      9  C   UNL     1       1.590  11.631  18.695  0.00  0.00    +0.000 C 
ATOM     10  C   UNL     1       0.636  10.896  20.857  0.00  0.00    +0.000 C 
BRANCH   8  12
ATOM     11  C   UNL     1      -1.537  11.764  19.135  0.00  0.00    +0.000 C 
ATOM     12  C   UNL     1      -0.692  10.554  18.747  0.00  0.00    +0.000 C 
ENDBRANCH   8  12
ENDBRANCH   2   8
ENDBRANCH   1   5
BRANCH   1  13
ATOM     13  C   UNL     1       4.210   5.008  19.734  0.00  0.00    +0.000 C 
BRANCH  13  14
ATOM     14  C   UNL     1       5.094   3.914  19.144  0.00  0.00    +0.000 C 
BRANCH  14  15
ATOM     15  N   UNL     1       5.694   4.315  17.879  0.00  0.00    +0.000 N 
ATOM     16  C   UNL     1       6.994   4.695  17.734  0.00  0.00    +0.000 C 
ATOM     17  O   UNL     1       7.857   4.731  18.594  0.00  0.00    +0.000 OA
ATOM     18  N   UNL     1       7.216   5.021  16.411  0.00  0.00    +0.000 N 
ATOM     19  C   UNL     1       6.035   4.841  15.598  0.00  0.00    +0.000 C 
ATOM     20  C   UNL     1       6.305   3.906  14.435  0.00  0.00    +0.000 C 
ATOM     21  C   UNL     1       5.475   6.182  15.135  0.00  0.00    +0.000 C 
ATOM     22  C   UNL     1       5.090   4.231  16.653  0.00  0.00    +0.000 C 
ATOM     23  O   UNL     1       3.973   3.788  16.427  0.00  0.00    +0.000 OA
ATOM     24  H   UNL     1       8.118   5.348  16.099  0.00  0.00    +0.000 HD
ENDBRANCH  14  15
ENDBRANCH  13  14
ENDBRANCH   1  13
TORSDOF 6
ENDMDL
MODEL 7
REMARK VINA RESULT:      -6.8      0.370      1.256
REMARK  Name = 
REMARK  11 active torsions:
REMARK  status: ('A' for Active; 'I' for Inactive)
REMARK    1  A    between atoms: C_1  and  C_2
REMARK    2  A    between atoms: C_2  and  C_3
REMARK    3  A    between atoms: C_3  and  C_4
REMARK    4  A    between atoms: C_3  and  C_5
REMARK    5  A    between atoms: C_3  and  C_6
REMARK    6  A    between atoms: C_9  and  O_10
REMARK    7  A    between atoms: O_10  and  C_11
REMARK    8  A    between atoms: C_11  and  C_12
REMARK    9  A    between atoms: C_12  and  N_13
REMARK   10  A    between atoms: C_17  and  C_18
REMARK   11  A    between atoms: C_17  and  C_19
REMARK                            x       y       z     vdW  Elec       q    Type
REMARK                         _______ _______ _______ _____ _____    ______ ____
ROOT
ATOM      1  O   UNL     1       3.790   7.098  17.106  0.00  0.00    +0.000 OA
ENDROOT
BRANCH   1   5
ATOM      2  C   UNL     1       1.139   9.152  19.671  0.00  0.00    +0.000 A 
ATOM      3  C   UNL     1       1.772   7.974  20.085  0.00  0.00    +0.000 A 
ATOM      4  C   UNL     1       2.655   7.283  19.257  0.00  0.00    +0.000 A 
ATOM      5  C   UNL     1       2.946   7.735  17.978  0.00  0.00    +0.000 A 
ATOM      6  C   UNL     1       2.338   8.910  17.538  0.00  0.00    +0.000 A 
ATOM      7  C   UNL     1       1.444   9.615  18.373  0.00  0.00    +0.000 A 
BRANCH   2   8
ATOM      8  C   UNL     1       0.151   9.882  20.600  0.00  0.00    +0.000 C 
ATOM      9  C   UNL     1       0.801  11.061  21.371  0.00  0.00    +0.000 C 
ATOM     10  C   UNL     1      -0.348   8.891  21.680  0.00  0.00    +0.000 C 
BRANCH   8  12
ATOM     11  C   UNL     1      -1.512  11.842  20.176  0.00  0.00    +0.000 C 
ATOM     12  C   UNL     1      -1.086  10.420  19.823  0.00  0.00    +0.000 C 
ENDBRANCH   8  12
ENDBRANCH   2   8
ENDBRANCH   1   5
BRANCH   1  13
ATOM     13  C   UNL     1       4.703   6.177  17.730  0.00  0.00    +0.000 C 
BRANCH  13  14
ATOM     14  C   UNL     1       4.448   4.741  17.284  0.00  0.00    +0.000 C 
BRANCH  14  15
ATOM     15  N   UNL     1       3.660   3.995  18.255  0.00  0.00    +0.000 N 
ATOM     16  C   UNL     1       4.184   3.346  19.332  0.00  0.00    +0.000 C 
ATOM     17  O   UNL     1       5.353   3.308  19.679  0.00  0.00    +0.000 OA
ATOM     18  N   UNL     1       3.159   2.736  20.025  0.00  0.00    +0.000 N 
ATOM     19  C   UNL     1       1.869   2.984  19.423  0.00  0.00    +0.000 C 
ATOM     20  C   UNL     1       0.908   3.608  20.418  0.00  0.00    +0.000 C 
ATOM     21  C   UNL     1       1.299   1.715  18.797  0.00  0.00    +0.000 C 
ATOM     22  C   UNL     1       2.293   3.958  18.306  0.00  0.00    +0.000 C 
ATOM     23  O   UNL     1       1.526   4.560  17.567  0.00  0.00    +0.000 OA
ATOM     24  H   UNL     1       3.343   2.185  20.850  0.00  0.00    +0.000 HD
ENDBRANCH  14  15
ENDBRANCH  13  14
ENDBRANCH   1  13
TORSDOF 6
ENDMDL
MODEL 8
REMARK VINA RESULT:      -6.7      1.680      3.476
REMARK  Name = 
REMARK  11 active torsions:
REMARK  status: ('A' for Active; 'I' for Inactive)
REMARK    1  A    between atoms: C_1  and  C_2
REMARK    2  A    between atoms: C_2  and  C_3
REMARK    3  A    between atoms: C_3  and  C_4
REMARK    4  A    between atoms: C_3  and  C_5
REMARK    5  A    between atoms: C_3  and  C_6
REMARK    6  A    between atoms: C_9  and  O_10
REMARK    7  A    between atoms: O_10  and  C_11
REMARK    8  A    between atoms: C_11  and  C_12
REMARK    9  A    between atoms: C_12  and  N_13
REMARK   10  A    between atoms: C_17  and  C_18
REMARK   11  A    between atoms: C_17  and  C_19
REMARK                            x       y       z     vdW  Elec       q    Type
REMARK                         _______ _______ _______ _____ _____    ______ ____
ROOT
ATOM      1  O   UNL     1       2.925   5.875  19.706  0.00  0.00    +0.000 OA
ENDROOT
BRANCH   1   5
ATOM      2  C   UNL     1       0.984   9.608  19.350  0.00  0.00    +0.000 A 
ATOM      3  C   UNL     1       0.947   8.890  20.552  0.00  0.00    +0.000 A 
ATOM      4  C   UNL     1       1.586   7.659  20.693  0.00  0.00    +0.000 A 
ATOM      5  C   UNL     1       2.288   7.087  19.642  0.00  0.00    +0.000 A 
ATOM      6  C   UNL     1       2.351   7.781  18.434  0.00  0.00    +0.000 A 
ATOM      7  C   UNL     1       1.708   9.029  18.285  0.00  0.00    +0.000 A 
BRANCH   2   8
ATOM      8  C   UNL     1       0.251  10.956  19.216  0.00  0.00    +0.000 C 
ATOM      9  C   UNL     1       1.189  12.118  18.797  0.00  0.00    +0.000 C 
ATOM     10  C   UNL     1      -0.325  11.353  20.598  0.00  0.00    +0.000 C 
BRANCH   8  12
ATOM     11  C   UNL     1      -2.272  11.373  18.724  0.00  0.00    +0.000 C 
ATOM     12  C   UNL     1      -0.927  10.878  18.202  0.00  0.00    +0.000 C 
ENDBRANCH   8  12
ENDBRANCH   2   8
ENDBRANCH   1   5
BRANCH   1  13
ATOM     13  C   UNL     1       2.142   4.769  19.220  0.00  0.00    +0.000 C 
BRANCH  13  14
ATOM     14  C   UNL     1       2.814   4.079  18.037  0.00  0.00    +0.000 C 
BRANCH  14  15
ATOM     15  N   UNL     1       4.260   4.249  18.050  0.00  0.00    +0.000 N 
ATOM     16  C   UNL     1       5.103   3.584  18.889  0.00  0.00    +0.000 C 
ATOM     17  O   UNL     1       4.810   2.738  19.717  0.00  0.00    +0.000 OA
ATOM     18  N   UNL     1       6.395   3.998  18.639  0.00  0.00    +0.000 N 
ATOM     19  C   UNL     1       6.461   4.972  17.574  0.00  0.00    +0.000 C 
ATOM     20  C   UNL     1       7.395   4.515  16.469  0.00  0.00    +0.000 C 
ATOM     21  C   UNL     1       6.839   6.350  18.108  0.00  0.00    +0.000 C 
ATOM     22  C   UNL     1       4.981   4.980  17.144  0.00  0.00    +0.000 C 
ATOM     23  O   UNL     1       4.531   5.577  16.177  0.00  0.00    +0.000 OA
ATOM     24  H   UNL     1       7.171   3.636  19.173  0.00  0.00    +0.000 HD
ENDBRANCH  14  15
ENDBRANCH  13  14
ENDBRANCH   1  13
TORSDOF 6
ENDMDL
MODEL 9
REMARK VINA RESULT:      -6.7      1.938      3.531
REMARK  Name = 
REMARK  11 active torsions:
REMARK  status: ('A' for Active; 'I' for Inactive)
REMARK    1  A    between atoms: C_1  and  C_2
REMARK    2  A    between atoms: C_2  and  C_3
REMARK    3  A    between atoms: C_3  and  C_4
REMARK    4  A    between atoms: C_3  and  C_5
REMARK    5  A    between atoms: C_3  and  C_6
REMARK    6  A    between atoms: C_9  and  O_10
REMARK    7  A    between atoms: O_10  and  C_11
REMARK    8  A    between atoms: C_11  and  C_12
REMARK    9  A    between atoms: C_12  and  N_13
REMARK   10  A    between atoms: C_17  and  C_18
REMARK   11  A    between atoms: C_17  and  C_19
REMARK                            x       y       z     vdW  Elec       q    Type
REMARK                         _______ _______ _______ _____ _____    ______ ____
ROOT
ATOM      1  O   UNL     1       3.021   6.490  18.897  0.00  0.00    +0.000 OA
ENDROOT
BRANCH   1   5
ATOM      2  C   UNL     1       0.668   9.947  19.486  0.00  0.00    +0.000 A 
ATOM      3  C   UNL     1       0.898   9.046  20.533  0.00  0.00    +0.000 A 
ATOM      4  C   UNL     1       1.676   7.903  20.363  0.00  0.00    +0.000 A 
ATOM      5  C   UNL     1       2.259   7.604  19.140  0.00  0.00    +0.000 A 
ATOM      6  C   UNL     1       2.056   8.485  18.078  0.00  0.00    +0.000 A 
ATOM      7  C   UNL     1       1.271   9.646  18.245  0.00  0.00    +0.000 A 
BRANCH   2   8
ATOM      8  C   UNL     1      -0.214  11.191  19.698  0.00  0.00    +0.000 C 
ATOM      9  C   UNL     1      -0.612  11.408  21.181  0.00  0.00    +0.000 C 
ATOM     10  C   UNL     1      -1.542  11.003  18.925  0.00  0.00    +0.000 C 
BRANCH   8  12
ATOM     11  C   UNL     1      -0.405  13.394  18.321  0.00  0.00    +0.000 C 
ATOM     12  C   UNL     1       0.475  12.485  19.174  0.00  0.00    +0.000 C 
ENDBRANCH   8  12
ENDBRANCH   2   8
ENDBRANCH   1   5
BRANCH   1  13
ATOM     13  C   UNL     1       2.853   5.436  19.862  0.00  0.00    +0.000 C 
BRANCH  13  14
ATOM     14  C   UNL     1       3.892   4.334  19.680  0.00  0.00    +0.000 C 
BRANCH  14  15
ATOM     15  N   UNL     1       4.798   4.610  18.573  0.00  0.00    +0.000 N 
ATOM     16  C   UNL     1       6.077   5.054  18.722  0.00  0.00    +0.000 C 
ATOM     17  O   UNL     1       6.676   5.256  19.765  0.00  0.00    +0.000 OA
ATOM     18  N   UNL     1       6.636   5.222  17.471  0.00  0.00    +0.000 N 
ATOM     19  C   UNL     1       5.723   4.863  16.411  0.00  0.00    +0.000 C 
ATOM     20  C   UNL     1       6.323   3.807  15.502  0.00  0.00    +0.000 C 
ATOM     21  C   UNL     1       5.268   6.094  15.634  0.00  0.00    +0.000 C 
ATOM     22  C   UNL     1       4.548   4.331  17.257  0.00  0.00    +0.000 C 
ATOM     23  O   UNL     1       3.546   3.790  16.810  0.00  0.00    +0.000 OA
ATOM     24  H   UNL     1       7.578   5.567  17.364  0.00  0.00    +0.000 HD
ENDBRANCH  14  15
ENDBRANCH  13  14
ENDBRANCH   1  13
TORSDOF 6
ENDMDL
