MODEL 1
REMARK VINA RESULT:      -5.3      0.000      0.000
REMARK  Name = 
REMARK  6 active torsions:
REMARK  status: ('A' for Active; 'I' for Inactive)
REMARK    1  A    between atoms: C_1  and  O_2
REMARK    2  A    between atoms: O_2  and  C_3
REMARK    3  A    between atoms: C_3  and  C_5
REMARK    4  A    between atoms: C_5  and  N_6
REMARK    5  A    between atoms: C_5  and  C_7
REMARK    6  A    between atoms: C_7  and  C_8
REMARK                            x       y       z     vdW  Elec       q    Type
REMARK                         _______ _______ _______ _____ _____    ______ ____
ROOT
ATOM      1  C   UNL     1       3.846   2.617  18.203  0.00  0.00    +0.000 C 
ENDROOT
BRANCH   1   2
ATOM      2  N   UNL     1       4.724   2.325  19.362  0.00  0.00    +0.000 NA
ATOM      3  H   UNL     1       5.671   2.155  19.021  0.00  0.00    +0.000 HD
ATOM      4  H   UNL     1       4.409   1.464  19.810  0.00  0.00    +0.000 HD
ENDBRANCH   1   2
BRANCH   1   5
ATOM      5  C   UNL     1       2.377   2.602  18.653  0.00  0.00    +0.000 C 
ATOM      6  O   UNL     1       1.420   2.810  17.915  0.00  0.00    +0.000 OA
BRANCH   5   8
ATOM      7  C   UNL     1       1.282   2.990  20.689  0.00  0.00    +0.000 C 
ATOM      8  O   UNL     1       2.288   2.271  19.974  0.00  0.00    +0.000 OA
ENDBRANCH   5   8
ENDBRANCH   1   5
BRANCH   1   9
ATOM      9  C   UNL     1       4.144   3.988  17.567  0.00  0.00    +0.000 C 
BRANCH   9  10
ATOM     10  C   UNL     1       5.602   4.222  17.337  0.00  0.00    +0.000 A 
ATOM     11  C   UNL     1       6.355   4.315  16.185  0.00  0.00    +0.000 A 
ATOM     12  N   UNL     1       7.677   4.519  16.480  0.00  0.00    +0.000 NA
ATOM     13  C   UNL     1       7.741   4.563  17.790  0.00  0.00    +0.000 A 
ATOM     14  N   UNL     1       6.509   4.394  18.356  0.00  0.00    +0.000 N 
ATOM     15  H   UNL     1       6.313   4.391  19.349  0.00  0.00    +0.000 HD
ENDBRANCH   9  10
ENDBRANCH   1   9
TORSDOF 5
ENDMDL
MODEL 2
REMARK VINA RESULT:      -5.2      3.119      4.970
REMARK  Name = 
REMARK  6 active torsions:
REMARK  status: ('A' for Active; 'I' for Inactive)
REMARK    1  A    between atoms: C_1  and  O_2
REMARK    2  A    between atoms: O_2  and  C_3
REMARK    3  A    between atoms: C_3  and  C_5
REMARK    4  A    between atoms: C_5  and  N_6
REMARK    5  A    between atoms: C_5  and  C_7
REMARK    6  A    between atoms: C_7  and  C_8
REMARK                            x       y       z     vdW  Elec       q    Type
REMARK                         _______ _______ _______ _____ _____    ______ ____
ROOT
ATOM      1  C   UNL     1       7.498   5.459  17.647  0.00  0.00    +0.000 C 
ENDROOT
BRANCH   1   2
ATOM      2  N   UNL     1       8.081   4.101  17.772  0.00  0.00    +0.000 NA
ATOM      3  H   UNL     1       7.339   3.413  17.640  0.00  0.00    +0.000 HD
ATOM      4  H   UNL     1       8.436   3.977  18.721  0.00  0.00    +0.000 HD
ENDBRANCH   1   2
BRANCH   1   5
ATOM      5  C   UNL     1       6.867   5.623  16.256  0.00  0.00    +0.000 C 
ATOM      6  O   UNL     1       6.051   6.490  15.959  0.00  0.00    +0.000 OA
BRANCH   5   8
ATOM      7  C   UNL     1       6.426   4.163  14.476  0.00  0.00    +0.000 C 
ATOM      8  O   UNL     1       7.382   4.704  15.389  0.00  0.00    +0.000 OA
ENDBRANCH   5   8
ENDBRANCH   1   5
BRANCH   1   9
ATOM      9  C   UNL     1       6.416   5.737  18.707  0.00  0.00    +0.000 C 
BRANCH   9  10
ATOM     10  C   UNL     1       5.343   4.699  18.734  0.00  0.00    +0.000 A 
ATOM     11  C   UNL     1       4.028   4.712  18.313  0.00  0.00    +0.000 A 
ATOM     12  N   UNL     1       3.420   3.512  18.568  0.00  0.00    +0.000 NA
ATOM     13  C   UNL     1       4.343   2.764  19.125  0.00  0.00    +0.000 A 
ATOM     14  N   UNL     1       5.527   3.435  19.242  0.00  0.00    +0.000 N 
ATOM     15  H   UNL     1       6.379   3.060  19.640  0.00  0.00    +0.000 HD
ENDBRANCH   9  10
ENDBRANCH   1   9
TORSDOF 5
ENDMDL
MODEL 3
REMARK VINA RESULT:      -5.2      2.959      5.109
REMARK  Name = 
REMARK  6 active torsions:
REMARK  status: ('A' for Active; 'I' for Inactive)
REMARK    1  A    between atoms: C_1  and  O_2
REMARK    2  A    between atoms: O_2  and  C_3
REMARK    3  A    between atoms: C_3  and  C_5
REMARK    4  A    between atoms: C_5  and  N_6
REMARK    5  A    between atoms: C_5  and  C_7
REMARK    6  A    between atoms: C_7  and  C_8
REMARK                            x       y       z     vdW  Elec       q    Type
REMARK                         _______ _______ _______ _____ _____    ______ ____
ROOT
ATOM      1  C   UNL     1       6.011   4.708  17.083  0.00  0.00    +0.000 C 
ENDROOT
BRANCH   1   2
ATOM      2  N   UNL     1       6.974   4.268  18.122  0.00  0.00    +0.000 NA
ATOM      3  H   UNL     1       7.064   5.008  18.820  0.00  0.00    +0.000 HD
ATOM      4  H   UNL     1       7.894   4.149  17.695  0.00  0.00    +0.000 HD
ENDBRANCH   1   2
BRANCH   1   5
ATOM      5  C   UNL     1       6.690   4.678  15.706  0.00  0.00    +0.000 C 
ATOM      6  O   UNL     1       7.562   5.460  15.341  0.00  0.00    +0.000 OA
BRANCH   5   8
ATOM      7  C   UNL     1       6.202   3.868  13.560  0.00  0.00    +0.000 C 
ATOM      8  O   UNL     1       6.223   3.629  14.969  0.00  0.00    +0.000 OA
ENDBRANCH   5   8
ENDBRANCH   1   5
BRANCH   1   9
ATOM      9  C   UNL     1       4.757   3.816  17.025  0.00  0.00    +0.000 C 
BRANCH   9  10
ATOM     10  C   UNL     1       4.256   3.423  18.377  0.00  0.00    +0.000 A 
ATOM     11  C   UNL     1       3.171   3.840  19.121  0.00  0.00    +0.000 A 
ATOM     12  N   UNL     1       3.131   3.198  20.330  0.00  0.00    +0.000 NA
ATOM     13  C   UNL     1       4.164   2.389  20.331  0.00  0.00    +0.000 A 
ATOM     14  N   UNL     1       4.874   2.484  19.168  0.00  0.00    +0.000 N 
ATOM     15  H   UNL     1       5.708   1.957  18.943  0.00  0.00    +0.000 HD
ENDBRANCH   9  10
ENDBRANCH   1   9
TORSDOF 5
ENDMDL
MODEL 4
REMARK VINA RESULT:      -5.0      2.831      5.067
REMARK  Name = 
REMARK  6 active torsions:
REMARK  status: ('A' for Active; 'I' for Inactive)
REMARK    1  A    between atoms: C_1  and  O_2
REMARK    2  A    between atoms: O_2  and  C_3
REMARK    3  A    between atoms: C_3  and  C_5
REMARK    4  A    between atoms: C_5  and  N_6
REMARK    5  A    between atoms: C_5  and  C_7
REMARK    6  A    between atoms: C_7  and  C_8
REMARK                            x       y       z     vdW  Elec       q    Type
REMARK                         _______ _______ _______ _____ _____    ______ ____
ROOT
ATOM      1  C   UNL     1       5.841   4.992  17.521  0.00  0.00    +0.000 C 
ENDROOT
BRANCH   1   2
ATOM      2  N   UNL     1       6.315   4.086  18.596  0.00  0.00    +0.000 NA
ATOM      3  H   UNL     1       7.335   4.085  18.597  0.00  0.00    +0.000 HD
ATOM      4  H   UNL     1       6.017   3.133  18.383  0.00  0.00    +0.000 HD
ENDBRANCH   1   2
BRANCH   1   5
ATOM      5  C   UNL     1       6.660   4.751  16.245  0.00  0.00    +0.000 C 
ATOM      6  O   UNL     1       7.863   4.512  16.223  0.00  0.00    +0.000 OA
BRANCH   5   8
ATOM      7  C   UNL     1       6.310   3.988  14.055  0.00  0.00    +0.000 C 
ATOM      8  O   UNL     1       5.851   4.788  15.147  0.00  0.00    +0.000 OA
ENDBRANCH   5   8
ENDBRANCH   1   5
BRANCH   1   9
ATOM      9  C   UNL     1       4.351   4.784  17.188  0.00  0.00    +0.000 C 
BRANCH   9  10
ATOM     10  C   UNL     1       3.753   3.609  17.891  0.00  0.00    +0.000 A 
ATOM     11  C   UNL     1       2.731   3.501  18.811  0.00  0.00    +0.000 A 
ATOM     12  N   UNL     1       2.551   2.198  19.192  0.00  0.00    +0.000 NA
ATOM     13  C   UNL     1       3.436   1.509  18.511  0.00  0.00    +0.000 A 
ATOM     14  N   UNL     1       4.186   2.317  17.704  0.00  0.00    +0.000 N 
ATOM     15  H   UNL     1       4.927   2.009  17.089  0.00  0.00    +0.000 HD
ENDBRANCH   9  10
ENDBRANCH   1   9
TORSDOF 5
ENDMDL
MODEL 5
REMARK VINA RESULT:      -5.0      3.176      5.309
REMARK  Name = 
REMARK  6 active torsions:
REMARK  status: ('A' for Active; 'I' for Inactive)
REMARK    1  A    between atoms: C_1  and  O_2
REMARK    2  A    between atoms: O_2  and  C_3
REMARK    3  A    between atoms: C_3  and  C_5
REMARK    4  A    between atoms: C_5  and  N_6
REMARK    5  A    between atoms: C_5  and  C_7
REMARK    6  A    between atoms: C_7  and  C_8
REMARK                            x       y       z     vdW  Elec       q    Type
REMARK                         _______ _______ _______ _____ _____    ______ ____
ROOT
ATOM      1  C   UNL     1       5.856   5.025  17.355  0.00  0.00    +0.000 C 
ENDROOT
BRANCH   1   2
ATOM      2  N   UNL     1       6.422   4.114  18.380  0.00  0.00    +0.000 NA
ATOM      3  H   UNL     1       5.676   3.511  18.730  0.00  0.00    +0.000 HD
ATOM      4  H   UNL     1       6.753   4.667  19.171  0.00  0.00    +0.000 HD
ENDBRANCH   1   2
BRANCH   1   5
ATOM      5  C   UNL     1       6.979   5.530  16.437  0.00  0.00    +0.000 C 
ATOM      6  O   UNL     1       7.505   6.634  16.521  0.00  0.00    +0.000 OA
BRANCH   5   8
ATOM      7  C   UNL     1       7.214   4.934  14.182  0.00  0.00    +0.000 C 
ATOM      8  O   UNL     1       7.344   4.556  15.553  0.00  0.00    +0.000 OA
ENDBRANCH   5   8
ENDBRANCH   1   5
BRANCH   1   9
ATOM      9  C   UNL     1       4.787   4.341  16.483  0.00  0.00    +0.000 C 
BRANCH   9  10
ATOM     10  C   UNL     1       3.847   3.487  17.270  0.00  0.00    +0.000 A 
ATOM     11  C   UNL     1       2.525   3.652  17.631  0.00  0.00    +0.000 A 
ATOM     12  N   UNL     1       2.088   2.595  18.384  0.00  0.00    +0.000 NA
ATOM     13  C   UNL     1       3.116   1.784  18.478  0.00  0.00    +0.000 A 
ATOM     14  N   UNL     1       4.204   2.277  17.816  0.00  0.00    +0.000 N 
ATOM     15  H   UNL     1       5.107   1.825  17.751  0.00  0.00    +0.000 HD
ENDBRANCH   9  10
ENDBRANCH   1   9
TORSDOF 5
ENDMDL
MODEL 6
REMARK VINA RESULT:      -5.0      1.332      1.420
REMARK  Name = 
REMARK  6 active torsions:
REMARK  status: ('A' for Active; 'I' for Inactive)
REMARK    1  A    between atoms: C_1  and  O_2
REMARK    2  A    between atoms: O_2  and  C_3
REMARK    3  A    between atoms: C_3  and  C_5
REMARK    4  A    between atoms: C_5  and  N_6
REMARK    5  A    between atoms: C_5  and  C_7
REMARK    6  A    between atoms: C_7  and  C_8
REMARK                            x       y       z     vdW  Elec       q    Type
REMARK                         _______ _______ _______ _____ _____    ______ ____
ROOT
ATOM      1  C   UNL     1       3.434   4.147  18.651  0.00  0.00    +0.000 C 
ENDROOT
BRANCH   1   2
ATOM      2  N   UNL     1       3.923   5.438  19.192  0.00  0.00    +0.000 NA
ATOM      3  H   UNL     1       3.251   6.169  18.954  0.00  0.00    +0.000 HD
ATOM      4  H   UNL     1       4.802   5.681  18.732  0.00  0.00    +0.000 HD
ENDBRANCH   1   2
BRANCH   1   5
ATOM      5  C   UNL     1       1.905   4.191  18.511  0.00  0.00    +0.000 C 
ATOM      6  O   UNL     1       1.295   3.994  17.466  0.00  0.00    +0.000 OA
BRANCH   5   8
ATOM      7  C   UNL     1       1.205   3.269  20.550  0.00  0.00    +0.000 C 
ATOM      8  O   UNL     1       1.324   4.428  19.723  0.00  0.00    +0.000 OA
ENDBRANCH   5   8
ENDBRANCH   1   5
BRANCH   1   9
ATOM      9  C   UNL     1       4.038   3.818  17.273  0.00  0.00    +0.000 C 
BRANCH   9  10
ATOM     10  C   UNL     1       5.461   4.253  17.138  0.00  0.00    +0.000 A 
ATOM     11  C   UNL     1       6.160   4.828  16.096  0.00  0.00    +0.000 A 
ATOM     12  N   UNL     1       7.470   5.032  16.440  0.00  0.00    +0.000 NA
ATOM     13  C   UNL     1       7.578   4.604  17.676  0.00  0.00    +0.000 A 
ATOM     14  N   UNL     1       6.387   4.128  18.146  0.00  0.00    +0.000 N 
ATOM     15  H   UNL     1       6.230   3.748  19.070  0.00  0.00    +0.000 HD
ENDBRANCH   9  10
ENDBRANCH   1   9
TORSDOF 5
ENDMDL
MODEL 7
REMARK VINA RESULT:      -5.0      3.035      4.934
REMARK  Name = 
REMARK  6 active torsions:
REMARK  status: ('A' for Active; 'I' for Inactive)
REMARK    1  A    between atoms: C_1  and  O_2
REMARK    2  A    between atoms: O_2  and  C_3
REMARK    3  A    between atoms: C_3  and  C_5
REMARK    4  A    between atoms: C_5  and  N_6
REMARK    5  A    between atoms: C_5  and  C_7
REMARK    6  A    between atoms: C_7  and  C_8
REMARK                            x       y       z     vdW  Elec       q    Type
REMARK                         _______ _______ _______ _____ _____    ______ ____
ROOT
ATOM      1  C   UNL     1       6.338   5.513  18.342  0.00  0.00    +0.000 C 
ENDROOT
BRANCH   1   2
ATOM      2  N   UNL     1       7.029   4.242  18.017  0.00  0.00    +0.000 NA
ATOM      3  H   UNL     1       7.581   3.953  18.825  0.00  0.00    +0.000 HD
ATOM      4  H   UNL     1       7.685   4.405  17.252  0.00  0.00    +0.000 HD
ENDBRANCH   1   2
BRANCH   1   5
ATOM      5  C   UNL     1       6.050   6.289  17.048  0.00  0.00    +0.000 C 
ATOM      6  O   UNL     1       4.959   6.334  16.490  0.00  0.00    +0.000 OA
BRANCH   5   8
ATOM      7  C   UNL     1       7.700   7.855  17.618  0.00  0.00    +0.000 C 
ATOM      8  O   UNL     1       7.165   6.962  16.639  0.00  0.00    +0.000 OA
ENDBRANCH   5   8
ENDBRANCH   1   5
BRANCH   1   9
ATOM      9  C   UNL     1       5.005   5.288  19.080  0.00  0.00    +0.000 C 
BRANCH   9  10
ATOM     10  C   UNL     1       4.473   3.902  18.917  0.00  0.00    +0.000 A 
ATOM     11  C   UNL     1       3.517   3.368  18.077  0.00  0.00    +0.000 A 
ATOM     12  N   UNL     1       3.351   2.030  18.312  0.00  0.00    +0.000 NA
ATOM     13  C   UNL     1       4.197   1.735  19.271  0.00  0.00    +0.000 A 
ATOM     14  N   UNL     1       4.904   2.835  19.668  0.00  0.00    +0.000 N 
ATOM     15  H   UNL     1       5.612   2.849  20.391  0.00  0.00    +0.000 HD
ENDBRANCH   9  10
ENDBRANCH   1   9
TORSDOF 5
ENDMDL
MODEL 8
REMARK VINA RESULT:      -4.9      3.013      5.020
REMARK  Name = 
REMARK  6 active torsions:
REMARK  status: ('A' for Active; 'I' for Inactive)
REMARK    1  A    between atoms: C_1  and  O_2
REMARK    2  A    between atoms: O_2  and  C_3
REMARK    3  A    between atoms: C_3  and  C_5
REMARK    4  A    between atoms: C_5  and  N_6
REMARK    5  A    between atoms: C_5  and  C_7
REMARK    6  A    between atoms: C_7  and  C_8
REMARK                            x       y       z     vdW  Elec       q    Type
REMARK                         _______ _______ _______ _____ _____    ______ ____
ROOT
ATOM      1  C   UNL     1       6.595   5.201  17.003  0.00  0.00    +0.000 C 
ENDROOT
BRANCH   1   2
ATOM      2  N   UNL     1       7.270   4.202  17.867  0.00  0.00    +0.000 NA
ATOM      3  H   UNL     1       8.209   4.536  18.084  0.00  0.00    +0.000 HD
ATOM      4  H   UNL     1       7.377   3.330  17.346  0.00  0.00    +0.000 HD
ENDBRANCH   1   2
BRANCH   1   5
ATOM      5  C   UNL     1       6.956   4.940  15.534  0.00  0.00    +0.000 C 
ATOM      6  O   UNL     1       7.754   5.606  14.882  0.00  0.00    +0.000 OA
BRANCH   5   8
ATOM      7  C   UNL     1       6.103   3.817  13.660  0.00  0.00    +0.000 C 
ATOM      8  O   UNL     1       6.305   3.832  15.074  0.00  0.00    +0.000 OA
ENDBRANCH   5   8
ENDBRANCH   1   5
BRANCH   1   9
ATOM      9  C   UNL     1       5.062   5.161  17.141  0.00  0.00    +0.000 C 
BRANCH   9  10
ATOM     10  C   UNL     1       4.578   4.013  17.965  0.00  0.00    +0.000 A 
ATOM     11  C   UNL     1       3.883   2.866  17.640  0.00  0.00    +0.000 A 
ATOM     12  N   UNL     1       3.643   2.106  18.754  0.00  0.00    +0.000 NA
ATOM     13  C   UNL     1       4.189   2.764  19.750  0.00  0.00    +0.000 A 
ATOM     14  N   UNL     1       4.773   3.923  19.323  0.00  0.00    +0.000 N 
ATOM     15  H   UNL     1       5.255   4.590  19.912  0.00  0.00    +0.000 HD
ENDBRANCH   9  10
ENDBRANCH   1   9
TORSDOF 5
ENDMDL
MODEL 9
REMARK VINA RESULT:      -4.9      1.295      1.602
REMARK  Name = 
REMARK  6 active torsions:
REMARK  status: ('A' for Active; 'I' for Inactive)
REMARK    1  A    between atoms: C_1  and  O_2
REMARK    2  A    between atoms: O_2  and  C_3
REMARK    3  A    between atoms: C_3  and  C_5
REMARK    4  A    between atoms: C_5  and  N_6
REMARK    5  A    between atoms: C_5  and  C_7
REMARK    6  A    between atoms: C_7  and  C_8
REMARK                            x       y       z     vdW  Elec       q    Type
REMARK                         _______ _______ _______ _____ _____    ______ ____
ROOT
ATOM      1  C   UNL     1       3.929   2.947  19.355  0.00  0.00    +0.000 C 
ENDROOT
BRANCH   1   2
ATOM      2  N   UNL     1       5.165   2.224  19.741  0.00  0.00    +0.000 NA
ATOM      3  H   UNL     1       5.224   1.362  19.198  0.00  0.00    +0.000 HD
ATOM      4  H   UNL     1       5.099   1.953  20.724  0.00  0.00    +0.000 HD
ENDBRANCH   1   2
BRANCH   1   5
ATOM      5  C   UNL     1       3.006   3.079  20.575  0.00  0.00    +0.000 C 
ATOM      6  O   UNL     1       3.143   2.458  21.623  0.00  0.00    +0.000 OA
BRANCH   5   8
ATOM      7  C   UNL     1       0.776   3.485  19.977  0.00  0.00    +0.000 C 
ATOM      8  O   UNL     1       2.047   4.023  20.345  0.00  0.00    +0.000 OA
ENDBRANCH   5   8
ENDBRANCH   1   5
BRANCH   1   9
ATOM      9  C   UNL     1       4.218   4.359  18.809  0.00  0.00    +0.000 C 
BRANCH   9  10
ATOM     10  C   UNL     1       5.552   4.469  18.147  0.00  0.00    +0.000 A 
ATOM     11  C   UNL     1       5.935   4.435  16.821  0.00  0.00    +0.000 A 
ATOM     12  N   UNL     1       7.293   4.557  16.701  0.00  0.00    +0.000 NA
ATOM     13  C   UNL     1       7.744   4.678  17.927  0.00  0.00    +0.000 A 
ATOM     14  N   UNL     1       6.727   4.636  18.839  0.00  0.00    +0.000 N 
ATOM     15  H   UNL     1       6.835   4.711  19.843  0.00  0.00    +0.000 HD
ENDBRANCH   9  10
ENDBRANCH   1   9
TORSDOF 5
ENDMDL
