MODEL 1
REMARK VINA RESULT:      -7.8      0.000      0.000
REMARK  Name = 
REMARK  8 active torsions:
REMARK  status: ('A' for Active; 'I' for Inactive)
REMARK    1  A    between atoms: C_1  and  O_2
REMARK    2  A    between atoms: O_2  and  C_3
REMARK    3  A    between atoms: C_6  and  C_7
REMARK    4  A    between atoms: C_10  and  C_11
REMARK    5  A    between atoms: N_13  and  C_14
REMARK    6  A    between atoms: C_14  and  C_15
REMARK    7  A    between atoms: C_24  and  O_25
REMARK    8  A    between atoms: O_25  and  C_26
REMARK                            x       y       z     vdW  Elec       q    Type
REMARK                         _______ _______ _______ _____ _____    ______ ____
ROOT
ATOM      1  C   UNL     1       4.499   3.867  18.108  0.00  0.00    +0.000 C 
ATOM      2  N   UNL     1       4.863   3.297  19.211  0.00  0.00    +0.000 NA
ATOM      3  O   UNL     1       3.703   3.073  19.986  0.00  0.00    +0.000 OA
ATOM      4  C   UNL     1       2.553   3.491  19.251  0.00  0.00    +0.000 C 
ATOM      5  C   UNL     1       3.037   4.082  17.954  0.00  0.00    +0.000 C 
ENDROOT
BRANCH   1   9
ATOM      6  C   UNL     1       7.122   5.125  14.952  0.00  0.00    +0.000 A 
ATOM      7  C   UNL     1       6.313   3.987  14.804  0.00  0.00    +0.000 A 
ATOM      8  C   UNL     1       5.465   3.567  15.834  0.00  0.00    +0.000 A 
ATOM      9  C   UNL     1       5.445   4.263  17.041  0.00  0.00    +0.000 A 
ATOM     10  C   UNL     1       6.317   5.341  17.221  0.00  0.00    +0.000 A 
ATOM     11  C   UNL     1       7.165   5.776  16.193  0.00  0.00    +0.000 A 
BRANCH   6  13
ATOM     12  C   UNL     1       7.636   4.975  12.650  0.00  0.00    +0.000 C 
ATOM     13  O   UNL     1       7.890   5.582  13.917  0.00  0.00    +0.000 OA
ENDBRANCH   6  13
BRANCH  11  14
ATOM     14  O   UNL     1       7.920   6.849  16.584  0.00  0.00    +0.000 OA
ATOM     15  C   UNL     1       7.375   7.783  17.500  0.00  0.00    +0.000 C 
ENDBRANCH  11  14
ENDBRANCH   1   9
BRANCH   4  16
ATOM     16  C   UNL     1       1.691   4.472  20.047  0.00  0.00    +0.000 C 
ATOM     17  O   UNL     1       0.609   4.153  20.541  0.00  0.00    +0.000 OA
ATOM     18  N   UNL     1       2.273   5.701  20.254  0.00  0.00    +0.000 N 
ATOM     19  H   UNL     1       3.059   5.952  19.667  0.00  0.00    +0.000 HD
BRANCH  18  20
ATOM     20  C   UNL     1       1.615   6.740  21.017  0.00  0.00    +0.000 C 
BRANCH  20  21
ATOM     21  C   UNL     1       1.507   8.032  20.248  0.00  0.00    +0.000 A 
ATOM     22  C   UNL     1       1.965   8.108  18.922  0.00  0.00    +0.000 A 
ATOM     23  C   UNL     1       1.844   9.293  18.195  0.00  0.00    +0.000 A 
ATOM     24  C   UNL     1       1.274  10.407  18.798  0.00  0.00    +0.000 A 
ATOM     25  F   UNL     1       1.148  11.543  18.098  0.00  0.00    +0.000 F 
ATOM     26  C   UNL     1       0.832  10.361  20.115  0.00  0.00    +0.000 A 
ATOM     27  C   UNL     1       0.952   9.176  20.842  0.00  0.00    +0.000 A 
ENDBRANCH  20  21
ENDBRANCH  18  20
ENDBRANCH   4  16
TORSDOF 6
ENDMDL
MODEL 2
REMARK VINA RESULT:      -7.3      2.324      2.867
REMARK  Name = 
REMARK  8 active torsions:
REMARK  status: ('A' for Active; 'I' for Inactive)
REMARK    1  A    between atoms: C_1  and  O_2
REMARK    2  A    between atoms: O_2  and  C_3
REMARK    3  A    between atoms: C_6  and  C_7
REMARK    4  A    between atoms: C_10  and  C_11
REMARK    5  A    between atoms: N_13  and  C_14
REMARK    6  A    between atoms: C_14  and  C_15
REMARK    7  A    between atoms: C_24  and  O_25
REMARK    8  A    between atoms: O_25  and  C_26
REMARK                            x       y       z     vdW  Elec       q    Type
REMARK                         _______ _______ _______ _____ _____    ______ ____
ROOT
ATOM      1  C   UNL     1       3.743   5.807  18.667  0.00  0.00    +0.000 C 
ATOM      2  N   UNL     1       3.789   5.308  19.860  0.00  0.00    +0.000 NA
ATOM      3  O   UNL     1       2.638   5.742  20.556  0.00  0.00    +0.000 OA
ATOM      4  C   UNL     1       1.814   6.509  19.678  0.00  0.00    +0.000 C 
ATOM      5  C   UNL     1       2.538   6.621  18.363  0.00  0.00    +0.000 C 
ENDROOT
BRANCH   1   9
ATOM      6  C   UNL     1       6.689   5.254  15.596  0.00  0.00    +0.000 A 
ATOM      7  C   UNL     1       5.578   4.401  15.688  0.00  0.00    +0.000 A 
ATOM      8  C   UNL     1       4.622   4.571  16.694  0.00  0.00    +0.000 A 
ATOM      9  C   UNL     1       4.787   5.577  17.644  0.00  0.00    +0.000 A 
ATOM     10  C   UNL     1       5.939   6.367  17.607  0.00  0.00    +0.000 A 
ATOM     11  C   UNL     1       6.901   6.212  16.598  0.00  0.00    +0.000 A 
BRANCH   6  13
ATOM     12  C   UNL     1       7.045   4.633  13.343  0.00  0.00    +0.000 C 
ATOM     13  O   UNL     1       7.581   5.139  14.565  0.00  0.00    +0.000 OA
ENDBRANCH   6  13
BRANCH  11  14
ATOM     14  O   UNL     1       7.937   7.094  16.750  0.00  0.00    +0.000 OA
ATOM     15  C   UNL     1       7.770   8.219  17.596  0.00  0.00    +0.000 C 
ENDBRANCH  11  14
ENDBRANCH   1   9
BRANCH   4  16
ATOM     16  C   UNL     1       1.471   7.879  20.267  0.00  0.00    +0.000 C 
ATOM     17  O   UNL     1       1.445   8.089  21.480  0.00  0.00    +0.000 OA
ATOM     18  N   UNL     1       1.303   8.873  19.332  0.00  0.00    +0.000 N 
ATOM     19  H   UNL     1       1.150   8.592  18.371  0.00  0.00    +0.000 HD
BRANCH  18  20
ATOM     20  C   UNL     1       1.010  10.238  19.712  0.00  0.00    +0.000 C 
BRANCH  20  21
ATOM     21  C   UNL     1      -0.329  10.701  19.196  0.00  0.00    +0.000 A 
ATOM     22  C   UNL     1      -0.867  10.143  18.023  0.00  0.00    +0.000 A 
ATOM     23  C   UNL     1      -2.117  10.547  17.554  0.00  0.00    +0.000 A 
ATOM     24  C   UNL     1      -2.827  11.517  18.251  0.00  0.00    +0.000 A 
ATOM     25  F   UNL     1      -4.032  11.898  17.807  0.00  0.00    +0.000 F 
ATOM     26  C   UNL     1      -2.306  12.097  19.402  0.00  0.00    +0.000 A 
ATOM     27  C   UNL     1      -1.055  11.693  19.873  0.00  0.00    +0.000 A 
ENDBRANCH  20  21
ENDBRANCH  18  20
ENDBRANCH   4  16
TORSDOF 6
ENDMDL
MODEL 3
REMARK VINA RESULT:      -7.2      3.736      5.863
REMARK  Name = 
REMARK  8 active torsions:
REMARK  status: ('A' for Active; 'I' for Inactive)
REMARK    1  A    between atoms: C_1  and  O_2
REMARK    2  A    between atoms: O_2  and  C_3
REMARK    3  A    between atoms: C_6  and  C_7
REMARK    4  A    between atoms: C_10  and  C_11
REMARK    5  A    between atoms: N_13  and  C_14
REMARK    6  A    between atoms: C_14  and  C_15
REMARK    7  A    between atoms: C_24  and  O_25
REMARK    8  A    between atoms: O_25  and  C_26
REMARK                            x       y       z     vdW  Elec       q    Type
REMARK                         _______ _______ _______ _____ _____    ______ ____
ROOT
ATOM      1  C   UNL     1       2.212   7.522  19.581  0.00  0.00    +0.000 C 
ATOM      2  N   UNL     1       2.366   8.270  18.536  0.00  0.00    +0.000 NA
ATOM      3  O   UNL     1       1.791   9.530  18.816  0.00  0.00    +0.000 OA
ATOM      4  C   UNL     1       1.314   9.546  20.161  0.00  0.00    +0.000 C 
ATOM      5  C   UNL     1       1.544   8.174  20.737  0.00  0.00    +0.000 C 
ENDROOT
BRANCH   1   9
ATOM      6  C   UNL     1       3.467   3.420  19.683  0.00  0.00    +0.000 A 
ATOM      7  C   UNL     1       2.451   3.882  20.535  0.00  0.00    +0.000 A 
ATOM      8  C   UNL     1       2.047   5.220  20.512  0.00  0.00    +0.000 A 
ATOM      9  C   UNL     1       2.683   6.122  19.660  0.00  0.00    +0.000 A 
ATOM     10  C   UNL     1       3.756   5.681  18.880  0.00  0.00    +0.000 A 
ATOM     11  C   UNL     1       4.164   4.340  18.888  0.00  0.00    +0.000 A 
BRANCH   6  13
ATOM     12  C   UNL     1       3.477   1.409  18.441  0.00  0.00    +0.000 C 
ATOM     13  O   UNL     1       3.806   2.095  19.648  0.00  0.00    +0.000 OA
ENDBRANCH   6  13
BRANCH  11  14
ATOM     14  O   UNL     1       5.222   4.131  18.044  0.00  0.00    +0.000 OA
ATOM     15  C   UNL     1       6.467   4.744  18.329  0.00  0.00    +0.000 C 
ENDBRANCH  11  14
ENDBRANCH   1   9
BRANCH   4  16
ATOM     16  C   UNL     1      -0.154   9.967  20.242  0.00  0.00    +0.000 C 
ATOM     17  O   UNL     1      -0.853   9.745  21.232  0.00  0.00    +0.000 OA
ATOM     18  N   UNL     1      -0.594  10.705  19.168  0.00  0.00    +0.000 N 
ATOM     19  H   UNL     1      -0.035  10.682  18.324  0.00  0.00    +0.000 HD
BRANCH  18  20
ATOM     20  C   UNL     1      -1.945  11.217  19.094  0.00  0.00    +0.000 C 
BRANCH  20  21
ATOM     21  C   UNL     1      -2.607  10.894  17.779  0.00  0.00    +0.000 A 
ATOM     22  C   UNL     1      -3.828  11.498  17.433  0.00  0.00    +0.000 A 
ATOM     23  C   UNL     1      -4.433  11.225  16.206  0.00  0.00    +0.000 A 
ATOM     24  C   UNL     1      -3.823  10.339  15.327  0.00  0.00    +0.000 A 
ATOM     25  F   UNL     1      -4.399  10.083  14.144  0.00  0.00    +0.000 F 
ATOM     26  C   UNL     1      -2.626   9.715  15.656  0.00  0.00    +0.000 A 
ATOM     27  C   UNL     1      -2.019   9.988  16.883  0.00  0.00    +0.000 A 
ENDBRANCH  20  21
ENDBRANCH  18  20
ENDBRANCH   4  16
TORSDOF 6
ENDMDL
MODEL 4
REMARK VINA RESULT:      -7.2      3.922      6.364
REMARK  Name = 
REMARK  8 active torsions:
REMARK  status: ('A' for Active; 'I' for Inactive)
REMARK    1  A    between atoms: C_1  and  O_2
REMARK    2  A    between atoms: O_2  and  C_3
REMARK    3  A    between atoms: C_6  and  C_7
REMARK    4  A    between atoms: C_10  and  C_11
REMARK    5  A    between atoms: N_13  and  C_14
REMARK    6  A    between atoms: C_14  and  C_15
REMARK    7  A    between atoms: C_24  and  O_25
REMARK    8  A    between atoms: O_25  and  C_26
REMARK                            x       y       z     vdW  Elec       q    Type
REMARK                         _______ _______ _______ _____ _____    ______ ____
ROOT
ATOM      1  C   UNL     1       2.271   8.095  18.431  0.00  0.00    +0.000 C 
ATOM      2  N   UNL     1       2.581   8.772  17.374  0.00  0.00    +0.000 NA
ATOM      3  O   UNL     1       2.022  10.063  17.506  0.00  0.00    +0.000 OA
ATOM      4  C   UNL     1       1.381  10.175  18.777  0.00  0.00    +0.000 C 
ATOM      5  C   UNL     1       1.487   8.834  19.454  0.00  0.00    +0.000 C 
ENDROOT
BRANCH   1   9
ATOM      6  C   UNL     1       3.593   4.075  19.143  0.00  0.00    +0.000 A 
ATOM      7  C   UNL     1       3.880   4.722  17.931  0.00  0.00    +0.000 A 
ATOM      8  C   UNL     1       3.442   6.028  17.691  0.00  0.00    +0.000 A 
ATOM      9  C   UNL     1       2.677   6.689  18.650  0.00  0.00    +0.000 A 
ATOM     10  C   UNL     1       2.313   6.011  19.817  0.00  0.00    +0.000 A 
ATOM     11  C   UNL     1       2.755   4.705  20.073  0.00  0.00    +0.000 A 
BRANCH   6  13
ATOM     12  C   UNL     1       3.518   1.763  18.652  0.00  0.00    +0.000 C 
ATOM     13  O   UNL     1       4.090   2.828  19.411  0.00  0.00    +0.000 OA
ENDBRANCH   6  13
BRANCH  11  14
ATOM     14  O   UNL     1       2.289   4.243  21.275  0.00  0.00    +0.000 OA
ATOM     15  C   UNL     1       1.329   3.200  21.291  0.00  0.00    +0.000 C 
ENDBRANCH  11  14
ENDBRANCH   1   9
BRANCH   4  16
ATOM     16  C   UNL     1      -0.070  10.642  18.647  0.00  0.00    +0.000 C 
ATOM     17  O   UNL     1      -0.896  10.051  17.951  0.00  0.00    +0.000 OA
ATOM     18  N   UNL     1      -0.398  11.708  19.453  0.00  0.00    +0.000 N 
ATOM     19  H   UNL     1       0.362  12.252  19.842  0.00  0.00    +0.000 HD
BRANCH  18  20
ATOM     20  C   UNL     1      -1.735  12.259  19.485  0.00  0.00    +0.000 C 
BRANCH  20  21
ATOM     21  C   UNL     1      -2.312  12.278  20.877  0.00  0.00    +0.000 A 
ATOM     22  C   UNL     1      -1.568  11.778  21.959  0.00  0.00    +0.000 A 
ATOM     23  C   UNL     1      -2.084  11.817  23.255  0.00  0.00    +0.000 A 
ATOM     24  C   UNL     1      -3.350  12.347  23.469  0.00  0.00    +0.000 A 
ATOM     25  F   UNL     1      -3.844  12.394  24.714  0.00  0.00    +0.000 F 
ATOM     26  C   UNL     1      -4.113  12.829  22.411  0.00  0.00    +0.000 A 
ATOM     27  C   UNL     1      -3.597  12.791  21.114  0.00  0.00    +0.000 A 
ENDBRANCH  20  21
ENDBRANCH  18  20
ENDBRANCH   4  16
TORSDOF 6
ENDMDL
MODEL 5
REMARK VINA RESULT:      -7.2      4.872      9.229
REMARK  Name = 
REMARK  8 active torsions:
REMARK  status: ('A' for Active; 'I' for Inactive)
REMARK    1  A    between atoms: C_1  and  O_2
REMARK    2  A    between atoms: O_2  and  C_3
REMARK    3  A    between atoms: C_6  and  C_7
REMARK    4  A    between atoms: C_10  and  C_11
REMARK    5  A    between atoms: N_13  and  C_14
REMARK    6  A    between atoms: C_14  and  C_15
REMARK    7  A    between atoms: C_24  and  O_25
REMARK    8  A    between atoms: O_25  and  C_26
REMARK                            x       y       z     vdW  Elec       q    Type
REMARK                         _______ _______ _______ _____ _____    ______ ____
ROOT
ATOM      1  C   UNL     1      -0.580   9.971  19.001  0.00  0.00    +0.000 C 
ATOM      2  N   UNL     1      -0.429   9.570  20.221  0.00  0.00    +0.000 NA
ATOM      3  O   UNL     1       0.917   9.172  20.384  0.00  0.00    +0.000 OA
ATOM      4  C   UNL     1       1.634   9.418  19.173  0.00  0.00    +0.000 C 
ATOM      5  C   UNL     1       0.647   9.939  18.163  0.00  0.00    +0.000 C 
ENDROOT
BRANCH   1   9
ATOM      6  C   UNL     1      -4.221  11.510  17.329  0.00  0.00    +0.000 A 
ATOM      7  C   UNL     1      -3.775  11.931  18.592  0.00  0.00    +0.000 A 
ATOM      8  C   UNL     1      -2.595  11.424  19.145  0.00  0.00    +0.000 A 
ATOM      9  C   UNL     1      -1.866  10.458  18.454  0.00  0.00    +0.000 A 
ATOM     10  C   UNL     1      -2.358   9.973  17.239  0.00  0.00    +0.000 A 
ATOM     11  C   UNL     1      -3.535  10.481  16.670  0.00  0.00    +0.000 A 
BRANCH   6  13
ATOM     12  C   UNL     1      -6.500  12.088  17.571  0.00  0.00    +0.000 C 
ATOM     13  O   UNL     1      -5.330  12.066  16.753  0.00  0.00    +0.000 OA
ENDBRANCH   6  13
BRANCH  11  14
ATOM     14  O   UNL     1      -3.822   9.870  15.479  0.00  0.00    +0.000 OA
ATOM     15  C   UNL     1      -3.022  10.155  14.344  0.00  0.00    +0.000 C 
ENDBRANCH  11  14
ENDBRANCH   1   9
BRANCH   4  16
ATOM     16  C   UNL     1       2.363   8.169  18.677  0.00  0.00    +0.000 C 
ATOM     17  O   UNL     1       2.631   7.988  17.488  0.00  0.00    +0.000 OA
ATOM     18  N   UNL     1       2.786   7.323  19.676  0.00  0.00    +0.000 N 
ATOM     19  H   UNL     1       2.371   7.435  20.592  0.00  0.00    +0.000 HD
BRANCH  18  20
ATOM     20  C   UNL     1       3.523   6.111  19.390  0.00  0.00    +0.000 C 
BRANCH  20  21
ATOM     21  C   UNL     1       2.616   4.925  19.188  0.00  0.00    +0.000 A 
ATOM     22  C   UNL     1       1.718   4.540  20.197  0.00  0.00    +0.000 A 
ATOM     23  C   UNL     1       0.856   3.459  20.007  0.00  0.00    +0.000 A 
ATOM     24  C   UNL     1       0.899   2.755  18.810  0.00  0.00    +0.000 A 
ATOM     25  F   UNL     1       0.065   1.723  18.621  0.00  0.00    +0.000 F 
ATOM     26  C   UNL     1       1.793   3.105  17.805  0.00  0.00    +0.000 A 
ATOM     27  C   UNL     1       2.655   4.187  17.994  0.00  0.00    +0.000 A 
ENDBRANCH  20  21
ENDBRANCH  18  20
ENDBRANCH   4  16
TORSDOF 6
ENDMDL
MODEL 6
REMARK VINA RESULT:      -7.2      3.685      6.033
REMARK  Name = 
REMARK  8 active torsions:
REMARK  status: ('A' for Active; 'I' for Inactive)
REMARK    1  A    between atoms: C_1  and  O_2
REMARK    2  A    between atoms: O_2  and  C_3
REMARK    3  A    between atoms: C_6  and  C_7
REMARK    4  A    between atoms: C_10  and  C_11
REMARK    5  A    between atoms: N_13  and  C_14
REMARK    6  A    between atoms: C_14  and  C_15
REMARK    7  A    between atoms: C_24  and  O_25
REMARK    8  A    between atoms: O_25  and  C_26
REMARK                            x       y       z     vdW  Elec       q    Type
REMARK                         _______ _______ _______ _____ _____    ______ ____
ROOT
ATOM      1  C   UNL     1       2.395   7.288  19.138  0.00  0.00    +0.000 C 
ATOM      2  N   UNL     1       2.518   8.092  18.132  0.00  0.00    +0.000 NA
ATOM      3  O   UNL     1       1.961   9.337  18.502  0.00  0.00    +0.000 OA
ATOM      4  C   UNL     1       1.530   9.280  19.862  0.00  0.00    +0.000 C 
ATOM      5  C   UNL     1       1.771   7.877  20.351  0.00  0.00    +0.000 C 
ENDROOT
BRANCH   1   9
ATOM      6  C   UNL     1       3.810   3.238  19.253  0.00  0.00    +0.000 A 
ATOM      7  C   UNL     1       4.581   4.252  18.663  0.00  0.00    +0.000 A 
ATOM      8  C   UNL     1       4.119   5.571  18.614  0.00  0.00    +0.000 A 
ATOM      9  C   UNL     1       2.859   5.883  19.123  0.00  0.00    +0.000 A 
ATOM     10  C   UNL     1       2.055   4.857  19.627  0.00  0.00    +0.000 A 
ATOM     11  C   UNL     1       2.511   3.533  19.690  0.00  0.00    +0.000 A 
BRANCH   6  13
ATOM     12  C   UNL     1       4.926   1.664  20.619  0.00  0.00    +0.000 C 
ATOM     13  O   UNL     1       4.296   1.965  19.374  0.00  0.00    +0.000 OA
ENDBRANCH   6  13
BRANCH  11  14
ATOM     14  O   UNL     1       1.566   2.700  20.227  0.00  0.00    +0.000 OA
ATOM     15  C   UNL     1       1.343   2.717  21.627  0.00  0.00    +0.000 C 
ENDBRANCH  11  14
ENDBRANCH   1   9
BRANCH   4  16
ATOM     16  C   UNL     1       0.068   9.703  20.017  0.00  0.00    +0.000 C 
ATOM     17  O   UNL     1      -0.628   9.340  20.965  0.00  0.00    +0.000 OA
ATOM     18  N   UNL     1      -0.366  10.603  19.071  0.00  0.00    +0.000 N 
ATOM     19  H   UNL     1       0.189  10.704  18.230  0.00  0.00    +0.000 HD
BRANCH  18  20
ATOM     20  C   UNL     1      -1.710  11.138  19.087  0.00  0.00    +0.000 C 
BRANCH  20  21
ATOM     21  C   UNL     1      -2.441  10.882  17.794  0.00  0.00    +0.000 A 
ATOM     22  C   UNL     1      -1.921   9.978  16.852  0.00  0.00    +0.000 A 
ATOM     23  C   UNL     1      -2.606   9.715  15.665  0.00  0.00    +0.000 A 
ATOM     24  C   UNL     1      -3.808  10.364  15.414  0.00  0.00    +0.000 A 
ATOM     25  F   UNL     1      -4.473  10.106  14.279  0.00  0.00    +0.000 F 
ATOM     26  C   UNL     1      -4.333  11.277  16.322  0.00  0.00    +0.000 A 
ATOM     27  C   UNL     1      -3.648  11.540  17.510  0.00  0.00    +0.000 A 
ENDBRANCH  20  21
ENDBRANCH  18  20
ENDBRANCH   4  16
TORSDOF 6
ENDMDL
MODEL 7
REMARK VINA RESULT:      -7.2      5.584     10.186
REMARK  Name = 
REMARK  8 active torsions:
REMARK  status: ('A' for Active; 'I' for Inactive)
REMARK    1  A    between atoms: C_1  and  O_2
REMARK    2  A    between atoms: O_2  and  C_3
REMARK    3  A    between atoms: C_6  and  C_7
REMARK    4  A    between atoms: C_10  and  C_11
REMARK    5  A    between atoms: N_13  and  C_14
REMARK    6  A    between atoms: C_14  and  C_15
REMARK    7  A    between atoms: C_24  and  O_25
REMARK    8  A    between atoms: O_25  and  C_26
REMARK                            x       y       z     vdW  Elec       q    Type
REMARK                         _______ _______ _______ _____ _____    ______ ____
ROOT
ATOM      1  C   UNL     1      -1.319  11.211  18.277  0.00  0.00    +0.000 C 
ATOM      2  N   UNL     1      -0.453  12.115  18.603  0.00  0.00    +0.000 NA
ATOM      3  O   UNL     1       0.814  11.494  18.682  0.00  0.00    +0.000 OA
ATOM      4  C   UNL     1       0.693  10.120  18.310  0.00  0.00    +0.000 C 
ATOM      5  C   UNL     1      -0.765   9.851  18.050  0.00  0.00    +0.000 C 
ENDROOT
BRANCH   1   9
ATOM      6  C   UNL     1      -5.540  11.843  17.822  0.00  0.00    +0.000 A 
ATOM      7  C   UNL     1      -4.741  11.501  16.719  0.00  0.00    +0.000 A 
ATOM      8  C   UNL     1      -3.364  11.305  16.861  0.00  0.00    +0.000 A 
ATOM      9  C   UNL     1      -2.763  11.486  18.105  0.00  0.00    +0.000 A 
ATOM     10  C   UNL     1      -3.543  11.915  19.183  0.00  0.00    +0.000 A 
ATOM     11  C   UNL     1      -4.926  12.106  19.055  0.00  0.00    +0.000 A 
BRANCH   6  13
ATOM     12  C   UNL     1      -7.381  13.263  17.395  0.00  0.00    +0.000 C 
ATOM     13  O   UNL     1      -6.898  11.955  17.699  0.00  0.00    +0.000 OA
ENDBRANCH   6  13
BRANCH  11  14
ATOM     14  O   UNL     1      -5.489  12.516  20.234  0.00  0.00    +0.000 OA
ATOM     15  C   UNL     1      -4.646  12.877  21.315  0.00  0.00    +0.000 C 
ENDBRANCH  11  14
ENDBRANCH   1   9
BRANCH   4  16
ATOM     16  C   UNL     1       1.272   9.187  19.374  0.00  0.00    +0.000 C 
ATOM     17  O   UNL     1       1.043   9.330  20.576  0.00  0.00    +0.000 OA
ATOM     18  N   UNL     1       1.975   8.117  18.870  0.00  0.00    +0.000 N 
ATOM     19  H   UNL     1       2.280   8.169  17.905  0.00  0.00    +0.000 HD
BRANCH  18  20
ATOM     20  C   UNL     1       2.561   7.114  19.731  0.00  0.00    +0.000 C 
BRANCH  20  21
ATOM     21  C   UNL     1       2.048   5.729  19.427  0.00  0.00    +0.000 A 
ATOM     22  C   UNL     1       1.581   4.903  20.463  0.00  0.00    +0.000 A 
ATOM     23  C   UNL     1       1.080   3.631  20.186  0.00  0.00    +0.000 A 
ATOM     24  C   UNL     1       1.055   3.178  18.873  0.00  0.00    +0.000 A 
ATOM     25  F   UNL     1       0.565   1.960  18.604  0.00  0.00    +0.000 F 
ATOM     26  C   UNL     1       1.530   3.970  17.834  0.00  0.00    +0.000 A 
ATOM     27  C   UNL     1       2.031   5.244  18.110  0.00  0.00    +0.000 A 
ENDBRANCH  20  21
ENDBRANCH  18  20
ENDBRANCH   4  16
TORSDOF 6
ENDMDL
MODEL 8
REMARK VINA RESULT:      -7.1      5.336      9.656
REMARK  Name = 
REMARK  8 active torsions:
REMARK  status: ('A' for Active; 'I' for Inactive)
REMARK    1  A    between atoms: C_1  and  O_2
REMARK    2  A    between atoms: O_2  and  C_3
REMARK    3  A    between atoms: C_6  and  C_7
REMARK    4  A    between atoms: C_10  and  C_11
REMARK    5  A    between atoms: N_13  and  C_14
REMARK    6  A    between atoms: C_14  and  C_15
REMARK    7  A    between atoms: C_24  and  O_25
REMARK    8  A    between atoms: O_25  and  C_26
REMARK                            x       y       z     vdW  Elec       q    Type
REMARK                         _______ _______ _______ _____ _____    ______ ____
ROOT
ATOM      1  C   UNL     1      -0.899  10.962  18.617  0.00  0.00    +0.000 C 
ATOM      2  N   UNL     1      -0.176  11.834  19.242  0.00  0.00    +0.000 NA
ATOM      3  O   UNL     1       1.092  11.256  19.479  0.00  0.00    +0.000 OA
ATOM      4  C   UNL     1       1.138   9.956  18.889  0.00  0.00    +0.000 C 
ATOM      5  C   UNL     1      -0.221   9.677  18.306  0.00  0.00    +0.000 C 
ENDROOT
BRANCH   1   9
ATOM      6  C   UNL     1      -4.914  11.835  17.376  0.00  0.00    +0.000 A 
ATOM      7  C   UNL     1      -4.531  11.973  18.720  0.00  0.00    +0.000 A 
ATOM      8  C   UNL     1      -3.227  11.679  19.130  0.00  0.00    +0.000 A 
ATOM      9  C   UNL     1      -2.299  11.207  18.203  0.00  0.00    +0.000 A 
ATOM     10  C   UNL     1      -2.705  10.983  16.885  0.00  0.00    +0.000 A 
ATOM     11  C   UNL     1      -4.008  11.283  16.460  0.00  0.00    +0.000 A 
BRANCH   6  13
ATOM     12  C   UNL     1      -6.592  13.500  17.366  0.00  0.00    +0.000 C 
ATOM     13  O   UNL     1      -6.165  12.200  16.960  0.00  0.00    +0.000 OA
ENDBRANCH   6  13
BRANCH  11  14
ATOM     14  O   UNL     1      -4.182  10.995  15.133  0.00  0.00    +0.000 OA
ATOM     15  C   UNL     1      -3.262  10.133  14.484  0.00  0.00    +0.000 C 
ENDBRANCH  11  14
ENDBRANCH   1   9
BRANCH   4  16
ATOM     16  C   UNL     1       1.565   8.886  19.896  0.00  0.00    +0.000 C 
ATOM     17  O   UNL     1       1.285   8.956  21.094  0.00  0.00    +0.000 OA
ATOM     18  N   UNL     1       2.187   7.795  19.336  0.00  0.00    +0.000 N 
ATOM     19  H   UNL     1       2.548   7.893  18.395  0.00  0.00    +0.000 HD
BRANCH  18  20
ATOM     20  C   UNL     1       2.625   6.672  20.136  0.00  0.00    +0.000 C 
BRANCH  20  21
ATOM     21  C   UNL     1       2.013   5.372  19.679  0.00  0.00    +0.000 A 
ATOM     22  C   UNL     1       2.098   4.984  18.331  0.00  0.00    +0.000 A 
ATOM     23  C   UNL     1       1.557   3.769  17.906  0.00  0.00    +0.000 A 
ATOM     24  C   UNL     1       0.922   2.946  18.827  0.00  0.00    +0.000 A 
ATOM     25  F   UNL     1       0.412   1.775  18.423  0.00  0.00    +0.000 F 
ATOM     26  C   UNL     1       0.809   3.318  20.162  0.00  0.00    +0.000 A 
ATOM     27  C   UNL     1       1.350   4.533  20.588  0.00  0.00    +0.000 A 
ENDBRANCH  20  21
ENDBRANCH  18  20
ENDBRANCH   4  16
TORSDOF 6
ENDMDL
MODEL 9
REMARK VINA RESULT:      -7.1      4.148      6.783
REMARK  Name = 
REMARK  8 active torsions:
REMARK  status: ('A' for Active; 'I' for Inactive)
REMARK    1  A    between atoms: C_1  and  O_2
REMARK    2  A    between atoms: O_2  and  C_3
REMARK    3  A    between atoms: C_6  and  C_7
REMARK    4  A    between atoms: C_10  and  C_11
REMARK    5  A    between atoms: N_13  and  C_14
REMARK    6  A    between atoms: C_14  and  C_15
REMARK    7  A    between atoms: C_24  and  O_25
REMARK    8  A    between atoms: O_25  and  C_26
REMARK                            x       y       z     vdW  Elec       q    Type
REMARK                         _______ _______ _______ _____ _____    ______ ____
ROOT
ATOM      1  C   UNL     1       1.035   8.513  21.527  0.00  0.00    +0.000 C 
ATOM      2  N   UNL     1       1.766   9.190  22.353  0.00  0.00    +0.000 NA
ATOM      3  O   UNL     1       0.903   9.934  23.187  0.00  0.00    +0.000 OA
ATOM      4  C   UNL     1      -0.453   9.622  22.867  0.00  0.00    +0.000 C 
ATOM      5  C   UNL     1      -0.433   8.669  21.701  0.00  0.00    +0.000 C 
ENDROOT
BRANCH   1   9
ATOM      6  C   UNL     1       2.802   5.937  18.585  0.00  0.00    +0.000 A 
ATOM      7  C   UNL     1       2.606   7.302  18.321  0.00  0.00    +0.000 A 
ATOM      8  C   UNL     1       2.021   8.143  19.272  0.00  0.00    +0.000 A 
ATOM      9  C   UNL     1       1.589   7.617  20.489  0.00  0.00    +0.000 A 
ATOM     10  C   UNL     1       1.700   6.242  20.715  0.00  0.00    +0.000 A 
ATOM     11  C   UNL     1       2.294   5.391  19.772  0.00  0.00    +0.000 A 
BRANCH   6  13
ATOM     12  C   UNL     1       4.872   5.140  17.769  0.00  0.00    +0.000 C 
ATOM     13  O   UNL     1       3.447   5.132  17.687  0.00  0.00    +0.000 OA
ENDBRANCH   6  13
BRANCH  11  14
ATOM     14  O   UNL     1       2.306   4.091  20.204  0.00  0.00    +0.000 OA
ATOM     15  C   UNL     1       1.142   3.297  20.044  0.00  0.00    +0.000 C 
ENDBRANCH  11  14
ENDBRANCH   1   9
BRANCH   4  16
ATOM     16  C   UNL     1      -1.275  10.878  22.571  0.00  0.00    +0.000 C 
ATOM     17  O   UNL     1      -2.008  11.402  23.410  0.00  0.00    +0.000 OA
ATOM     18  N   UNL     1      -1.042  11.431  21.333  0.00  0.00    +0.000 N 
ATOM     19  H   UNL     1      -0.584  10.852  20.640  0.00  0.00    +0.000 HD
BRANCH  18  20
ATOM     20  C   UNL     1      -1.705  12.641  20.899  0.00  0.00    +0.000 C 
BRANCH  20  21
ATOM     21  C   UNL     1      -2.831  12.362  19.937  0.00  0.00    +0.000 A 
ATOM     22  C   UNL     1      -4.142  12.764  20.245  0.00  0.00    +0.000 A 
ATOM     23  C   UNL     1      -5.185  12.533  19.346  0.00  0.00    +0.000 A 
ATOM     24  C   UNL     1      -4.920  11.891  18.143  0.00  0.00    +0.000 A 
ATOM     25  F   UNL     1      -5.918  11.678  17.275  0.00  0.00    +0.000 F 
ATOM     26  C   UNL     1      -3.634  11.468  17.826  0.00  0.00    +0.000 A 
ATOM     27  C   UNL     1      -2.590  11.699  18.724  0.00  0.00    +0.000 A 
ENDBRANCH  20  21
ENDBRANCH  18  20
ENDBRANCH   4  16
TORSDOF 6
ENDMDL
