MODEL 1
REMARK VINA RESULT:      -7.9      0.000      0.000
REMARK  Name = 
REMARK  6 active torsions:
REMARK  status: ('A' for Active; 'I' for Inactive)
REMARK    1  A    between atoms: O_1  and  C_2
REMARK    2  A    between atoms: C_2  and  C_3
REMARK    3  A    between atoms: C_2  and  C_18
REMARK    4  A    between atoms: C_3  and  C_4
REMARK    5  A    between atoms: C_4  and  N_5
REMARK    6  A    between atoms: N_8  and  C_9
REMARK                            x       y       z     vdW  Elec       q    Type
REMARK                         _______ _______ _______ _____ _____    ______ ____
ROOT
ATOM      1  C   UNL     1       7.709   8.856  17.622  0.00  0.00    +0.000 C 
ENDROOT
BRANCH   1   2
ATOM      2  C   UNL     1       8.962   9.521  18.214  0.00  0.00    +0.000 C 
BRANCH   2   3
ATOM      3  C   UNL     1       8.938  11.033  18.124  0.00  0.00    +0.000 A 
ATOM      4  C   UNL     1       7.925  11.675  17.398  0.00  0.00    +0.000 A 
ATOM      5  C   UNL     1       7.843  13.069  17.363  0.00  0.00    +0.000 A 
ATOM      6  C   UNL     1       8.783  13.858  18.039  0.00  0.00    +0.000 A 
ATOM      7  C   UNL     1       8.701  15.259  18.038  0.00  0.00    +0.000 A 
ATOM      8  C   UNL     1       9.649  16.028  18.716  0.00  0.00    +0.000 A 
ATOM      9  C   UNL     1      10.691  15.407  19.398  0.00  0.00    +0.000 A 
ATOM     10  C   UNL     1      10.783  14.014  19.411  0.00  0.00    +0.000 A 
ATOM     11  C   UNL     1       9.832  13.228  18.744  0.00  0.00    +0.000 A 
ATOM     12  C   UNL     1       9.897  11.826  18.774  0.00  0.00    +0.000 A 
ENDBRANCH   2   3
BRANCH   2  13
ATOM     13  O   UNL     1       9.118   9.086  19.567  0.00  0.00    +0.000 OA
ATOM     14  H   UNL     1       8.668   9.733  20.135  0.00  0.00    +0.000 HD
ENDBRANCH   2  13
ENDBRANCH   1   2
BRANCH   1  15
ATOM     15  C   UNL     1       7.686   7.330  17.826  0.00  0.00    +0.000 C 
BRANCH  15  16
ATOM     16  N   UNL     1       6.943   6.602  16.775  0.00  0.00    +0.000 NA
ATOM     17  C   UNL     1       6.910   5.136  16.987  0.00  0.00    +0.000 C 
ATOM     18  C   UNL     1       6.186   4.717  18.280  0.00  0.00    +0.000 C 
ATOM     19  N   UNL     1       4.813   5.234  18.288  0.00  0.00    +0.000 N 
ATOM     20  C   UNL     1       4.650   6.663  17.957  0.00  0.00    +0.000 C 
ATOM     21  C   UNL     1       5.529   7.068  16.738  0.00  0.00    +0.000 C 
BRANCH  19  22
ATOM     22  C   UNL     1       3.727   4.380  18.281  0.00  0.00    +0.000 A 
ATOM     23  C   UNL     1       2.483   4.793  18.786  0.00  0.00    +0.000 A 
ATOM     24  C   UNL     1       1.395   3.919  18.850  0.00  0.00    +0.000 A 
ATOM     25  C   UNL     1       1.537   2.615  18.396  0.00  0.00    +0.000 A 
ATOM     26  F   UNL     1       0.503   1.767  18.472  0.00  0.00    +0.000 F 
ATOM     27  C   UNL     1       2.741   2.178  17.871  0.00  0.00    +0.000 A 
ATOM     28  C   UNL     1       3.824   3.060  17.812  0.00  0.00    +0.000 A 
ENDBRANCH  19  22
ENDBRANCH  15  16
ENDBRANCH   1  15
TORSDOF 6
ENDMDL
MODEL 2
REMARK VINA RESULT:      -7.8      7.404     10.891
REMARK  Name = 
REMARK  6 active torsions:
REMARK  status: ('A' for Active; 'I' for Inactive)
REMARK    1  A    between atoms: O_1  and  C_2
REMARK    2  A    between atoms: C_2  and  C_3
REMARK    3  A    between atoms: C_2  and  C_18
REMARK    4  A    between atoms: C_3  and  C_4
REMARK    5  A    between atoms: C_4  and  N_5
REMARK    6  A    between atoms: N_8  and  C_9
REMARK                            x       y       z     vdW  Elec       q    Type
REMARK                         _______ _______ _______ _____ _____    ______ ____
ROOT
ATOM      1  C   UNL     1       1.401   8.887  19.359  0.00  0.00    +0.000 C 
ENDROOT
BRANCH   1   2
ATOM      2  C   UNL     1       2.486   8.756  18.277  0.00  0.00    +0.000 C 
BRANCH   2   3
ATOM      3  C   UNL     1       2.852   7.319  17.965  0.00  0.00    +0.000 A 
ATOM      4  C   UNL     1       4.087   7.024  17.372  0.00  0.00    +0.000 A 
ATOM      5  C   UNL     1       4.474   5.702  17.143  0.00  0.00    +0.000 A 
ATOM      6  C   UNL     1       3.626   4.640  17.486  0.00  0.00    +0.000 A 
ATOM      7  C   UNL     1       4.007   3.304  17.288  0.00  0.00    +0.000 A 
ATOM      8  C   UNL     1       3.148   2.259  17.633  0.00  0.00    +0.000 A 
ATOM      9  C   UNL     1       1.896   2.538  18.174  0.00  0.00    +0.000 A 
ATOM     10  C   UNL     1       1.504   3.861  18.380  0.00  0.00    +0.000 A 
ATOM     11  C   UNL     1       2.362   4.921  18.048  0.00  0.00    +0.000 A 
ATOM     12  C   UNL     1       1.991   6.256  18.277  0.00  0.00    +0.000 A 
ENDBRANCH   2   3
BRANCH   2  13
ATOM     13  O   UNL     1       2.051   9.447  17.103  0.00  0.00    +0.000 OA
ATOM     14  H   UNL     1       2.838   9.618  16.558  0.00  0.00    +0.000 HD
ENDBRANCH   2  13
ENDBRANCH   1   2
BRANCH   1  15
ATOM     15  C   UNL     1       0.344   9.955  19.023  0.00  0.00    +0.000 C 
BRANCH  15  16
ATOM     16  N   UNL     1       0.684  11.304  19.525  0.00  0.00    +0.000 NA
ATOM     17  C   UNL     1      -0.420  12.280  19.380  0.00  0.00    +0.000 C 
ATOM     18  C   UNL     1      -1.679  11.913  20.188  0.00  0.00    +0.000 C 
ATOM     19  N   UNL     1      -1.349  11.770  21.611  0.00  0.00    +0.000 N 
ATOM     20  C   UNL     1      -0.177  10.932  21.929  0.00  0.00    +0.000 C 
ATOM     21  C   UNL     1       1.015  11.236  20.976  0.00  0.00    +0.000 C 
BRANCH  19  22
ATOM     22  C   UNL     1      -1.890  12.617  22.559  0.00  0.00    +0.000 A 
ATOM     23  C   UNL     1      -1.183  13.747  23.003  0.00  0.00    +0.000 A 
ATOM     24  C   UNL     1      -1.687  14.573  24.010  0.00  0.00    +0.000 A 
ATOM     25  C   UNL     1      -2.917  14.283  24.582  0.00  0.00    +0.000 A 
ATOM     26  F   UNL     1      -3.397  15.061  25.560  0.00  0.00    +0.000 F 
ATOM     27  C   UNL     1      -3.654  13.191  24.154  0.00  0.00    +0.000 A 
ATOM     28  C   UNL     1      -3.141  12.370  23.147  0.00  0.00    +0.000 A 
ENDBRANCH  19  22
ENDBRANCH  15  16
ENDBRANCH   1  15
TORSDOF 6
ENDMDL
MODEL 3
REMARK VINA RESULT:      -7.8      1.533      2.137
REMARK  Name = 
REMARK  6 active torsions:
REMARK  status: ('A' for Active; 'I' for Inactive)
REMARK    1  A    between atoms: O_1  and  C_2
REMARK    2  A    between atoms: C_2  and  C_3
REMARK    3  A    between atoms: C_2  and  C_18
REMARK    4  A    between atoms: C_3  and  C_4
REMARK    5  A    between atoms: C_4  and  N_5
REMARK    6  A    between atoms: N_8  and  C_9
REMARK                            x       y       z     vdW  Elec       q    Type
REMARK                         _______ _______ _______ _____ _____    ______ ____
ROOT
ATOM      1  C   UNL     1       8.374   7.906  18.626  0.00  0.00    +0.000 C 
ENDROOT
BRANCH   1   2
ATOM      2  C   UNL     1       7.953   9.331  18.229  0.00  0.00    +0.000 C 
BRANCH   2   3
ATOM      3  C   UNL     1       8.948  10.391  18.654  0.00  0.00    +0.000 A 
ATOM      4  C   UNL     1       9.517  10.343  19.935  0.00  0.00    +0.000 A 
ATOM      5  C   UNL     1      10.490  11.268  20.320  0.00  0.00    +0.000 A 
ATOM      6  C   UNL     1      10.907  12.276  19.440  0.00  0.00    +0.000 A 
ATOM      7  C   UNL     1      11.903  13.198  19.799  0.00  0.00    +0.000 A 
ATOM      8  C   UNL     1      12.304  14.196  18.910  0.00  0.00    +0.000 A 
ATOM      9  C   UNL     1      11.710  14.289  17.653  0.00  0.00    +0.000 A 
ATOM     10  C   UNL     1      10.722  13.377  17.281  0.00  0.00    +0.000 A 
ATOM     11  C   UNL     1      10.317  12.361  18.160  0.00  0.00    +0.000 A 
ATOM     12  C   UNL     1       9.344  11.421  17.786  0.00  0.00    +0.000 A 
ENDBRANCH   2   3
BRANCH   2  13
ATOM     13  O   UNL     1       7.729   9.367  16.817  0.00  0.00    +0.000 OA
ATOM     14  H   UNL     1       8.551   9.674  16.400  0.00  0.00    +0.000 HD
ENDBRANCH   2  13
ENDBRANCH   1   2
BRANCH   1  15
ATOM     15  C   UNL     1       7.857   6.833  17.650  0.00  0.00    +0.000 C 
BRANCH  15  16
ATOM     16  N   UNL     1       7.628   5.516  18.283  0.00  0.00    +0.000 NA
ATOM     17  C   UNL     1       6.584   5.542  19.333  0.00  0.00    +0.000 C 
ATOM     18  C   UNL     1       5.188   5.924  18.805  0.00  0.00    +0.000 C 
ATOM     19  N   UNL     1       4.775   5.003  17.741  0.00  0.00    +0.000 N 
ATOM     20  C   UNL     1       5.762   4.753  16.672  0.00  0.00    +0.000 C 
ATOM     21  C   UNL     1       7.187   4.530  17.257  0.00  0.00    +0.000 C 
BRANCH  19  22
ATOM     22  C   UNL     1       3.677   4.178  17.895  0.00  0.00    +0.000 A 
ATOM     23  C   UNL     1       2.445   4.693  18.331  0.00  0.00    +0.000 A 
ATOM     24  C   UNL     1       1.347   3.861  18.557  0.00  0.00    +0.000 A 
ATOM     25  C   UNL     1       1.465   2.496  18.339  0.00  0.00    +0.000 A 
ATOM     26  F   UNL     1       0.420   1.691  18.571  0.00  0.00    +0.000 F 
ATOM     27  C   UNL     1       2.656   1.954  17.887  0.00  0.00    +0.000 A 
ATOM     28  C   UNL     1       3.750   2.794  17.664  0.00  0.00    +0.000 A 
ENDBRANCH  19  22
ENDBRANCH  15  16
ENDBRANCH   1  15
TORSDOF 6
ENDMDL
MODEL 4
REMARK VINA RESULT:      -7.8      6.018      8.213
REMARK  Name = 
REMARK  6 active torsions:
REMARK  status: ('A' for Active; 'I' for Inactive)
REMARK    1  A    between atoms: O_1  and  C_2
REMARK    2  A    between atoms: C_2  and  C_3
REMARK    3  A    between atoms: C_2  and  C_18
REMARK    4  A    between atoms: C_3  and  C_4
REMARK    5  A    between atoms: C_4  and  N_5
REMARK    6  A    between atoms: N_8  and  C_9
REMARK                            x       y       z     vdW  Elec       q    Type
REMARK                         _______ _______ _______ _____ _____    ______ ____
ROOT
ATOM      1  C   UNL     1       3.845   3.058  18.095  0.00  0.00    +0.000 C 
ENDROOT
BRANCH   1   2
ATOM      2  C   UNL     1       5.275   3.602  18.252  0.00  0.00    +0.000 C 
BRANCH   2   3
ATOM      3  C   UNL     1       5.876   4.092  16.950  0.00  0.00    +0.000 A 
ATOM      4  C   UNL     1       6.830   5.120  16.963  0.00  0.00    +0.000 A 
ATOM      5  C   UNL     1       7.449   5.536  15.782  0.00  0.00    +0.000 A 
ATOM      6  C   UNL     1       7.117   4.946  14.555  0.00  0.00    +0.000 A 
ATOM      7  C   UNL     1       7.747   5.332  13.361  0.00  0.00    +0.000 A 
ATOM      8  C   UNL     1       7.402   4.735  12.148  0.00  0.00    +0.000 A 
ATOM      9  C   UNL     1       6.419   3.750  12.111  0.00  0.00    +0.000 A 
ATOM     10  C   UNL     1       5.785   3.354  13.290  0.00  0.00    +0.000 A 
ATOM     11  C   UNL     1       6.131   3.937  14.519  0.00  0.00    +0.000 A 
ATOM     12  C   UNL     1       5.522   3.526  15.715  0.00  0.00    +0.000 A 
ENDBRANCH   2   3
BRANCH   2  13
ATOM     13  O   UNL     1       5.268   4.635  19.240  0.00  0.00    +0.000 OA
ATOM     14  H   UNL     1       5.168   4.207  20.107  0.00  0.00    +0.000 HD
ENDBRANCH   2  13
ENDBRANCH   1   2
BRANCH   1  15
ATOM     15  C   UNL     1       2.996   3.227  19.367  0.00  0.00    +0.000 C 
BRANCH  15  16
ATOM     16  N   UNL     1       1.682   3.862  19.123  0.00  0.00    +0.000 NA
ATOM     17  C   UNL     1       1.180   4.637  20.281  0.00  0.00    +0.000 C 
ATOM     18  C   UNL     1       2.079   5.829  20.661  0.00  0.00    +0.000 C 
ATOM     19  N   UNL     1       2.244   6.730  19.515  0.00  0.00    +0.000 N 
ATOM     20  C   UNL     1       2.613   6.099  18.234  0.00  0.00    +0.000 C 
ATOM     21  C   UNL     1       1.782   4.808  17.976  0.00  0.00    +0.000 C 
BRANCH  19  22
ATOM     22  C   UNL     1       1.772   8.028  19.553  0.00  0.00    +0.000 A 
ATOM     23  C   UNL     1       1.225   8.562  20.731  0.00  0.00    +0.000 A 
ATOM     24  C   UNL     1       0.681   9.848  20.765  0.00  0.00    +0.000 A 
ATOM     25  C   UNL     1       0.687  10.625  19.615  0.00  0.00    +0.000 A 
ATOM     26  F   UNL     1       0.150  11.852  19.637  0.00  0.00    +0.000 F 
ATOM     27  C   UNL     1       1.237  10.141  18.440  0.00  0.00    +0.000 A 
ATOM     28  C   UNL     1       1.778   8.854  18.416  0.00  0.00    +0.000 A 
ENDBRANCH  19  22
ENDBRANCH  15  16
ENDBRANCH   1  15
TORSDOF 6
ENDMDL
MODEL 5
REMARK VINA RESULT:      -7.7      1.026      1.493
REMARK  Name = 
REMARK  6 active torsions:
REMARK  status: ('A' for Active; 'I' for Inactive)
REMARK    1  A    between atoms: O_1  and  C_2
REMARK    2  A    between atoms: C_2  and  C_3
REMARK    3  A    between atoms: C_2  and  C_18
REMARK    4  A    between atoms: C_3  and  C_4
REMARK    5  A    between atoms: C_4  and  N_5
REMARK    6  A    between atoms: N_8  and  C_9
REMARK                            x       y       z     vdW  Elec       q    Type
REMARK                         _______ _______ _______ _____ _____    ______ ____
ROOT
ATOM      1  C   UNL     1       8.279   9.325  17.782  0.00  0.00    +0.000 C 
ENDROOT
BRANCH   1   2
ATOM      2  C   UNL     1       9.426   9.887  18.638  0.00  0.00    +0.000 C 
BRANCH   2   3
ATOM      3  C   UNL     1       9.795  11.314  18.286  0.00  0.00    +0.000 A 
ATOM      4  C   UNL     1      11.049  11.595  17.727  0.00  0.00    +0.000 A 
ATOM      5  C   UNL     1      11.381  12.891  17.328  0.00  0.00    +0.000 A 
ATOM      6  C   UNL     1      10.472  13.945  17.494  0.00  0.00    +0.000 A 
ATOM      7  C   UNL     1      10.776  15.249  17.075  0.00  0.00    +0.000 A 
ATOM      8  C   UNL     1       9.858  16.286  17.251  0.00  0.00    +0.000 A 
ATOM      9  C   UNL     1       8.629  16.033  17.853  0.00  0.00    +0.000 A 
ATOM     10  C   UNL     1       8.310  14.741  18.272  0.00  0.00    +0.000 A 
ATOM     11  C   UNL     1       9.219  13.686  18.091  0.00  0.00    +0.000 A 
ATOM     12  C   UNL     1       8.898  12.376  18.481  0.00  0.00    +0.000 A 
ENDBRANCH   2   3
BRANCH   2  13
ATOM     13  O   UNL     1       9.070   9.770  20.018  0.00  0.00    +0.000 OA
ATOM     14  H   UNL     1       8.100   9.809  20.072  0.00  0.00    +0.000 HD
ENDBRANCH   2  13
ENDBRANCH   1   2
BRANCH   1  15
ATOM     15  C   UNL     1       7.816   7.930  18.239  0.00  0.00    +0.000 C 
BRANCH  15  16
ATOM     16  N   UNL     1       7.298   7.087  17.139  0.00  0.00    +0.000 NA
ATOM     17  C   UNL     1       7.339   5.638  17.441  0.00  0.00    +0.000 C 
ATOM     18  C   UNL     1       6.458   5.232  18.637  0.00  0.00    +0.000 C 
ATOM     19  N   UNL     1       5.066   5.634  18.406  0.00  0.00    +0.000 N 
ATOM     20  C   UNL     1       4.853   7.025  17.962  0.00  0.00    +0.000 C 
ATOM     21  C   UNL     1       5.876   7.433  16.862  0.00  0.00    +0.000 C 
BRANCH  19  22
ATOM     22  C   UNL     1       4.059   4.695  18.295  0.00  0.00    +0.000 A 
ATOM     23  C   UNL     1       2.752   5.078  17.951  0.00  0.00    +0.000 A 
ATOM     24  C   UNL     1       1.709   4.150  17.903  0.00  0.00    +0.000 A 
ATOM     25  C   UNL     1       1.966   2.817  18.190  0.00  0.00    +0.000 A 
ATOM     26  F   UNL     1       0.966   1.926  18.163  0.00  0.00    +0.000 F 
ATOM     27  C   UNL     1       3.245   2.398  18.511  0.00  0.00    +0.000 A 
ATOM     28  C   UNL     1       4.282   3.333  18.558  0.00  0.00    +0.000 A 
ENDBRANCH  19  22
ENDBRANCH  15  16
ENDBRANCH   1  15
TORSDOF 6
ENDMDL
MODEL 6
REMARK VINA RESULT:      -7.6      5.981      7.561
REMARK  Name = 
REMARK  6 active torsions:
REMARK  status: ('A' for Active; 'I' for Inactive)
REMARK    1  A    between atoms: O_1  and  C_2
REMARK    2  A    between atoms: C_2  and  C_3
REMARK    3  A    between atoms: C_2  and  C_18
REMARK    4  A    between atoms: C_3  and  C_4
REMARK    5  A    between atoms: C_4  and  N_5
REMARK    6  A    between atoms: N_8  and  C_9
REMARK                            x       y       z     vdW  Elec       q    Type
REMARK                         _______ _______ _______ _____ _____    ______ ____
ROOT
ATOM      1  C   UNL     1       2.817   3.941  20.754  0.00  0.00    +0.000 C 
ENDROOT
BRANCH   1   2
ATOM      2  C   UNL     1       1.630   4.892  20.978  0.00  0.00    +0.000 C 
BRANCH   2   3
ATOM      3  C   UNL     1       1.766   6.206  20.236  0.00  0.00    +0.000 A 
ATOM      4  C   UNL     1       2.366   6.236  18.969  0.00  0.00    +0.000 A 
ATOM      5  C   UNL     1       2.436   7.424  18.238  0.00  0.00    +0.000 A 
ATOM      6  C   UNL     1       1.923   8.617  18.763  0.00  0.00    +0.000 A 
ATOM      7  C   UNL     1       1.960   9.815  18.032  0.00  0.00    +0.000 A 
ATOM      8  C   UNL     1       1.445  10.995  18.573  0.00  0.00    +0.000 A 
ATOM      9  C   UNL     1       0.894  10.993  19.851  0.00  0.00    +0.000 A 
ATOM     10  C   UNL     1       0.847   9.809  20.588  0.00  0.00    +0.000 A 
ATOM     11  C   UNL     1       1.350   8.613  20.053  0.00  0.00    +0.000 A 
ATOM     12  C   UNL     1       1.283   7.409  20.773  0.00  0.00    +0.000 A 
ENDBRANCH   2   3
BRANCH   2  13
ATOM     13  O   UNL     1       0.424   4.215  20.615  0.00  0.00    +0.000 OA
ATOM     14  H   UNL     1      -0.231   4.894  20.381  0.00  0.00    +0.000 HD
ENDBRANCH   2  13
ENDBRANCH   1   2
BRANCH   1  15
ATOM     15  C   UNL     1       2.407   2.615  20.088  0.00  0.00    +0.000 C 
BRANCH  15  16
ATOM     16  N   UNL     1       3.528   1.911  19.428  0.00  0.00    +0.000 NA
ATOM     17  C   UNL     1       3.356   1.774  17.964  0.00  0.00    +0.000 C 
ATOM     18  C   UNL     1       3.304   3.121  17.220  0.00  0.00    +0.000 C 
ATOM     19  N   UNL     1       4.518   3.900  17.489  0.00  0.00    +0.000 N 
ATOM     20  C   UNL     1       4.916   4.022  18.905  0.00  0.00    +0.000 C 
ATOM     21  C   UNL     1       4.797   2.660  19.648  0.00  0.00    +0.000 C 
BRANCH  19  22
ATOM     22  C   UNL     1       5.403   4.218  16.477  0.00  0.00    +0.000 A 
ATOM     23  C   UNL     1       6.337   5.255  16.636  0.00  0.00    +0.000 A 
ATOM     24  C   UNL     1       7.190   5.634  15.597  0.00  0.00    +0.000 A 
ATOM     25  C   UNL     1       7.126   4.968  14.382  0.00  0.00    +0.000 A 
ATOM     26  F   UNL     1       7.930   5.339  13.376  0.00  0.00    +0.000 F 
ATOM     27  C   UNL     1       6.235   3.926  14.195  0.00  0.00    +0.000 A 
ATOM     28  C   UNL     1       5.384   3.555  15.239  0.00  0.00    +0.000 A 
ENDBRANCH  19  22
ENDBRANCH  15  16
ENDBRANCH   1  15
TORSDOF 6
ENDMDL
MODEL 7
REMARK VINA RESULT:      -7.6      6.026      8.709
REMARK  Name = 
REMARK  6 active torsions:
REMARK  status: ('A' for Active; 'I' for Inactive)
REMARK    1  A    between atoms: O_1  and  C_2
REMARK    2  A    between atoms: C_2  and  C_3
REMARK    3  A    between atoms: C_2  and  C_18
REMARK    4  A    between atoms: C_3  and  C_4
REMARK    5  A    between atoms: C_4  and  N_5
REMARK    6  A    between atoms: N_8  and  C_9
REMARK                            x       y       z     vdW  Elec       q    Type
REMARK                         _______ _______ _______ _____ _____    ______ ____
ROOT
ATOM      1  C   UNL     1       0.870   8.912  20.990  0.00  0.00    +0.000 C 
ENDROOT
BRANCH   1   2
ATOM      2  C   UNL     1       0.875  10.290  20.308  0.00  0.00    +0.000 C 
BRANCH   2   3
ATOM      3  C   UNL     1      -0.424  10.613  19.599  0.00  0.00    +0.000 A 
ATOM      4  C   UNL     1      -1.330  11.516  20.174  0.00  0.00    +0.000 A 
ATOM      5  C   UNL     1      -2.498  11.882  19.502  0.00  0.00    +0.000 A 
ATOM      6  C   UNL     1      -2.800  11.341  18.246  0.00  0.00    +0.000 A 
ATOM      7  C   UNL     1      -3.956  11.716  17.544  0.00  0.00    +0.000 A 
ATOM      8  C   UNL     1      -4.242  11.164  16.293  0.00  0.00    +0.000 A 
ATOM      9  C   UNL     1      -3.379  10.226  15.733  0.00  0.00    +0.000 A 
ATOM     10  C   UNL     1      -2.224   9.845  16.418  0.00  0.00    +0.000 A 
ATOM     11  C   UNL     1      -1.919  10.401  17.670  0.00  0.00    +0.000 A 
ATOM     12  C   UNL     1      -0.745  10.047  18.355  0.00  0.00    +0.000 A 
ENDBRANCH   2   3
BRANCH   2  13
ATOM     13  O   UNL     1       1.193  11.285  21.285  0.00  0.00    +0.000 OA
ATOM     14  H   UNL     1       2.037  11.031  21.694  0.00  0.00    +0.000 HD
ENDBRANCH   2  13
ENDBRANCH   1   2
BRANCH   1  15
ATOM     15  C   UNL     1       1.997   7.991  20.489  0.00  0.00    +0.000 C 
BRANCH  15  16
ATOM     16  N   UNL     1       1.569   7.049  19.432  0.00  0.00    +0.000 NA
ATOM     17  C   UNL     1       1.925   7.497  18.066  0.00  0.00    +0.000 C 
ATOM     18  C   UNL     1       3.443   7.616  17.834  0.00  0.00    +0.000 C 
ATOM     19  N   UNL     1       4.104   6.334  18.106  0.00  0.00    +0.000 N 
ATOM     20  C   UNL     1       3.752   5.675  19.379  0.00  0.00    +0.000 C 
ATOM     21  C   UNL     1       2.219   5.724  19.639  0.00  0.00    +0.000 C 
BRANCH  19  22
ATOM     22  C   UNL     1       4.754   5.637  17.106  0.00  0.00    +0.000 A 
ATOM     23  C   UNL     1       5.172   6.285  15.932  0.00  0.00    +0.000 A 
ATOM     24  C   UNL     1       5.768   5.581  14.883  0.00  0.00    +0.000 A 
ATOM     25  C   UNL     1       5.962   4.212  15.001  0.00  0.00    +0.000 A 
ATOM     26  F   UNL     1       6.517   3.528  13.992  0.00  0.00    +0.000 F 
ATOM     27  C   UNL     1       5.584   3.542  16.153  0.00  0.00    +0.000 A 
ATOM     28  C   UNL     1       4.988   4.255  17.196  0.00  0.00    +0.000 A 
ENDBRANCH  19  22
ENDBRANCH  15  16
ENDBRANCH   1  15
TORSDOF 6
ENDMDL
MODEL 8
REMARK VINA RESULT:      -7.5      5.216      7.751
REMARK  Name = 
REMARK  6 active torsions:
REMARK  status: ('A' for Active; 'I' for Inactive)
REMARK    1  A    between atoms: O_1  and  C_2
REMARK    2  A    between atoms: C_2  and  C_3
REMARK    3  A    between atoms: C_2  and  C_18
REMARK    4  A    between atoms: C_3  and  C_4
REMARK    5  A    between atoms: C_4  and  N_5
REMARK    6  A    between atoms: N_8  and  C_9
REMARK                            x       y       z     vdW  Elec       q    Type
REMARK                         _______ _______ _______ _____ _____    ______ ____
ROOT
ATOM      1  C   UNL     1       2.290   2.021  18.798  0.00  0.00    +0.000 C 
ENDROOT
BRANCH   1   2
ATOM      2  C   UNL     1       3.538   1.804  17.927  0.00  0.00    +0.000 C 
BRANCH   2   3
ATOM      3  C   UNL     1       4.299   3.082  17.640  0.00  0.00    +0.000 A 
ATOM      4  C   UNL     1       3.890   3.919  16.592  0.00  0.00    +0.000 A 
ATOM      5  C   UNL     1       4.533   5.137  16.357  0.00  0.00    +0.000 A 
ATOM      6  C   UNL     1       5.613   5.541  17.154  0.00  0.00    +0.000 A 
ATOM      7  C   UNL     1       6.254   6.772  16.951  0.00  0.00    +0.000 A 
ATOM      8  C   UNL     1       7.330   7.157  17.753  0.00  0.00    +0.000 A 
ATOM      9  C   UNL     1       7.781   6.312  18.764  0.00  0.00    +0.000 A 
ATOM     10  C   UNL     1       7.151   5.086  18.980  0.00  0.00    +0.000 A 
ATOM     11  C   UNL     1       6.062   4.692  18.189  0.00  0.00    +0.000 A 
ATOM     12  C   UNL     1       5.402   3.473  18.415  0.00  0.00    +0.000 A 
ENDBRANCH   2   3
BRANCH   2  13
ATOM     13  O   UNL     1       4.377   0.833  18.558  0.00  0.00    +0.000 OA
ATOM     14  H   UNL     1       4.076   0.743  19.478  0.00  0.00    +0.000 HD
ENDBRANCH   2  13
ENDBRANCH   1   2
BRANCH   1  15
ATOM     15  C   UNL     1       2.631   2.392  20.253  0.00  0.00    +0.000 C 
BRANCH  15  16
ATOM     16  N   UNL     1       1.692   3.365  20.853  0.00  0.00    +0.000 NA
ATOM     17  C   UNL     1       2.366   4.540  21.451  0.00  0.00    +0.000 C 
ATOM     18  C   UNL     1       3.145   5.390  20.430  0.00  0.00    +0.000 C 
ATOM     19  N   UNL     1       2.253   5.843  19.357  0.00  0.00    +0.000 N 
ATOM     20  C   UNL     1       1.398   4.812  18.737  0.00  0.00    +0.000 C 
ATOM     21  C   UNL     1       0.762   3.881  19.809  0.00  0.00    +0.000 C 
BRANCH  19  22
ATOM     22  C   UNL     1       1.992   7.186  19.163  0.00  0.00    +0.000 A 
ATOM     23  C   UNL     1       2.305   7.812  17.945  0.00  0.00    +0.000 A 
ATOM     24  C   UNL     1       2.111   9.183  17.759  0.00  0.00    +0.000 A 
ATOM     25  C   UNL     1       1.588   9.947  18.793  0.00  0.00    +0.000 A 
ATOM     26  F   UNL     1       1.416  11.265  18.626  0.00  0.00    +0.000 F 
ATOM     27  C   UNL     1       1.246   9.361  20.000  0.00  0.00    +0.000 A 
ATOM     28  C   UNL     1       1.444   7.990  20.177  0.00  0.00    +0.000 A 
ENDBRANCH  19  22
ENDBRANCH  15  16
ENDBRANCH   1  15
TORSDOF 6
ENDMDL
MODEL 9
REMARK VINA RESULT:      -7.5      7.347     10.355
REMARK  Name = 
REMARK  6 active torsions:
REMARK  status: ('A' for Active; 'I' for Inactive)
REMARK    1  A    between atoms: O_1  and  C_2
REMARK    2  A    between atoms: C_2  and  C_3
REMARK    3  A    between atoms: C_2  and  C_18
REMARK    4  A    between atoms: C_3  and  C_4
REMARK    5  A    between atoms: C_4  and  N_5
REMARK    6  A    between atoms: N_8  and  C_9
REMARK                            x       y       z     vdW  Elec       q    Type
REMARK                         _______ _______ _______ _____ _____    ______ ____
ROOT
ATOM      1  C   UNL     1       1.866   9.110  18.748  0.00  0.00    +0.000 C 
ENDROOT
BRANCH   1   2
ATOM      2  C   UNL     1       1.777   7.713  19.386  0.00  0.00    +0.000 C 
BRANCH   2   3
ATOM      3  C   UNL     1       2.614   6.673  18.671  0.00  0.00    +0.000 A 
ATOM      4  C   UNL     1       2.412   5.311  18.932  0.00  0.00    +0.000 A 
ATOM      5  C   UNL     1       3.123   4.334  18.231  0.00  0.00    +0.000 A 
ATOM      6  C   UNL     1       4.068   4.696  17.262  0.00  0.00    +0.000 A 
ATOM      7  C   UNL     1       4.773   3.729  16.528  0.00  0.00    +0.000 A 
ATOM      8  C   UNL     1       5.713   4.109  15.568  0.00  0.00    +0.000 A 
ATOM      9  C   UNL     1       5.963   5.458  15.334  0.00  0.00    +0.000 A 
ATOM     10  C   UNL     1       5.268   6.431  16.054  0.00  0.00    +0.000 A 
ATOM     11  C   UNL     1       4.312   6.064  17.014  0.00  0.00    +0.000 A 
ATOM     12  C   UNL     1       3.585   7.034  17.723  0.00  0.00    +0.000 A 
ENDBRANCH   2   3
BRANCH   2  13
ATOM     13  O   UNL     1       2.141   7.813  20.765  0.00  0.00    +0.000 OA
ATOM     14  H   UNL     1       1.386   8.200  21.238  0.00  0.00    +0.000 HD
ENDBRANCH   2  13
ENDBRANCH   1   2
BRANCH   1  15
ATOM     15  C   UNL     1       1.077  10.177  19.529  0.00  0.00    +0.000 C 
BRANCH  15  16
ATOM     16  N   UNL     1      -0.246   9.712  19.999  0.00  0.00    +0.000 NA
ATOM     17  C   UNL     1      -0.426   9.837  21.464  0.00  0.00    +0.000 C 
ATOM     18  C   UNL     1      -0.366  11.289  21.971  0.00  0.00    +0.000 C 
ATOM     19  N   UNL     1      -1.375  12.110  21.292  0.00  0.00    +0.000 N 
ATOM     20  C   UNL     1      -1.426  12.000  19.822  0.00  0.00    +0.000 C 
ATOM     21  C   UNL     1      -1.323  10.518  19.358  0.00  0.00    +0.000 C 
BRANCH  19  22
ATOM     22  C   UNL     1      -2.415  12.690  21.993  0.00  0.00    +0.000 A 
ATOM     23  C   UNL     1      -2.789  12.207  23.258  0.00  0.00    +0.000 A 
ATOM     24  C   UNL     1      -3.881  12.738  23.948  0.00  0.00    +0.000 A 
ATOM     25  C   UNL     1      -4.611  13.773  23.381  0.00  0.00    +0.000 A 
ATOM     26  F   UNL     1      -5.671  14.274  24.030  0.00  0.00    +0.000 F 
ATOM     27  C   UNL     1      -4.259  14.291  22.146  0.00  0.00    +0.000 A 
ATOM     28  C   UNL     1      -3.165  13.753  21.464  0.00  0.00    +0.000 A 
ENDBRANCH  19  22
ENDBRANCH  15  16
ENDBRANCH   1  15
TORSDOF 6
ENDMDL
