MODEL 1
REMARK VINA RESULT:      -7.5      0.000      0.000
REMARK  Name = 
REMARK  7 active torsions:
REMARK  status: ('A' for Active; 'I' for Inactive)
REMARK    1  A    between atoms: C_1  and  C_2
REMARK    2  A    between atoms: C_4  and  N_5
REMARK    3  A    between atoms: C_6  and  C_8
REMARK    4  A    between atoms: C_11  and  N_12
REMARK    5  A    between atoms: C_15  and  C_16
REMARK    6  A    between atoms: C_18  and  N_19
REMARK    7  A    between atoms: N_22  and  C_23
REMARK                            x       y       z     vdW  Elec       q    Type
REMARK                         _______ _______ _______ _____ _____    ______ ____
ROOT
ATOM      1  C   UNL     1       2.673   7.413  18.502  0.00  0.00    +0.000 A 
ATOM      2  C   UNL     1       2.240   7.212  19.814  0.00  0.00    +0.000 A 
ATOM      3  C   UNL     1       1.449   8.176  20.436  0.00  0.00    +0.000 A 
ATOM      4  C   UNL     1       1.077   9.334  19.738  0.00  0.00    +0.000 A 
ATOM      5  C   UNL     1       1.518   9.540  18.425  0.00  0.00    +0.000 A 
ATOM      6  C   UNL     1       2.329   8.585  17.811  0.00  0.00    +0.000 A 
ENDROOT
BRANCH   4   7
ATOM      7  N   UNL     1       0.281  10.305  20.398  0.00  0.00    +0.000 N 
ATOM      8  N   UNL     1       0.647  10.747  21.633  0.00  0.00    +0.000 NA
ATOM      9  C   UNL     1      -0.222  11.720  21.906  0.00  0.00    +0.000 A 
ATOM     10  C   UNL     1      -1.226  11.825  20.933  0.00  0.00    +0.000 A 
ATOM     11  C   UNL     1      -0.906  10.901  19.960  0.00  0.00    +0.000 A 
BRANCH  11  12
ATOM     12  N   UNL     1      -1.583  10.537  18.837  0.00  0.00    +0.000 N 
ATOM     13  H   UNL     1      -1.522  11.101  17.990  0.00  0.00    +0.000 HD
ATOM     14  H   UNL     1      -2.467  10.032  18.890  0.00  0.00    +0.000 HD
ENDBRANCH  11  12
BRANCH  10  15
ATOM     15  C   UNL     1      -2.373  12.661  20.968  0.00  0.00    +0.000 C 
ATOM     16  N   UNL     1      -3.335  13.314  20.997  0.00  0.00    +0.000 NA
ENDBRANCH  10  15
ENDBRANCH   4   7
BRANCH   1  18
ATOM     17  N   UNL     1       4.574   6.931  16.989  0.00  0.00    +0.000 N 
ATOM     18  C   UNL     1       3.518   6.408  17.817  0.00  0.00    +0.000 C 
ATOM     19  O   UNL     1       3.349   5.212  17.986  0.00  0.00    +0.000 OA
ATOM     20  H   UNL     1       4.703   7.931  16.942  0.00  0.00    +0.000 HD
BRANCH  17  24
ATOM     21  C   UNL     1       6.832   4.001  13.635  0.00  0.00    +0.000 C 
ATOM     22  C   UNL     1       6.506   4.823  14.824  0.00  0.00    +0.000 A 
ATOM     23  C   UNL     1       5.326   5.558  15.060  0.00  0.00    +0.000 A 
ATOM     24  C   UNL     1       5.480   6.129  16.299  0.00  0.00    +0.000 A 
ATOM     25  N   UNL     1       6.726   5.726  16.726  0.00  0.00    +0.000 N 
ATOM     26  C   UNL     1       7.402   6.032  17.963  0.00  0.00    +0.000 C 
ATOM     27  N   UNL     1       7.362   4.931  15.845  0.00  0.00    +0.000 NA
ENDBRANCH  17  24
ENDBRANCH   1  18
TORSDOF 5
ENDMDL
MODEL 2
REMARK VINA RESULT:      -7.4      0.142      1.002
REMARK  Name = 
REMARK  7 active torsions:
REMARK  status: ('A' for Active; 'I' for Inactive)
REMARK    1  A    between atoms: C_1  and  C_2
REMARK    2  A    between atoms: C_4  and  N_5
REMARK    3  A    between atoms: C_6  and  C_8
REMARK    4  A    between atoms: C_11  and  N_12
REMARK    5  A    between atoms: C_15  and  C_16
REMARK    6  A    between atoms: C_18  and  N_19
REMARK    7  A    between atoms: N_22  and  C_23
REMARK                            x       y       z     vdW  Elec       q    Type
REMARK                         _______ _______ _______ _____ _____    ______ ____
ROOT
ATOM      1  C   UNL     1       2.605   7.559  18.480  0.00  0.00    +0.000 A 
ATOM      2  C   UNL     1       2.222   8.729  17.819  0.00  0.00    +0.000 A 
ATOM      3  C   UNL     1       1.429   9.666  18.477  0.00  0.00    +0.000 A 
ATOM      4  C   UNL     1       1.032   9.441  19.803  0.00  0.00    +0.000 A 
ATOM      5  C   UNL     1       1.409   8.265  20.463  0.00  0.00    +0.000 A 
ATOM      6  C   UNL     1       2.184   7.316  19.795  0.00  0.00    +0.000 A 
ENDROOT
BRANCH   4   7
ATOM      7  N   UNL     1       0.215  10.406  20.447  0.00  0.00    +0.000 N 
ATOM      8  N   UNL     1       0.555  10.854  21.687  0.00  0.00    +0.000 NA
ATOM      9  C   UNL     1      -0.328  11.820  21.942  0.00  0.00    +0.000 A 
ATOM     10  C   UNL     1      -1.315  11.913  20.951  0.00  0.00    +0.000 A 
ATOM     11  C   UNL     1      -0.969  10.990  19.986  0.00  0.00    +0.000 A 
BRANCH  11  12
ATOM     12  N   UNL     1      -1.622  10.617  18.852  0.00  0.00    +0.000 N 
ATOM     13  H   UNL     1      -1.688   9.633  18.592  0.00  0.00    +0.000 HD
ATOM     14  H   UNL     1      -1.658  11.225  18.034  0.00  0.00    +0.000 HD
ENDBRANCH  11  12
BRANCH  10  15
ATOM     15  C   UNL     1      -2.470  12.739  20.963  0.00  0.00    +0.000 C 
ATOM     16  N   UNL     1      -3.408  13.424  21.010  0.00  0.00    +0.000 NA
ENDBRANCH  10  15
ENDBRANCH   4   7
BRANCH   1  18
ATOM     17  N   UNL     1       4.549   7.051  17.032  0.00  0.00    +0.000 N 
ATOM     18  C   UNL     1       3.444   6.543  17.804  0.00  0.00    +0.000 C 
ATOM     19  O   UNL     1       3.230   5.350  17.936  0.00  0.00    +0.000 OA
ATOM     20  H   UNL     1       4.712   8.047  17.016  0.00  0.00    +0.000 HD
BRANCH  17  24
ATOM     21  C   UNL     1       6.797   4.020  13.762  0.00  0.00    +0.000 C 
ATOM     22  C   UNL     1       6.478   4.886  14.921  0.00  0.00    +0.000 A 
ATOM     23  C   UNL     1       5.289   5.610  15.149  0.00  0.00    +0.000 A 
ATOM     24  C   UNL     1       5.456   6.237  16.359  0.00  0.00    +0.000 A 
ATOM     25  N   UNL     1       6.718   5.874  16.778  0.00  0.00    +0.000 N 
ATOM     26  C   UNL     1       7.411   6.244  17.987  0.00  0.00    +0.000 C 
ATOM     27  N   UNL     1       7.352   5.053  15.919  0.00  0.00    +0.000 NA
ENDBRANCH  17  24
ENDBRANCH   1  18
TORSDOF 5
ENDMDL
MODEL 3
REMARK VINA RESULT:      -7.3      1.231      1.341
REMARK  Name = 
REMARK  7 active torsions:
REMARK  status: ('A' for Active; 'I' for Inactive)
REMARK    1  A    between atoms: C_1  and  C_2
REMARK    2  A    between atoms: C_4  and  N_5
REMARK    3  A    between atoms: C_6  and  C_8
REMARK    4  A    between atoms: C_11  and  N_12
REMARK    5  A    between atoms: C_15  and  C_16
REMARK    6  A    between atoms: C_18  and  N_19
REMARK    7  A    between atoms: N_22  and  C_23
REMARK                            x       y       z     vdW  Elec       q    Type
REMARK                         _______ _______ _______ _____ _____    ______ ____
ROOT
ATOM      1  C   UNL     1       2.686   6.960  18.717  0.00  0.00    +0.000 A 
ATOM      2  C   UNL     1       2.353   6.565  20.014  0.00  0.00    +0.000 A 
ATOM      3  C   UNL     1       1.613   7.421  20.828  0.00  0.00    +0.000 A 
ATOM      4  C   UNL     1       1.192   8.666  20.337  0.00  0.00    +0.000 A 
ATOM      5  C   UNL     1       1.534   9.065  19.039  0.00  0.00    +0.000 A 
ATOM      6  C   UNL     1       2.294   8.217  18.233  0.00  0.00    +0.000 A 
ENDROOT
BRANCH   4   7
ATOM      7  N   UNL     1       0.450   9.523  21.190  0.00  0.00    +0.000 N 
ATOM      8  N   UNL     1      -0.326   8.985  22.171  0.00  0.00    +0.000 NA
ATOM      9  C   UNL     1      -0.774  10.041  22.851  0.00  0.00    +0.000 A 
ATOM     10  C   UNL     1      -0.416  11.254  22.248  0.00  0.00    +0.000 A 
ATOM     11  C   UNL     1       0.370  10.919  21.165  0.00  0.00    +0.000 A 
BRANCH  11  12
ATOM     12  N   UNL     1       0.917  11.706  20.198  0.00  0.00    +0.000 N 
ATOM     13  H   UNL     1       0.608  11.626  19.230  0.00  0.00    +0.000 HD
ATOM     14  H   UNL     1       1.881  12.031  20.260  0.00  0.00    +0.000 HD
ENDBRANCH  11  12
BRANCH  10  15
ATOM     15  C   UNL     1      -0.826  12.559  22.630  0.00  0.00    +0.000 C 
ATOM     16  N   UNL     1      -1.174  13.612  22.977  0.00  0.00    +0.000 NA
ENDBRANCH  10  15
ENDBRANCH   4   7
BRANCH   1  18
ATOM     17  N   UNL     1       4.678   6.642  17.279  0.00  0.00    +0.000 N 
ATOM     18  C   UNL     1       3.475   6.073  17.830  0.00  0.00    +0.000 C 
ATOM     19  O   UNL     1       3.140   4.920  17.623  0.00  0.00    +0.000 OA
ATOM     20  H   UNL     1       4.934   7.582  17.542  0.00  0.00    +0.000 HD
BRANCH  17  24
ATOM     21  C   UNL     1       6.824   4.266  13.448  0.00  0.00    +0.000 C 
ATOM     22  C   UNL     1       6.528   4.876  14.765  0.00  0.00    +0.000 A 
ATOM     23  C   UNL     1       5.379   5.604  15.133  0.00  0.00    +0.000 A 
ATOM     24  C   UNL     1       5.552   5.940  16.454  0.00  0.00    +0.000 A 
ATOM     25  N   UNL     1       6.780   5.417  16.796  0.00  0.00    +0.000 N 
ATOM     26  C   UNL     1       7.465   5.471  18.065  0.00  0.00    +0.000 C 
ATOM     27  N   UNL     1       7.386   4.766  15.785  0.00  0.00    +0.000 NA
ENDBRANCH  17  24
ENDBRANCH   1  18
TORSDOF 5
ENDMDL
MODEL 4
REMARK VINA RESULT:      -7.3      1.023      1.608
REMARK  Name = 
REMARK  7 active torsions:
REMARK  status: ('A' for Active; 'I' for Inactive)
REMARK    1  A    between atoms: C_1  and  C_2
REMARK    2  A    between atoms: C_4  and  N_5
REMARK    3  A    between atoms: C_6  and  C_8
REMARK    4  A    between atoms: C_11  and  N_12
REMARK    5  A    between atoms: C_15  and  C_16
REMARK    6  A    between atoms: C_18  and  N_19
REMARK    7  A    between atoms: N_22  and  C_23
REMARK                            x       y       z     vdW  Elec       q    Type
REMARK                         _______ _______ _______ _____ _____    ______ ____
ROOT
ATOM      1  C   UNL     1       2.653   7.491  18.446  0.00  0.00    +0.000 A 
ATOM      2  C   UNL     1       2.245   8.658  17.796  0.00  0.00    +0.000 A 
ATOM      3  C   UNL     1       1.482   9.600  18.483  0.00  0.00    +0.000 A 
ATOM      4  C   UNL     1       1.142   9.382  19.827  0.00  0.00    +0.000 A 
ATOM      5  C   UNL     1       1.545   8.209  20.475  0.00  0.00    +0.000 A 
ATOM      6  C   UNL     1       2.289   7.255  19.780  0.00  0.00    +0.000 A 
ENDROOT
BRANCH   4   7
ATOM      7  N   UNL     1       0.356  10.352  20.500  0.00  0.00    +0.000 N 
ATOM      8  N   UNL     1       0.386  11.648  20.082  0.00  0.00    +0.000 NA
ATOM      9  C   UNL     1      -0.538  12.256  20.828  0.00  0.00    +0.000 A 
ATOM     10  C   UNL     1      -1.068  11.410  21.812  0.00  0.00    +0.000 A 
ATOM     11  C   UNL     1      -0.481  10.178  21.606  0.00  0.00    +0.000 A 
BRANCH  11  12
ATOM     12  N   UNL     1      -0.583   9.026  22.323  0.00  0.00    +0.000 N 
ATOM     13  H   UNL     1       0.255   8.529  22.625  0.00  0.00    +0.000 HD
ATOM     14  H   UNL     1      -1.373   8.393  22.203  0.00  0.00    +0.000 HD
ENDBRANCH  11  12
BRANCH  10  15
ATOM     15  C   UNL     1      -1.972  11.759  22.850  0.00  0.00    +0.000 C 
ATOM     16  N   UNL     1      -2.725  12.074  23.677  0.00  0.00    +0.000 NA
ENDBRANCH  10  15
ENDBRANCH   4   7
BRANCH   1  18
ATOM     17  N   UNL     1       4.593   6.964  16.999  0.00  0.00    +0.000 N 
ATOM     18  C   UNL     1       3.461   6.470  17.740  0.00  0.00    +0.000 C 
ATOM     19  O   UNL     1       3.201   5.282  17.825  0.00  0.00    +0.000 OA
ATOM     20  H   UNL     1       4.793   7.953  17.021  0.00  0.00    +0.000 HD
BRANCH  17  24
ATOM     21  C   UNL     1       6.772   4.001  13.621  0.00  0.00    +0.000 C 
ATOM     22  C   UNL     1       6.466   4.820  14.818  0.00  0.00    +0.000 A 
ATOM     23  C   UNL     1       5.309   5.589  15.057  0.00  0.00    +0.000 A 
ATOM     24  C   UNL     1       5.475   6.141  16.304  0.00  0.00    +0.000 A 
ATOM     25  N   UNL     1       6.706   5.693  16.731  0.00  0.00    +0.000 N 
ATOM     26  C   UNL     1       7.386   5.964  17.974  0.00  0.00    +0.000 C 
ATOM     27  N   UNL     1       7.321   4.889  15.844  0.00  0.00    +0.000 NA
ENDBRANCH  17  24
ENDBRANCH   1  18
TORSDOF 5
ENDMDL
MODEL 5
REMARK VINA RESULT:      -7.1      0.907      1.365
REMARK  Name = 
REMARK  7 active torsions:
REMARK  status: ('A' for Active; 'I' for Inactive)
REMARK    1  A    between atoms: C_1  and  C_2
REMARK    2  A    between atoms: C_4  and  N_5
REMARK    3  A    between atoms: C_6  and  C_8
REMARK    4  A    between atoms: C_11  and  N_12
REMARK    5  A    between atoms: C_15  and  C_16
REMARK    6  A    between atoms: C_18  and  N_19
REMARK    7  A    between atoms: N_22  and  C_23
REMARK                            x       y       z     vdW  Elec       q    Type
REMARK                         _______ _______ _______ _____ _____    ______ ____
ROOT
ATOM      1  C   UNL     1       2.744   6.860  18.692  0.00  0.00    +0.000 A 
ATOM      2  C   UNL     1       2.427   8.154  18.273  0.00  0.00    +0.000 A 
ATOM      3  C   UNL     1       1.657   8.978  19.093  0.00  0.00    +0.000 A 
ATOM      4  C   UNL     1       1.220   8.511  20.341  0.00  0.00    +0.000 A 
ATOM      5  C   UNL     1       1.531   7.212  20.758  0.00  0.00    +0.000 A 
ATOM      6  C   UNL     1       2.282   6.379  19.926  0.00  0.00    +0.000 A 
ENDROOT
BRANCH   4   7
ATOM      7  N   UNL     1       0.429   9.365  21.152  0.00  0.00    +0.000 N 
ATOM      8  N   UNL     1       0.449   9.215  22.505  0.00  0.00    +0.000 NA
ATOM      9  C   UNL     1      -0.286  10.230  22.961  0.00  0.00    +0.000 A 
ATOM     10  C   UNL     1      -0.894  10.953  21.925  0.00  0.00    +0.000 A 
ATOM     11  C   UNL     1      -0.438  10.387  20.752  0.00  0.00    +0.000 A 
BRANCH  11  12
ATOM     12  N   UNL     1      -0.772  10.654  19.460  0.00  0.00    +0.000 N 
ATOM     13  H   UNL     1      -1.637  11.146  19.239  0.00  0.00    +0.000 HD
ATOM     14  H   UNL     1      -0.485  10.039  18.699  0.00  0.00    +0.000 HD
ENDBRANCH  11  12
BRANCH  10  15
ATOM     15  C   UNL     1      -1.834  12.009  22.051  0.00  0.00    +0.000 C 
ATOM     16  N   UNL     1      -2.627  12.850  22.174  0.00  0.00    +0.000 NA
ENDBRANCH  10  15
ENDBRANCH   4   7
BRANCH   1  18
ATOM     17  N   UNL     1       4.649   6.580  17.134  0.00  0.00    +0.000 N 
ATOM     18  C   UNL     1       3.556   5.962  17.840  0.00  0.00    +0.000 C 
ATOM     19  O   UNL     1       3.333   4.765  17.782  0.00  0.00    +0.000 OA
ATOM     20  H   UNL     1       4.821   7.565  17.275  0.00  0.00    +0.000 HD
BRANCH  17  24
ATOM     21  C   UNL     1       6.820   4.186  13.328  0.00  0.00    +0.000 C 
ATOM     22  C   UNL     1       6.518   4.809  14.638  0.00  0.00    +0.000 A 
ATOM     23  C   UNL     1       5.359   5.526  15.000  0.00  0.00    +0.000 A 
ATOM     24  C   UNL     1       5.531   5.880  16.316  0.00  0.00    +0.000 A 
ATOM     25  N   UNL     1       6.766   5.378  16.662  0.00  0.00    +0.000 N 
ATOM     26  C   UNL     1       7.452   5.457  17.928  0.00  0.00    +0.000 C 
ATOM     27  N   UNL     1       7.379   4.723  15.658  0.00  0.00    +0.000 NA
ENDBRANCH  17  24
ENDBRANCH   1  18
TORSDOF 5
ENDMDL
MODEL 6
REMARK VINA RESULT:      -7.0      1.158      1.677
REMARK  Name = 
REMARK  7 active torsions:
REMARK  status: ('A' for Active; 'I' for Inactive)
REMARK    1  A    between atoms: C_1  and  C_2
REMARK    2  A    between atoms: C_4  and  N_5
REMARK    3  A    between atoms: C_6  and  C_8
REMARK    4  A    between atoms: C_11  and  N_12
REMARK    5  A    between atoms: C_15  and  C_16
REMARK    6  A    between atoms: C_18  and  N_19
REMARK    7  A    between atoms: N_22  and  C_23
REMARK                            x       y       z     vdW  Elec       q    Type
REMARK                         _______ _______ _______ _____ _____    ______ ____
ROOT
ATOM      1  C   UNL     1       2.614   7.471  18.463  0.00  0.00    +0.000 A 
ATOM      2  C   UNL     1       2.168   8.647  17.854  0.00  0.00    +0.000 A 
ATOM      3  C   UNL     1       1.451   9.582  18.598  0.00  0.00    +0.000 A 
ATOM      4  C   UNL     1       1.195   9.348  19.958  0.00  0.00    +0.000 A 
ATOM      5  C   UNL     1       1.634   8.166  20.565  0.00  0.00    +0.000 A 
ATOM      6  C   UNL     1       2.332   7.219  19.814  0.00  0.00    +0.000 A 
ENDROOT
BRANCH   4   7
ATOM      7  N   UNL     1       0.453  10.310  20.690  0.00  0.00    +0.000 N 
ATOM      8  N   UNL     1      -0.700   9.938  21.311  0.00  0.00    +0.000 NA
ATOM      9  C   UNL     1      -1.070  11.021  21.995  0.00  0.00    +0.000 A 
ATOM     10  C   UNL     1      -0.255  12.128  21.720  0.00  0.00    +0.000 A 
ATOM     11  C   UNL     1       0.727  11.670  20.866  0.00  0.00    +0.000 A 
BRANCH  11  12
ATOM     12  N   UNL     1       1.726  12.343  20.233  0.00  0.00    +0.000 N 
ATOM     13  H   UNL     1       2.058  12.038  19.319  0.00  0.00    +0.000 HD
ATOM     14  H   UNL     1       2.455  12.827  20.756  0.00  0.00    +0.000 HD
ENDBRANCH  11  12
BRANCH  10  15
ATOM     15  C   UNL     1      -0.434  13.461  22.173  0.00  0.00    +0.000 C 
ATOM     16  N   UNL     1      -0.551  14.548  22.569  0.00  0.00    +0.000 NA
ENDBRANCH  10  15
ENDBRANCH   4   7
BRANCH   1  18
ATOM     17  N   UNL     1       4.607   6.911  17.103  0.00  0.00    +0.000 N 
ATOM     18  C   UNL     1       3.374   6.458  17.695  0.00  0.00    +0.000 C 
ATOM     19  O   UNL     1       2.994   5.303  17.615  0.00  0.00    +0.000 OA
ATOM     20  H   UNL     1       4.899   7.864  17.262  0.00  0.00    +0.000 HD
BRANCH  17  24
ATOM     21  C   UNL     1       6.660   3.962  13.637  0.00  0.00    +0.000 C 
ATOM     22  C   UNL     1       6.395   4.768  14.851  0.00  0.00    +0.000 A 
ATOM     23  C   UNL     1       5.256   5.552  15.127  0.00  0.00    +0.000 A 
ATOM     24  C   UNL     1       5.460   6.085  16.377  0.00  0.00    +0.000 A 
ATOM     25  N   UNL     1       6.693   5.612  16.769  0.00  0.00    +0.000 N 
ATOM     26  C   UNL     1       7.406   5.856  17.999  0.00  0.00    +0.000 C 
ATOM     27  N   UNL     1       7.274   4.811  15.857  0.00  0.00    +0.000 NA
ENDBRANCH  17  24
ENDBRANCH   1  18
TORSDOF 5
ENDMDL
MODEL 7
REMARK VINA RESULT:      -6.8      2.127      9.375
REMARK  Name = 
REMARK  7 active torsions:
REMARK  status: ('A' for Active; 'I' for Inactive)
REMARK    1  A    between atoms: C_1  and  C_2
REMARK    2  A    between atoms: C_4  and  N_5
REMARK    3  A    between atoms: C_6  and  C_8
REMARK    4  A    between atoms: C_11  and  N_12
REMARK    5  A    between atoms: C_15  and  C_16
REMARK    6  A    between atoms: C_18  and  N_19
REMARK    7  A    between atoms: N_22  and  C_23
REMARK                            x       y       z     vdW  Elec       q    Type
REMARK                         _______ _______ _______ _____ _____    ______ ____
ROOT
ATOM      1  C   UNL     1       1.148   9.148  19.412  0.00  0.00    +0.000 A 
ATOM      2  C   UNL     1       1.566   8.100  20.235  0.00  0.00    +0.000 A 
ATOM      3  C   UNL     1       2.411   7.116  19.725  0.00  0.00    +0.000 A 
ATOM      4  C   UNL     1       2.852   7.192  18.395  0.00  0.00    +0.000 A 
ATOM      5  C   UNL     1       2.427   8.238  17.569  0.00  0.00    +0.000 A 
ATOM      6  C   UNL     1       1.562   9.210  18.073  0.00  0.00    +0.000 A 
ENDROOT
BRANCH   4   7
ATOM      7  N   UNL     1       3.704   6.172  17.898  0.00  0.00    +0.000 N 
ATOM      8  N   UNL     1       3.265   4.883  17.877  0.00  0.00    +0.000 NA
ATOM      9  C   UNL     1       4.234   4.215  17.249  0.00  0.00    +0.000 A 
ATOM     10  C   UNL     1       5.350   5.021  16.986  0.00  0.00    +0.000 A 
ATOM     11  C   UNL     1       5.010   6.288  17.414  0.00  0.00    +0.000 A 
BRANCH  11  12
ATOM     12  N   UNL     1       5.752   7.428  17.463  0.00  0.00    +0.000 N 
ATOM     13  H   UNL     1       5.458   8.260  16.952  0.00  0.00    +0.000 HD
ATOM     14  H   UNL     1       6.764   7.399  17.583  0.00  0.00    +0.000 HD
ENDBRANCH  11  12
BRANCH  10  15
ATOM     15  C   UNL     1       6.599   4.612  16.448  0.00  0.00    +0.000 C 
ATOM     16  N   UNL     1       7.637   4.311  16.018  0.00  0.00    +0.000 NA
ENDBRANCH  10  15
ENDBRANCH   4   7
BRANCH   1  18
ATOM     17  N   UNL     1       0.433  10.578  21.304  0.00  0.00    +0.000 N 
ATOM     18  C   UNL     1       0.246  10.205  19.926  0.00  0.00    +0.000 C 
ATOM     19  O   UNL     1      -0.570  10.752  19.204  0.00  0.00    +0.000 OA
ATOM     20  H   UNL     1       1.171  10.133  21.831  0.00  0.00    +0.000 HD
BRANCH  17  24
ATOM     21  C   UNL     1      -2.946  13.113  23.966  0.00  0.00    +0.000 C 
ATOM     22  C   UNL     1      -1.797  12.725  23.116  0.00  0.00    +0.000 A 
ATOM     23  C   UNL     1      -1.402  11.421  22.751  0.00  0.00    +0.000 A 
ATOM     24  C   UNL     1      -0.305  11.573  21.939  0.00  0.00    +0.000 A 
ATOM     25  N   UNL     1      -0.095  12.934  21.873  0.00  0.00    +0.000 N 
ATOM     26  C   UNL     1       0.925  13.658  21.156  0.00  0.00    +0.000 C 
ATOM     27  N   UNL     1      -0.992  13.648  22.579  0.00  0.00    +0.000 NA
ENDBRANCH  17  24
ENDBRANCH   1  18
TORSDOF 5
ENDMDL
MODEL 8
REMARK VINA RESULT:      -6.8      1.440      1.745
REMARK  Name = 
REMARK  7 active torsions:
REMARK  status: ('A' for Active; 'I' for Inactive)
REMARK    1  A    between atoms: C_1  and  C_2
REMARK    2  A    between atoms: C_4  and  N_5
REMARK    3  A    between atoms: C_6  and  C_8
REMARK    4  A    between atoms: C_11  and  N_12
REMARK    5  A    between atoms: C_15  and  C_16
REMARK    6  A    between atoms: C_18  and  N_19
REMARK    7  A    between atoms: N_22  and  C_23
REMARK                            x       y       z     vdW  Elec       q    Type
REMARK                         _______ _______ _______ _____ _____    ______ ____
ROOT
ATOM      1  C   UNL     1       2.259   7.917  18.654  0.00  0.00    +0.000 A 
ATOM      2  C   UNL     1       1.896   7.878  20.002  0.00  0.00    +0.000 A 
ATOM      3  C   UNL     1       1.219   8.957  20.567  0.00  0.00    +0.000 A 
ATOM      4  C   UNL     1       0.889  10.069  19.777  0.00  0.00    +0.000 A 
ATOM      5  C   UNL     1       1.260  10.111  18.428  0.00  0.00    +0.000 A 
ATOM      6  C   UNL     1       1.959   9.040  17.869  0.00  0.00    +0.000 A 
ENDROOT
BRANCH   4   7
ATOM      7  N   UNL     1       0.209  11.159  20.379  0.00  0.00    +0.000 N 
ATOM      8  N   UNL     1      -1.142  11.102  20.537  0.00  0.00    +0.000 NA
ATOM      9  C   UNL     1      -1.439  12.202  21.230  0.00  0.00    +0.000 A 
ATOM     10  C   UNL     1      -0.326  13.036  21.406  0.00  0.00    +0.000 A 
ATOM     11  C   UNL     1       0.741  12.365  20.846  0.00  0.00    +0.000 A 
BRANCH  11  12
ATOM     12  N   UNL     1       2.033  12.755  20.675  0.00  0.00    +0.000 N 
ATOM     13  H   UNL     1       2.451  13.448  21.296  0.00  0.00    +0.000 HD
ATOM     14  H   UNL     1       2.469  12.765  19.753  0.00  0.00    +0.000 HD
ENDBRANCH  11  12
BRANCH  10  15
ATOM     15  C   UNL     1      -0.307  14.333  21.982  0.00  0.00    +0.000 C 
ATOM     16  N   UNL     1      -0.329  15.400  22.444  0.00  0.00    +0.000 NA
ENDBRANCH  10  15
ENDBRANCH   4   7
BRANCH   1  18
ATOM     17  N   UNL     1       4.262   7.103  17.445  0.00  0.00    +0.000 N 
ATOM     18  C   UNL     1       2.983   6.787  18.028  0.00  0.00    +0.000 C 
ATOM     19  O   UNL     1       2.535   5.653  18.050  0.00  0.00    +0.000 OA
ATOM     20  H   UNL     1       4.607   8.048  17.518  0.00  0.00    +0.000 HD
BRANCH  17  24
ATOM     21  C   UNL     1       6.660   4.176  14.187  0.00  0.00    +0.000 C 
ATOM     22  C   UNL     1       6.167   4.841  15.416  0.00  0.00    +0.000 A 
ATOM     23  C   UNL     1       5.246   5.906  15.504  0.00  0.00    +0.000 A 
ATOM     24  C   UNL     1       5.088   6.157  16.845  0.00  0.00    +0.000 A 
ATOM     25  N   UNL     1       5.918   5.256  17.477  0.00  0.00    +0.000 N 
ATOM     26  C   UNL     1       6.147   5.074  18.889  0.00  0.00    +0.000 C 
ATOM     27  N   UNL     1       6.579   4.449  16.626  0.00  0.00    +0.000 NA
ENDBRANCH  17  24
ENDBRANCH   1  18
TORSDOF 5
ENDMDL
MODEL 9
REMARK VINA RESULT:      -6.7      2.885      9.370
REMARK  Name = 
REMARK  7 active torsions:
REMARK  status: ('A' for Active; 'I' for Inactive)
REMARK    1  A    between atoms: C_1  and  C_2
REMARK    2  A    between atoms: C_4  and  N_5
REMARK    3  A    between atoms: C_6  and  C_8
REMARK    4  A    between atoms: C_11  and  N_12
REMARK    5  A    between atoms: C_15  and  C_16
REMARK    6  A    between atoms: C_18  and  N_19
REMARK    7  A    between atoms: N_22  and  C_23
REMARK                            x       y       z     vdW  Elec       q    Type
REMARK                         _______ _______ _______ _____ _____    ______ ____
ROOT
ATOM      1  C   UNL     1       1.201   9.359  19.343  0.00  0.00    +0.000 A 
ATOM      2  C   UNL     1       1.831   9.000  18.149  0.00  0.00    +0.000 A 
ATOM      3  C   UNL     1       2.502   7.782  18.060  0.00  0.00    +0.000 A 
ATOM      4  C   UNL     1       2.527   6.914  19.162  0.00  0.00    +0.000 A 
ATOM      5  C   UNL     1       1.902   7.277  20.361  0.00  0.00    +0.000 A 
ATOM      6  C   UNL     1       1.250   8.507  20.457  0.00  0.00    +0.000 A 
ENDROOT
BRANCH   4   7
ATOM      7  N   UNL     1       3.226   5.685  19.050  0.00  0.00    +0.000 N 
ATOM      8  N   UNL     1       4.579   5.665  19.207  0.00  0.00    +0.000 NA
ATOM      9  C   UNL     1       4.896   4.371  19.167  0.00  0.00    +0.000 A 
ATOM     10  C   UNL     1       3.795   3.563  18.849  0.00  0.00    +0.000 A 
ATOM     11  C   UNL     1       2.714   4.415  18.764  0.00  0.00    +0.000 A 
BRANCH  11  12
ATOM     12  N   UNL     1       1.424   4.166  18.409  0.00  0.00    +0.000 N 
ATOM     13  H   UNL     1       0.830   4.916  18.055  0.00  0.00    +0.000 HD
ATOM     14  H   UNL     1       0.877   3.439  18.869  0.00  0.00    +0.000 HD
ENDBRANCH  11  12
BRANCH  10  15
ATOM     15  C   UNL     1       3.797   2.165  18.602  0.00  0.00    +0.000 C 
ATOM     16  N   UNL     1       3.763   1.017  18.416  0.00  0.00    +0.000 NA
ENDBRANCH  10  15
ENDBRANCH   4   7
BRANCH   1  18
ATOM     17  N   UNL     1      -0.568  10.693  20.450  0.00  0.00    +0.000 N 
ATOM     18  C   UNL     1       0.484  10.649  19.467  0.00  0.00    +0.000 C 
ATOM     19  O   UNL     1       0.803  11.621  18.805  0.00  0.00    +0.000 OA
ATOM     20  H   UNL     1      -0.740   9.873  21.013  0.00  0.00    +0.000 HD
BRANCH  17  24
ATOM     21  C   UNL     1      -2.491  14.825  22.490  0.00  0.00    +0.000 C 
ATOM     22  C   UNL     1      -2.196  13.671  21.608  0.00  0.00    +0.000 A 
ATOM     23  C   UNL     1      -1.179  12.708  21.768  0.00  0.00    +0.000 A 
ATOM     24  C   UNL     1      -1.321  11.832  20.720  0.00  0.00    +0.000 A 
ATOM     25  N   UNL     1      -2.387  12.316  19.993  0.00  0.00    +0.000 N 
ATOM     26  C   UNL     1      -2.975  11.786  18.787  0.00  0.00    +0.000 C 
ATOM     27  N   UNL     1      -2.931  13.430  20.518  0.00  0.00    +0.000 NA
ENDBRANCH  17  24
ENDBRANCH   1  18
TORSDOF 5
ENDMDL
