MODEL 1
REMARK VINA RESULT:      -7.9      0.000      0.000
REMARK  Name = 
REMARK  4 active torsions:
REMARK  status: ('A' for Active; 'I' for Inactive)
REMARK    1  A    between atoms: C_2  and  C_3
REMARK    2  A    between atoms: C_3  and  N_4
REMARK    3  A    between atoms: N_14  and  C_15
REMARK    4  A    between atoms: C_15  and  C_16
REMARK                            x       y       z     vdW  Elec       q    Type
REMARK                         _______ _______ _______ _____ _____    ______ ____
ROOT
ATOM      1  C   UNL     1       4.947   6.254  16.321  0.00  0.00    +0.000 C 
ENDROOT
BRANCH   1   2
ATOM      2  N   UNL     1       4.616   5.665  17.628  0.00  0.00    +0.000 NA
ATOM      3  C   UNL     1       4.877   4.238  17.753  0.00  0.00    +0.000 C 
ATOM      4  C   UNL     1       4.128   3.872  19.018  0.00  0.00    +0.000 C 
ATOM      5  C   UNL     1       2.838   4.712  18.946  0.00  0.00    +0.000 C 
ATOM      6  C   UNL     1       2.377   5.141  20.350  0.00  0.00    +0.000 C 
ATOM      7  C   UNL     1       1.898   3.956  21.187  0.00  0.00    +0.000 C 
ATOM      8  C   UNL     1       0.773   3.197  20.489  0.00  0.00    +0.000 C 
ATOM      9  C   UNL     1       1.156   2.769  19.077  0.00  0.00    +0.000 C 
ATOM     10  C   UNL     1       1.691   3.935  18.248  0.00  0.00    +0.000 C 
ATOM     11  C   UNL     1       3.244   5.926  18.078  0.00  0.00    +0.000 C 
ENDBRANCH   1   2
BRANCH   1  13
ATOM     12  O   UNL     1       7.240   5.639  15.754  0.00  0.00    +0.000 OA
ATOM     13  C   UNL     1       6.040   5.485  15.555  0.00  0.00    +0.000 C 
ATOM     14  N   UNL     1       5.559   4.631  14.584  0.00  0.00    +0.000 N 
ATOM     15  H   UNL     1       4.570   4.413  14.577  0.00  0.00    +0.000 HD
BRANCH  14  16
ATOM     16  C   UNL     1       6.466   3.817  13.776  0.00  0.00    +0.000 C 
BRANCH  16  17
ATOM     17  C   UNL     1       5.987   3.512  12.353  0.00  0.00    +0.000 C 
ATOM     18  F   UNL     1       6.083   2.195  12.053  0.00  0.00    +0.000 F 
ATOM     19  F   UNL     1       4.680   3.850  12.220  0.00  0.00    +0.000 F 
ATOM     20  F   UNL     1       6.681   4.204  11.425  0.00  0.00    +0.000 F 
ENDBRANCH  16  17
ENDBRANCH  14  16
ENDBRANCH   1  13
TORSDOF 4
ENDMDL
MODEL 2
REMARK VINA RESULT:      -7.8      0.527      1.031
REMARK  Name = 
REMARK  4 active torsions:
REMARK  status: ('A' for Active; 'I' for Inactive)
REMARK    1  A    between atoms: C_2  and  C_3
REMARK    2  A    between atoms: C_3  and  N_4
REMARK    3  A    between atoms: N_14  and  C_15
REMARK    4  A    between atoms: C_15  and  C_16
REMARK                            x       y       z     vdW  Elec       q    Type
REMARK                         _______ _______ _______ _____ _____    ______ ____
ROOT
ATOM      1  C   UNL     1       5.235   6.314  15.921  0.00  0.00    +0.000 C 
ENDROOT
BRANCH   1   2
ATOM      2  N   UNL     1       4.847   5.877  17.272  0.00  0.00    +0.000 NA
ATOM      3  C   UNL     1       5.061   4.466  17.557  0.00  0.00    +0.000 C 
ATOM      4  C   UNL     1       4.264   4.257  18.827  0.00  0.00    +0.000 C 
ATOM      5  C   UNL     1       3.002   5.118  18.623  0.00  0.00    +0.000 C 
ATOM      6  C   UNL     1       2.511   5.707  19.958  0.00  0.00    +0.000 C 
ATOM      7  C   UNL     1       1.972   4.631  20.899  0.00  0.00    +0.000 C 
ATOM      8  C   UNL     1       0.847   3.832  20.249  0.00  0.00    +0.000 C 
ATOM      9  C   UNL     1       1.259   3.245  18.904  0.00  0.00    +0.000 C 
ATOM     10  C   UNL     1       1.854   4.301  17.974  0.00  0.00    +0.000 C 
ATOM     11  C   UNL     1       3.470   6.221  17.646  0.00  0.00    +0.000 C 
ENDBRANCH   1   2
BRANCH   1  13
ATOM     12  O   UNL     1       7.428   5.416  15.338  0.00  0.00    +0.000 OA
ATOM     13  C   UNL     1       6.210   5.352  15.217  0.00  0.00    +0.000 C 
ATOM     14  N   UNL     1       5.600   4.429  14.391  0.00  0.00    +0.000 N 
ATOM     15  H   UNL     1       4.596   4.307  14.459  0.00  0.00    +0.000 HD
BRANCH  14  16
ATOM     16  C   UNL     1       6.384   3.435  13.660  0.00  0.00    +0.000 C 
BRANCH  16  17
ATOM     17  C   UNL     1       6.253   3.486  12.133  0.00  0.00    +0.000 C 
ATOM     18  F   UNL     1       7.045   4.436  11.585  0.00  0.00    +0.000 F 
ATOM     19  F   UNL     1       6.631   2.301  11.595  0.00  0.00    +0.000 F 
ATOM     20  F   UNL     1       4.983   3.723  11.742  0.00  0.00    +0.000 F 
ENDBRANCH  16  17
ENDBRANCH  14  16
ENDBRANCH   1  13
TORSDOF 4
ENDMDL
MODEL 3
REMARK VINA RESULT:      -7.8      1.444      1.753
REMARK  Name = 
REMARK  4 active torsions:
REMARK  status: ('A' for Active; 'I' for Inactive)
REMARK    1  A    between atoms: C_2  and  C_3
REMARK    2  A    between atoms: C_3  and  N_4
REMARK    3  A    between atoms: N_14  and  C_15
REMARK    4  A    between atoms: C_15  and  C_16
REMARK                            x       y       z     vdW  Elec       q    Type
REMARK                         _______ _______ _______ _____ _____    ______ ____
ROOT
ATOM      1  C   UNL     1       6.319   6.689  17.403  0.00  0.00    +0.000 C 
ENDROOT
BRANCH   1   2
ATOM      2  N   UNL     1       5.166   6.176  18.161  0.00  0.00    +0.000 NA
ATOM      3  C   UNL     1       5.487   5.229  19.218  0.00  0.00    +0.000 C 
ATOM      4  C   UNL     1       4.136   4.632  19.552  0.00  0.00    +0.000 C 
ATOM      5  C   UNL     1       3.438   4.497  18.185  0.00  0.00    +0.000 C 
ATOM      6  C   UNL     1       1.919   4.715  18.314  0.00  0.00    +0.000 C 
ATOM      7  C   UNL     1       1.239   3.590  19.092  0.00  0.00    +0.000 C 
ATOM      8  C   UNL     1       1.508   2.229  18.457  0.00  0.00    +0.000 C 
ATOM      9  C   UNL     1       2.998   1.963  18.272  0.00  0.00    +0.000 C 
ATOM     10  C   UNL     1       3.701   3.109  17.545  0.00  0.00    +0.000 C 
ATOM     11  C   UNL     1       4.105   5.598  17.328  0.00  0.00    +0.000 C 
ENDBRANCH   1   2
BRANCH   1  13
ATOM     12  O   UNL     1       7.693   4.770  16.784  0.00  0.00    +0.000 OA
ATOM     13  C   UNL     1       6.928   5.661  16.433  0.00  0.00    +0.000 C 
ATOM     14  N   UNL     1       6.576   5.849  15.111  0.00  0.00    +0.000 N 
ATOM     15  H   UNL     1       5.815   6.482  14.899  0.00  0.00    +0.000 HD
BRANCH  14  16
ATOM     16  C   UNL     1       7.060   4.950  14.065  0.00  0.00    +0.000 C 
BRANCH  16  17
ATOM     17  C   UNL     1       6.139   3.770  13.733  0.00  0.00    +0.000 C 
ATOM     18  F   UNL     1       6.016   2.910  14.771  0.00  0.00    +0.000 F 
ATOM     19  F   UNL     1       4.892   4.221  13.446  0.00  0.00    +0.000 F 
ATOM     20  F   UNL     1       6.575   3.074  12.662  0.00  0.00    +0.000 F 
ENDBRANCH  16  17
ENDBRANCH  14  16
ENDBRANCH   1  13
TORSDOF 4
ENDMDL
MODEL 4
REMARK VINA RESULT:      -7.7      0.713      1.841
REMARK  Name = 
REMARK  4 active torsions:
REMARK  status: ('A' for Active; 'I' for Inactive)
REMARK    1  A    between atoms: C_2  and  C_3
REMARK    2  A    between atoms: C_3  and  N_4
REMARK    3  A    between atoms: N_14  and  C_15
REMARK    4  A    between atoms: C_15  and  C_16
REMARK                            x       y       z     vdW  Elec       q    Type
REMARK                         _______ _______ _______ _____ _____    ______ ____
ROOT
ATOM      1  C   UNL     1       5.563   6.018  16.701  0.00  0.00    +0.000 C 
ENDROOT
BRANCH   1   2
ATOM      2  N   UNL     1       4.211   5.523  17.008  0.00  0.00    +0.000 NA
ATOM      3  C   UNL     1       3.369   6.438  17.764  0.00  0.00    +0.000 C 
ATOM      4  C   UNL     1       2.232   5.546  18.219  0.00  0.00    +0.000 C 
ATOM      5  C   UNL     1       2.919   4.209  18.560  0.00  0.00    +0.000 C 
ATOM      6  C   UNL     1       2.000   3.016  18.242  0.00  0.00    +0.000 C 
ATOM      7  C   UNL     1       0.788   2.958  19.171  0.00  0.00    +0.000 C 
ATOM      8  C   UNL     1       1.209   2.902  20.636  0.00  0.00    +0.000 C 
ATOM      9  C   UNL     1       2.149   4.043  21.010  0.00  0.00    +0.000 C 
ATOM     10  C   UNL     1       3.336   4.148  20.053  0.00  0.00    +0.000 C 
ATOM     11  C   UNL     1       4.183   4.214  17.669  0.00  0.00    +0.000 C 
ENDBRANCH   1   2
BRANCH   1  13
ATOM     12  O   UNL     1       7.488   4.591  16.241  0.00  0.00    +0.000 OA
ATOM     13  C   UNL     1       6.407   5.035  15.870  0.00  0.00    +0.000 C 
ATOM     14  N   UNL     1       5.867   4.723  14.638  0.00  0.00    +0.000 N 
ATOM     15  H   UNL     1       4.904   4.976  14.454  0.00  0.00    +0.000 HD
BRANCH  14  16
ATOM     16  C   UNL     1       6.539   3.793  13.732  0.00  0.00    +0.000 C 
BRANCH  16  17
ATOM     17  C   UNL     1       5.799   3.498  12.423  0.00  0.00    +0.000 C 
ATOM     18  F   UNL     1       4.513   3.919  12.458  0.00  0.00    +0.000 F 
ATOM     19  F   UNL     1       6.397   4.147  11.394  0.00  0.00    +0.000 F 
ATOM     20  F   UNL     1       5.800   2.181  12.127  0.00  0.00    +0.000 F 
ENDBRANCH  16  17
ENDBRANCH  14  16
ENDBRANCH   1  13
TORSDOF 4
ENDMDL
MODEL 5
REMARK VINA RESULT:      -7.6      1.119      2.064
REMARK  Name = 
REMARK  4 active torsions:
REMARK  status: ('A' for Active; 'I' for Inactive)
REMARK    1  A    between atoms: C_2  and  C_3
REMARK    2  A    between atoms: C_3  and  N_4
REMARK    3  A    between atoms: N_14  and  C_15
REMARK    4  A    between atoms: C_15  and  C_16
REMARK                            x       y       z     vdW  Elec       q    Type
REMARK                         _______ _______ _______ _____ _____    ______ ____
ROOT
ATOM      1  C   UNL     1       6.570   4.863  16.180  0.00  0.00    +0.000 C 
ENDROOT
BRANCH   1   2
ATOM      2  N   UNL     1       5.129   4.846  16.479  0.00  0.00    +0.000 NA
ATOM      3  C   UNL     1       4.627   6.009  17.195  0.00  0.00    +0.000 C 
ATOM      4  C   UNL     1       3.259   5.551  17.657  0.00  0.00    +0.000 C 
ATOM      5  C   UNL     1       3.470   4.076  18.048  0.00  0.00    +0.000 C 
ATOM      6  C   UNL     1       2.214   3.238  17.750  0.00  0.00    +0.000 C 
ATOM      7  C   UNL     1       1.044   3.608  18.661  0.00  0.00    +0.000 C 
ATOM      8  C   UNL     1       1.416   3.466  20.134  0.00  0.00    +0.000 C 
ATOM      9  C   UNL     1       2.674   4.250  20.490  0.00  0.00    +0.000 C 
ATOM     10  C   UNL     1       3.836   3.931  19.549  0.00  0.00    +0.000 C 
ATOM     11  C   UNL     1       4.672   3.639  17.178  0.00  0.00    +0.000 C 
ENDBRANCH   1   2
BRANCH   1  13
ATOM     12  O   UNL     1       7.699   5.480  14.106  0.00  0.00    +0.000 OA
ATOM     13  C   UNL     1       6.891   4.756  14.678  0.00  0.00    +0.000 C 
ATOM     14  N   UNL     1       6.156   3.800  14.006  0.00  0.00    +0.000 N 
ATOM     15  H   UNL     1       5.635   3.121  14.548  0.00  0.00    +0.000 HD
BRANCH  14  16
ATOM     16  C   UNL     1       6.350   3.564  12.577  0.00  0.00    +0.000 C 
BRANCH  16  17
ATOM     17  C   UNL     1       5.104   3.112  11.808  0.00  0.00    +0.000 C 
ATOM     18  F   UNL     1       3.989   3.151  12.574  0.00  0.00    +0.000 F 
ATOM     19  F   UNL     1       4.884   3.937  10.754  0.00  0.00    +0.000 F 
ATOM     20  F   UNL     1       5.234   1.859  11.323  0.00  0.00    +0.000 F 
ENDBRANCH  16  17
ENDBRANCH  14  16
ENDBRANCH   1  13
TORSDOF 4
ENDMDL
MODEL 6
REMARK VINA RESULT:      -7.6      1.326      1.915
REMARK  Name = 
REMARK  4 active torsions:
REMARK  status: ('A' for Active; 'I' for Inactive)
REMARK    1  A    between atoms: C_2  and  C_3
REMARK    2  A    between atoms: C_3  and  N_4
REMARK    3  A    between atoms: N_14  and  C_15
REMARK    4  A    between atoms: C_15  and  C_16
REMARK                            x       y       z     vdW  Elec       q    Type
REMARK                         _______ _______ _______ _____ _____    ______ ____
ROOT
ATOM      1  C   UNL     1       6.092   4.200  16.577  0.00  0.00    +0.000 C 
ENDROOT
BRANCH   1   2
ATOM      2  N   UNL     1       4.896   4.581  17.345  0.00  0.00    +0.000 NA
ATOM      3  C   UNL     1       5.154   5.159  18.655  0.00  0.00    +0.000 C 
ATOM      4  C   UNL     1       3.793   5.108  19.317  0.00  0.00    +0.000 C 
ATOM      5  C   UNL     1       3.200   3.764  18.850  0.00  0.00    +0.000 C 
ATOM      6  C   UNL     1       1.673   3.860  18.683  0.00  0.00    +0.000 C 
ATOM      7  C   UNL     1       0.957   4.036  20.022  0.00  0.00    +0.000 C 
ATOM      8  C   UNL     1       1.296   2.907  20.989  0.00  0.00    +0.000 C 
ATOM      9  C   UNL     1       2.799   2.738  21.175  0.00  0.00    +0.000 C 
ATOM     10  C   UNL     1       3.534   2.619  19.841  0.00  0.00    +0.000 C 
ATOM     11  C   UNL     1       3.910   3.506  17.500  0.00  0.00    +0.000 C 
ENDBRANCH   1   2
BRANCH   1  13
ATOM     12  O   UNL     1       5.714   5.723  14.709  0.00  0.00    +0.000 OA
ATOM     13  C   UNL     1       6.028   4.602  15.092  0.00  0.00    +0.000 C 
ATOM     14  N   UNL     1       6.311   3.576  14.213  0.00  0.00    +0.000 N 
ATOM     15  H   UNL     1       6.728   2.727  14.577  0.00  0.00    +0.000 HD
BRANCH  14  16
ATOM     16  C   UNL     1       6.306   3.796  12.768  0.00  0.00    +0.000 C 
BRANCH  16  17
ATOM     17  C   UNL     1       5.098   3.222  12.018  0.00  0.00    +0.000 C 
ATOM     18  F   UNL     1       4.764   3.970  10.941  0.00  0.00    +0.000 F 
ATOM     19  F   UNL     1       5.385   1.979  11.560  0.00  0.00    +0.000 F 
ATOM     20  F   UNL     1       4.011   3.122  12.811  0.00  0.00    +0.000 F 
ENDBRANCH  16  17
ENDBRANCH  14  16
ENDBRANCH   1  13
TORSDOF 4
ENDMDL
MODEL 7
REMARK VINA RESULT:      -7.6      1.476      1.545
REMARK  Name = 
REMARK  4 active torsions:
REMARK  status: ('A' for Active; 'I' for Inactive)
REMARK    1  A    between atoms: C_2  and  C_3
REMARK    2  A    between atoms: C_3  and  N_4
REMARK    3  A    between atoms: N_14  and  C_15
REMARK    4  A    between atoms: C_15  and  C_16
REMARK                            x       y       z     vdW  Elec       q    Type
REMARK                         _______ _______ _______ _____ _____    ______ ____
ROOT
ATOM      1  C   UNL     1       6.310   6.309  17.991  0.00  0.00    +0.000 C 
ENDROOT
BRANCH   1   2
ATOM      2  N   UNL     1       5.519   5.436  18.873  0.00  0.00    +0.000 NA
ATOM      3  C   UNL     1       5.492   4.031  18.498  0.00  0.00    +0.000 C 
ATOM      4  C   UNL     1       4.356   3.483  19.338  0.00  0.00    +0.000 C 
ATOM      5  C   UNL     1       3.301   4.606  19.318  0.00  0.00    +0.000 C 
ATOM      6  C   UNL     1       2.527   4.663  20.647  0.00  0.00    +0.000 C 
ATOM      7  C   UNL     1       1.635   3.439  20.848  0.00  0.00    +0.000 C 
ATOM      8  C   UNL     1       0.654   3.267  19.692  0.00  0.00    +0.000 C 
ATOM      9  C   UNL     1       1.357   3.233  18.339  0.00  0.00    +0.000 C 
ATOM     10  C   UNL     1       2.296   4.423  18.151  0.00  0.00    +0.000 C 
ATOM     11  C   UNL     1       4.138   5.886  19.086  0.00  0.00    +0.000 C 
ENDBRANCH   1   2
BRANCH   1  13
ATOM     12  O   UNL     1       4.996   6.388  15.937  0.00  0.00    +0.000 OA
ATOM     13  C   UNL     1       6.044   6.078  16.492  0.00  0.00    +0.000 C 
ATOM     14  N   UNL     1       7.072   5.446  15.822  0.00  0.00    +0.000 N 
ATOM     15  H   UNL     1       7.972   5.369  16.280  0.00  0.00    +0.000 HD
BRANCH  14  16
ATOM     16  C   UNL     1       6.982   5.165  14.391  0.00  0.00    +0.000 C 
BRANCH  16  17
ATOM     17  C   UNL     1       6.172   3.920  14.013  0.00  0.00    +0.000 C 
ATOM     18  F   UNL     1       6.077   3.042  15.039  0.00  0.00    +0.000 F 
ATOM     19  F   UNL     1       4.906   4.273  13.680  0.00  0.00    +0.000 F 
ATOM     20  F   UNL     1       6.704   3.271  12.956  0.00  0.00    +0.000 F 
ENDBRANCH  16  17
ENDBRANCH  14  16
ENDBRANCH   1  13
TORSDOF 4
ENDMDL
MODEL 8
REMARK VINA RESULT:      -7.5      3.684      4.369
REMARK  Name = 
REMARK  4 active torsions:
REMARK  status: ('A' for Active; 'I' for Inactive)
REMARK    1  A    between atoms: C_2  and  C_3
REMARK    2  A    between atoms: C_3  and  N_4
REMARK    3  A    between atoms: N_14  and  C_15
REMARK    4  A    between atoms: C_15  and  C_16
REMARK                            x       y       z     vdW  Elec       q    Type
REMARK                         _______ _______ _______ _____ _____    ______ ____
ROOT
ATOM      1  C   UNL     1       5.062   4.037  15.803  0.00  0.00    +0.000 C 
ENDROOT
BRANCH   1   2
ATOM      2  N   UNL     1       3.831   4.187  16.596  0.00  0.00    +0.000 NA
ATOM      3  C   UNL     1       3.816   5.311  17.519  0.00  0.00    +0.000 C 
ATOM      4  C   UNL     1       2.631   4.997  18.409  0.00  0.00    +0.000 C 
ATOM      5  C   UNL     1       2.700   3.469  18.599  0.00  0.00    +0.000 C 
ATOM      6  C   UNL     1       1.291   2.860  18.715  0.00  0.00    +0.000 C 
ATOM      7  C   UNL     1       0.588   3.276  20.006  0.00  0.00    +0.000 C 
ATOM      8  C   UNL     1       1.409   2.901  21.236  0.00  0.00    +0.000 C 
ATOM      9  C   UNL     1       2.830   3.449  21.170  0.00  0.00    +0.000 C 
ATOM     10  C   UNL     1       3.525   3.089  19.857  0.00  0.00    +0.000 C 
ATOM     11  C   UNL     1       3.435   2.979  17.330  0.00  0.00    +0.000 C 
ENDBRANCH   1   2
BRANCH   1  13
ATOM     12  O   UNL     1       6.709   5.833  15.944  0.00  0.00    +0.000 OA
ATOM     13  C   UNL     1       6.273   4.780  16.397  0.00  0.00    +0.000 C 
ATOM     14  N   UNL     1       6.865   4.138  17.466  0.00  0.00    +0.000 N 
ATOM     15  H   UNL     1       6.370   3.372  17.905  0.00  0.00    +0.000 HD
BRANCH  14  16
ATOM     16  C   UNL     1       8.018   4.719  18.152  0.00  0.00    +0.000 C 
BRANCH  16  17
ATOM     17  C   UNL     1       7.688   5.715  19.269  0.00  0.00    +0.000 C 
ATOM     18  F   UNL     1       8.043   6.980  18.946  0.00  0.00    +0.000 F 
ATOM     19  F   UNL     1       6.351   5.729  19.498  0.00  0.00    +0.000 F 
ATOM     20  F   UNL     1       8.295   5.393  20.430  0.00  0.00    +0.000 F 
ENDBRANCH  16  17
ENDBRANCH  14  16
ENDBRANCH   1  13
TORSDOF 4
ENDMDL
MODEL 9
REMARK VINA RESULT:      -7.4      1.813      2.083
REMARK  Name = 
REMARK  4 active torsions:
REMARK  status: ('A' for Active; 'I' for Inactive)
REMARK    1  A    between atoms: C_2  and  C_3
REMARK    2  A    between atoms: C_3  and  N_4
REMARK    3  A    between atoms: N_14  and  C_15
REMARK    4  A    between atoms: C_15  and  C_16
REMARK                            x       y       z     vdW  Elec       q    Type
REMARK                         _______ _______ _______ _____ _____    ______ ____
ROOT
ATOM      1  C   UNL     1       6.746   5.663  18.902  0.00  0.00    +0.000 C 
ENDROOT
BRANCH   1   2
ATOM      2  N   UNL     1       5.701   4.866  19.564  0.00  0.00    +0.000 NA
ATOM      3  C   UNL     1       5.555   3.503  19.077  0.00  0.00    +0.000 C 
ATOM      4  C   UNL     1       4.225   3.079  19.666  0.00  0.00    +0.000 C 
ATOM      5  C   UNL     1       3.349   4.342  19.560  0.00  0.00    +0.000 C 
ATOM      6  C   UNL     1       2.365   4.435  20.740  0.00  0.00    +0.000 C 
ATOM      7  C   UNL     1       1.297   3.343  20.687  0.00  0.00    +0.000 C 
ATOM      8  C   UNL     1       0.524   3.381  19.373  0.00  0.00    +0.000 C 
ATOM      9  C   UNL     1       1.445   3.323  18.160  0.00  0.00    +0.000 C 
ATOM     10  C   UNL     1       2.553   4.373  18.229  0.00  0.00    +0.000 C 
ATOM     11  C   UNL     1       4.377   5.498  19.577  0.00  0.00    +0.000 C 
ENDBRANCH   1   2
BRANCH   1  13
ATOM     12  O   UNL     1       8.182   4.177  17.604  0.00  0.00    +0.000 OA
ATOM     13  C   UNL     1       7.291   5.020  17.614  0.00  0.00    +0.000 C 
ATOM     14  N   UNL     1       6.724   5.504  16.452  0.00  0.00    +0.000 N 
ATOM     15  H   UNL     1       5.883   6.065  16.521  0.00  0.00    +0.000 HD
BRANCH  14  16
ATOM     16  C   UNL     1       7.122   4.987  15.144  0.00  0.00    +0.000 C 
BRANCH  16  17
ATOM     17  C   UNL     1       6.148   3.991  14.505  0.00  0.00    +0.000 C 
ATOM     18  F   UNL     1       6.650   3.440  13.375  0.00  0.00    +0.000 F 
ATOM     19  F   UNL     1       5.899   2.970  15.362  0.00  0.00    +0.000 F 
ATOM     20  F   UNL     1       4.964   4.564  14.201  0.00  0.00    +0.000 F 
ENDBRANCH  16  17
ENDBRANCH  14  16
ENDBRANCH   1  13
TORSDOF 4
ENDMDL
