MODEL 1
REMARK VINA RESULT:      -8.4      0.000      0.000
REMARK  Name = 
REMARK  8 active torsions:
REMARK  status: ('A' for Active; 'I' for Inactive)
REMARK    1  A    between atoms: C_1  and  C_2
REMARK    2  A    between atoms: C_4  and  C_5
REMARK    3  A    between atoms: N_7  and  C_8
REMARK    4  A    between atoms: C_8  and  C_9
REMARK    5  A    between atoms: N_11  and  C_12
REMARK    6  A    between atoms: C_14  and  S_15
REMARK    7  A    between atoms: S_15  and  N_18
REMARK    8  A    between atoms: C_26  and  N_27
REMARK                            x       y       z     vdW  Elec       q    Type
REMARK                         _______ _______ _______ _____ _____    ______ ____
ROOT
ATOM      1  C   UNL     1       3.007   6.187  18.608  0.00  0.00    +0.000 A 
ATOM      2  C   UNL     1       3.833   6.477  17.505  0.00  0.00    +0.000 A 
ATOM      3  C   UNL     1       4.482   5.436  16.833  0.00  0.00    +0.000 A 
ATOM      4  C   UNL     1       4.390   4.136  17.328  0.00  0.00    +0.000 A 
ATOM      5  C   UNL     1       3.536   3.847  18.396  0.00  0.00    +0.000 A 
ATOM      6  C   UNL     1       2.788   4.848  19.039  0.00  0.00    +0.000 A 
ENDROOT
BRANCH   6   7
ATOM      7  N   UNL     1       1.818   4.562  20.025  0.00  0.00    +0.000 N 
ATOM      8  C   UNL     1       2.180   4.478  21.449  0.00  0.00    +0.000 C 
ATOM      9  C   UNL     1       2.025   3.008  21.813  0.00  0.00    +0.000 C 
ATOM     10  C   UNL     1       0.840   2.572  20.976  0.00  0.00    +0.000 C 
ATOM     11  C   UNL     1       0.969   3.386  19.689  0.00  0.00    +0.000 C 
ENDBRANCH   6   7
BRANCH   1  14
ATOM     12  C   UNL     1       1.807   8.341  18.855  0.00  0.00    +0.000 C 
ATOM     13  O   UNL     1       1.585   8.507  17.652  0.00  0.00    +0.000 OA
ATOM     14  N   UNL     1       2.432   7.228  19.377  0.00  0.00    +0.000 N 
ATOM     15  H   UNL     1       2.250   7.005  20.351  0.00  0.00    +0.000 HD
BRANCH  12  16
ATOM     16  C   UNL     1       1.261   9.332  19.897  0.00  0.00    +0.000 C 
BRANCH  16  23
ATOM     17  C   UNL     1       1.162  13.656  18.616  0.00  0.00    +0.000 C 
ATOM     18  C   UNL     1       0.419  13.061  19.816  0.00  0.00    +0.000 C 
ATOM     19  C   UNL     1      -1.084  12.929  19.547  0.00  0.00    +0.000 C 
ATOM     20  C   UNL     1      -1.382  11.767  18.599  0.00  0.00    +0.000 C 
ATOM     21  C   UNL     1      -2.885  11.605  18.395  0.00  0.00    +0.000 C 
ATOM     22  C   UNL     1      -0.767  10.464  19.154  0.00  0.00    +0.000 C 
ATOM     23  N   UNL     1       0.696  10.585  19.317  0.00  0.00    +0.000 NA
ATOM     24  C   UNL     1       1.007  11.701  20.245  0.00  0.00    +0.000 C 
ENDBRANCH  16  23
ENDBRANCH  12  16
ENDBRANCH   1  14
BRANCH   3  25
ATOM     25  S   UNL     1       5.543   5.745  15.435  0.00  0.00    +0.000 S 
ATOM     26  O   UNL     1       5.490   4.585  14.578  0.00  0.00    +0.000 OA
ATOM     27  O   UNL     1       5.184   7.057  14.925  0.00  0.00    +0.000 OA
BRANCH  25  28
ATOM     28  N   UNL     1       7.108   5.869  16.059  0.00  0.00    +0.000 NA
ATOM     29  C   UNL     1       7.564   7.108  16.737  0.00  0.00    +0.000 C 
ATOM     30  C   UNL     1       7.411   7.003  18.259  0.00  0.00    +0.000 C 
ATOM     31  O   UNL     1       7.984   5.804  18.802  0.00  0.00    +0.000 OA
ATOM     32  C   UNL     1       7.530   4.611  18.145  0.00  0.00    +0.000 C 
ATOM     33  C   UNL     1       7.762   4.674  16.638  0.00  0.00    +0.000 C 
ENDBRANCH  25  28
ENDBRANCH   3  25
TORSDOF 6
ENDMDL
MODEL 2
REMARK VINA RESULT:      -8.1      1.003      1.313
REMARK  Name = 
REMARK  8 active torsions:
REMARK  status: ('A' for Active; 'I' for Inactive)
REMARK    1  A    between atoms: C_1  and  C_2
REMARK    2  A    between atoms: C_4  and  C_5
REMARK    3  A    between atoms: N_7  and  C_8
REMARK    4  A    between atoms: C_8  and  C_9
REMARK    5  A    between atoms: N_11  and  C_12
REMARK    6  A    between atoms: C_14  and  S_15
REMARK    7  A    between atoms: S_15  and  N_18
REMARK    8  A    between atoms: C_26  and  N_27
REMARK                            x       y       z     vdW  Elec       q    Type
REMARK                         _______ _______ _______ _____ _____    ______ ____
ROOT
ATOM      1  C   UNL     1       3.137   5.973  18.757  0.00  0.00    +0.000 A 
ATOM      2  C   UNL     1       3.958   6.333  17.671  0.00  0.00    +0.000 A 
ATOM      3  C   UNL     1       4.447   5.341  16.813  0.00  0.00    +0.000 A 
ATOM      4  C   UNL     1       4.203   4.000  17.105  0.00  0.00    +0.000 A 
ATOM      5  C   UNL     1       3.352   3.650  18.158  0.00  0.00    +0.000 A 
ATOM      6  C   UNL     1       2.761   4.619  18.986  0.00  0.00    +0.000 A 
ENDROOT
BRANCH   6   7
ATOM      7  N   UNL     1       1.793   4.300  19.963  0.00  0.00    +0.000 N 
ATOM      8  C   UNL     1       2.136   4.274  21.395  0.00  0.00    +0.000 C 
ATOM      9  C   UNL     1       2.062   2.808  21.795  0.00  0.00    +0.000 C 
ATOM     10  C   UNL     1       0.919   2.280  20.952  0.00  0.00    +0.000 C 
ATOM     11  C   UNL     1       1.021   3.067  19.646  0.00  0.00    +0.000 C 
ENDBRANCH   6   7
BRANCH   1  14
ATOM     12  C   UNL     1       1.969   8.056  19.416  0.00  0.00    +0.000 C 
ATOM     13  O   UNL     1       1.476   8.288  18.309  0.00  0.00    +0.000 OA
ATOM     14  N   UNL     1       2.725   6.941  19.705  0.00  0.00    +0.000 N 
ATOM     15  H   UNL     1       2.775   6.651  20.677  0.00  0.00    +0.000 HD
BRANCH  12  16
ATOM     16  C   UNL     1       1.649   8.959  20.621  0.00  0.00    +0.000 C 
BRANCH  16  23
ATOM     17  C   UNL     1      -1.176  11.644  18.351  0.00  0.00    +0.000 C 
ATOM     18  C   UNL     1      -0.098  12.107  19.335  0.00  0.00    +0.000 C 
ATOM     19  C   UNL     1      -0.702  12.568  20.666  0.00  0.00    +0.000 C 
ATOM     20  C   UNL     1      -1.170  11.380  21.507  0.00  0.00    +0.000 C 
ATOM     21  C   UNL     1      -1.706  11.848  22.857  0.00  0.00    +0.000 C 
ATOM     22  C   UNL     1      -0.007  10.383  21.703  0.00  0.00    +0.000 C 
ATOM     23  N   UNL     1       0.498   9.883  20.409  0.00  0.00    +0.000 NA
ATOM     24  C   UNL     1       0.968  11.020  19.580  0.00  0.00    +0.000 C 
ENDBRANCH  16  23
ENDBRANCH  12  16
ENDBRANCH   1  14
BRANCH   3  25
ATOM     25  S   UNL     1       5.494   5.737  15.427  0.00  0.00    +0.000 S 
ATOM     26  O   UNL     1       5.435   4.631  14.501  0.00  0.00    +0.000 OA
ATOM     27  O   UNL     1       5.129   7.077  15.002  0.00  0.00    +0.000 OA
BRANCH  25  28
ATOM     28  N   UNL     1       7.065   5.825  16.044  0.00  0.00    +0.000 NA
ATOM     29  C   UNL     1       7.574   7.076  16.657  0.00  0.00    +0.000 C 
ATOM     30  C   UNL     1       7.422   7.056  18.183  0.00  0.00    +0.000 C 
ATOM     31  O   UNL     1       7.944   5.862  18.786  0.00  0.00    +0.000 OA
ATOM     32  C   UNL     1       7.438   4.658  18.190  0.00  0.00    +0.000 C 
ATOM     33  C   UNL     1       7.668   4.635  16.682  0.00  0.00    +0.000 C 
ENDBRANCH  25  28
ENDBRANCH   3  25
TORSDOF 6
ENDMDL
MODEL 3
REMARK VINA RESULT:      -7.9      3.611     10.143
REMARK  Name = 
REMARK  8 active torsions:
REMARK  status: ('A' for Active; 'I' for Inactive)
REMARK    1  A    between atoms: C_1  and  C_2
REMARK    2  A    between atoms: C_4  and  C_5
REMARK    3  A    between atoms: N_7  and  C_8
REMARK    4  A    between atoms: C_8  and  C_9
REMARK    5  A    between atoms: N_11  and  C_12
REMARK    6  A    between atoms: C_14  and  S_15
REMARK    7  A    between atoms: S_15  and  N_18
REMARK    8  A    between atoms: C_26  and  N_27
REMARK                            x       y       z     vdW  Elec       q    Type
REMARK                         _______ _______ _______ _____ _____    ______ ____
ROOT
ATOM      1  C   UNL     1       0.004  10.599  18.867  0.00  0.00    +0.000 A 
ATOM      2  C   UNL     1      -1.292  10.304  18.401  0.00  0.00    +0.000 A 
ATOM      3  C   UNL     1      -2.182  11.346  18.118  0.00  0.00    +0.000 A 
ATOM      4  C   UNL     1      -1.813  12.660  18.403  0.00  0.00    +0.000 A 
ATOM      5  C   UNL     1      -0.512  12.952  18.824  0.00  0.00    +0.000 A 
ATOM      6  C   UNL     1       0.445  11.944  19.027  0.00  0.00    +0.000 A 
ENDROOT
BRANCH   6   7
ATOM      7  N   UNL     1       1.799  12.223  19.316  0.00  0.00    +0.000 N 
ATOM      8  C   UNL     1       2.174  13.092  20.445  0.00  0.00    +0.000 C 
ATOM      9  C   UNL     1       2.737  14.353  19.805  0.00  0.00    +0.000 C 
ATOM     10  C   UNL     1       3.442  13.826  18.571  0.00  0.00    +0.000 C 
ATOM     11  C   UNL     1       2.580  12.647  18.121  0.00  0.00    +0.000 C 
ENDBRANCH   6   7
BRANCH   1  14
ATOM     12  C   UNL     1       1.716   8.864  18.425  0.00  0.00    +0.000 C 
ATOM     13  O   UNL     1       1.867   9.128  17.229  0.00  0.00    +0.000 OA
ATOM     14  N   UNL     1       0.882   9.565  19.270  0.00  0.00    +0.000 N 
ATOM     15  H   UNL     1       1.087   9.527  20.264  0.00  0.00    +0.000 HD
BRANCH  12  16
ATOM     16  C   UNL     1       2.578   7.786  19.104  0.00  0.00    +0.000 C 
BRANCH  16  23
ATOM     17  C   UNL     1       1.967   3.613  17.504  0.00  0.00    +0.000 C 
ATOM     18  C   UNL     1       3.107   4.061  18.423  0.00  0.00    +0.000 C 
ATOM     19  C   UNL     1       4.436   4.175  17.667  0.00  0.00    +0.000 C 
ATOM     20  C   UNL     1       4.467   5.417  16.777  0.00  0.00    +0.000 C 
ATOM     21  C   UNL     1       5.820   5.555  16.084  0.00  0.00    +0.000 C 
ATOM     22  C   UNL     1       4.159   6.675  17.617  0.00  0.00    +0.000 C 
ATOM     23  N   UNL     1       2.834   6.582  18.262  0.00  0.00    +0.000 NA
ATOM     24  C   UNL     1       2.786   5.387  19.141  0.00  0.00    +0.000 C 
ENDBRANCH  16  23
ENDBRANCH  12  16
ENDBRANCH   1  14
BRANCH   3  25
ATOM     25  S   UNL     1      -3.835  11.030  17.532  0.00  0.00    +0.000 S 
ATOM     26  O   UNL     1      -3.847  11.264  16.107  0.00  0.00    +0.000 OA
ATOM     27  O   UNL     1      -4.226   9.740  18.073  0.00  0.00    +0.000 OA
BRANCH  25  28
ATOM     28  N   UNL     1      -4.816  12.193  18.266  0.00  0.00    +0.000 NA
ATOM     29  C   UNL     1      -5.949  12.808  17.531  0.00  0.00    +0.000 C 
ATOM     30  C   UNL     1      -7.272  12.097  17.842  0.00  0.00    +0.000 C 
ATOM     31  O   UNL     1      -7.512  11.942  19.249  0.00  0.00    +0.000 OA
ATOM     32  C   UNL     1      -6.412  11.338  19.949  0.00  0.00    +0.000 C 
ATOM     33  C   UNL     1      -5.109  12.096  19.713  0.00  0.00    +0.000 C 
ENDBRANCH  25  28
ENDBRANCH   3  25
TORSDOF 6
ENDMDL
MODEL 4
REMARK VINA RESULT:      -7.9      1.375      2.257
REMARK  Name = 
REMARK  8 active torsions:
REMARK  status: ('A' for Active; 'I' for Inactive)
REMARK    1  A    between atoms: C_1  and  C_2
REMARK    2  A    between atoms: C_4  and  C_5
REMARK    3  A    between atoms: N_7  and  C_8
REMARK    4  A    between atoms: C_8  and  C_9
REMARK    5  A    between atoms: N_11  and  C_12
REMARK    6  A    between atoms: C_14  and  S_15
REMARK    7  A    between atoms: S_15  and  N_18
REMARK    8  A    between atoms: C_26  and  N_27
REMARK                            x       y       z     vdW  Elec       q    Type
REMARK                         _______ _______ _______ _____ _____    ______ ____
ROOT
ATOM      1  C   UNL     1       3.666   6.080  18.999  0.00  0.00    +0.000 A 
ATOM      2  C   UNL     1       4.799   6.409  18.230  0.00  0.00    +0.000 A 
ATOM      3  C   UNL     1       5.615   5.389  17.727  0.00  0.00    +0.000 A 
ATOM      4  C   UNL     1       5.357   4.066  18.082  0.00  0.00    +0.000 A 
ATOM      5  C   UNL     1       4.208   3.741  18.808  0.00  0.00    +0.000 A 
ATOM      6  C   UNL     1       3.308   4.725  19.250  0.00  0.00    +0.000 A 
ENDROOT
BRANCH   6   7
ATOM      7  N   UNL     1       2.074   4.412  19.863  0.00  0.00    +0.000 N 
ATOM      8  C   UNL     1       2.004   4.025  21.282  0.00  0.00    +0.000 C 
ATOM      9  C   UNL     1       1.620   2.552  21.273  0.00  0.00    +0.000 C 
ATOM     10  C   UNL     1       0.690   2.447  20.081  0.00  0.00    +0.000 C 
ATOM     11  C   UNL     1       1.256   3.450  19.075  0.00  0.00    +0.000 C 
ENDBRANCH   6   7
BRANCH   1  14
ATOM     12  C   UNL     1       2.114   8.011  18.944  0.00  0.00    +0.000 C 
ATOM     13  O   UNL     1       1.924   7.994  17.725  0.00  0.00    +0.000 OA
ATOM     14  N   UNL     1       2.891   7.091  19.617  0.00  0.00    +0.000 N 
ATOM     15  H   UNL     1       2.703   6.957  20.606  0.00  0.00    +0.000 HD
BRANCH  12  16
ATOM     16  C   UNL     1       1.363   9.011  19.840  0.00  0.00    +0.000 C 
BRANCH  16  23
ATOM     17  C   UNL     1       1.528  13.263  18.345  0.00  0.00    +0.000 C 
ATOM     18  C   UNL     1       0.634  12.746  19.475  0.00  0.00    +0.000 C 
ATOM     19  C   UNL     1      -0.830  12.630  19.035  0.00  0.00    +0.000 C 
ATOM     20  C   UNL     1      -1.043  11.427  18.117  0.00  0.00    +0.000 C 
ATOM     21  C   UNL     1      -2.515  11.284  17.742  0.00  0.00    +0.000 C 
ATOM     22  C   UNL     1      -0.531  10.143  18.804  0.00  0.00    +0.000 C 
ATOM     23  N   UNL     1       0.904  10.243  19.136  0.00  0.00    +0.000 NA
ATOM     24  C   UNL     1       1.131  11.399  20.038  0.00  0.00    +0.000 C 
ENDBRANCH  16  23
ENDBRANCH  12  16
ENDBRANCH   1  14
BRANCH   3  25
ATOM     25  S   UNL     1       7.064   5.747  16.754  0.00  0.00    +0.000 S 
ATOM     26  O   UNL     1       7.546   7.050  17.147  0.00  0.00    +0.000 OA
ATOM     27  O   UNL     1       7.925   4.581  16.848  0.00  0.00    +0.000 OA
BRANCH  25  28
ATOM     28  N   UNL     1       6.534   5.842  15.152  0.00  0.00    +0.000 NA
ATOM     29  C   UNL     1       7.443   5.512  14.027  0.00  0.00    +0.000 C 
ATOM     30  C   UNL     1       7.260   4.061  13.565  0.00  0.00    +0.000 C 
ATOM     31  O   UNL     1       5.888   3.716  13.319  0.00  0.00    +0.000 OA
ATOM     32  C   UNL     1       5.019   4.033  14.418  0.00  0.00    +0.000 C 
ATOM     33  C   UNL     1       5.133   5.499  14.823  0.00  0.00    +0.000 C 
ENDBRANCH  25  28
ENDBRANCH   3  25
TORSDOF 6
ENDMDL
MODEL 5
REMARK VINA RESULT:      -7.8      3.141      5.877
REMARK  Name = 
REMARK  8 active torsions:
REMARK  status: ('A' for Active; 'I' for Inactive)
REMARK    1  A    between atoms: C_1  and  C_2
REMARK    2  A    between atoms: C_4  and  C_5
REMARK    3  A    between atoms: N_7  and  C_8
REMARK    4  A    between atoms: C_8  and  C_9
REMARK    5  A    between atoms: N_11  and  C_12
REMARK    6  A    between atoms: C_14  and  S_15
REMARK    7  A    between atoms: S_15  and  N_18
REMARK    8  A    between atoms: C_26  and  N_27
REMARK                            x       y       z     vdW  Elec       q    Type
REMARK                         _______ _______ _______ _____ _____    ______ ____
ROOT
ATOM      1  C   UNL     1       0.871   9.085  20.389  0.00  0.00    +0.000 A 
ATOM      2  C   UNL     1       1.336   7.765  20.550  0.00  0.00    +0.000 A 
ATOM      3  C   UNL     1       2.210   7.218  19.603  0.00  0.00    +0.000 A 
ATOM      4  C   UNL     1       2.524   7.947  18.457  0.00  0.00    +0.000 A 
ATOM      5  C   UNL     1       2.096   9.271  18.324  0.00  0.00    +0.000 A 
ATOM      6  C   UNL     1       1.298   9.894  19.298  0.00  0.00    +0.000 A 
ENDROOT
BRANCH   6   7
ATOM      7  N   UNL     1       0.969  11.267  19.253  0.00  0.00    +0.000 N 
ATOM      8  C   UNL     1       0.965  12.008  17.980  0.00  0.00    +0.000 C 
ATOM      9  C   UNL     1       2.141  12.970  18.077  0.00  0.00    +0.000 C 
ATOM     10  C   UNL     1       2.154  13.349  19.544  0.00  0.00    +0.000 C 
ATOM     11  C   UNL     1       1.701  12.079  20.264  0.00  0.00    +0.000 C 
ENDBRANCH   6   7
BRANCH   1  14
ATOM     12  C   UNL     1       0.097   9.867  22.609  0.00  0.00    +0.000 C 
ATOM     13  O   UNL     1       1.183   9.741  23.180  0.00  0.00    +0.000 OA
ATOM     14  N   UNL     1      -0.102   9.622  21.267  0.00  0.00    +0.000 N 
ATOM     15  H   UNL     1      -0.888  10.084  20.820  0.00  0.00    +0.000 HD
BRANCH  12  16
ATOM     16  C   UNL     1      -1.115  10.456  23.351  0.00  0.00    +0.000 C 
BRANCH  16  23
ATOM     17  C   UNL     1      -1.440  13.968  20.540  0.00  0.00    +0.000 C 
ATOM     18  C   UNL     1      -1.322  14.051  22.065  0.00  0.00    +0.000 C 
ATOM     19  C   UNL     1      -2.654  14.430  22.719  0.00  0.00    +0.000 C 
ATOM     20  C   UNL     1      -3.634  13.256  22.710  0.00  0.00    +0.000 C 
ATOM     21  C   UNL     1      -4.931  13.626  23.425  0.00  0.00    +0.000 C 
ATOM     22  C   UNL     1      -2.984  12.022  23.372  0.00  0.00    +0.000 C 
ATOM     23  N   UNL     1      -1.750  11.620  22.668  0.00  0.00    +0.000 NA
ATOM     24  C   UNL     1      -0.779  12.742  22.675  0.00  0.00    +0.000 C 
ENDBRANCH  16  23
ENDBRANCH  12  16
ENDBRANCH   1  14
BRANCH   3  25
ATOM     25  S   UNL     1       2.825   5.552  19.752  0.00  0.00    +0.000 S 
ATOM     26  O   UNL     1       4.267   5.616  19.763  0.00  0.00    +0.000 OA
ATOM     27  O   UNL     1       2.103   4.942  20.855  0.00  0.00    +0.000 OA
BRANCH  25  28
ATOM     28  N   UNL     1       2.343   4.753  18.344  0.00  0.00    +0.000 NA
ATOM     29  C   UNL     1       3.334   4.365  17.310  0.00  0.00    +0.000 C 
ATOM     30  C   UNL     1       3.785   2.910  17.485  0.00  0.00    +0.000 C 
ATOM     31  O   UNL     1       2.690   1.990  17.609  0.00  0.00    +0.000 OA
ATOM     32  C   UNL     1       1.741   2.371  18.617  0.00  0.00    +0.000 C 
ATOM     33  C   UNL     1       1.222   3.789  18.396  0.00  0.00    +0.000 C 
ENDBRANCH  25  28
ENDBRANCH   3  25
TORSDOF 6
ENDMDL
MODEL 6
REMARK VINA RESULT:      -7.8      1.489      2.298
REMARK  Name = 
REMARK  8 active torsions:
REMARK  status: ('A' for Active; 'I' for Inactive)
REMARK    1  A    between atoms: C_1  and  C_2
REMARK    2  A    between atoms: C_4  and  C_5
REMARK    3  A    between atoms: N_7  and  C_8
REMARK    4  A    between atoms: C_8  and  C_9
REMARK    5  A    between atoms: N_11  and  C_12
REMARK    6  A    between atoms: C_14  and  S_15
REMARK    7  A    between atoms: S_15  and  N_18
REMARK    8  A    between atoms: C_26  and  N_27
REMARK                            x       y       z     vdW  Elec       q    Type
REMARK                         _______ _______ _______ _____ _____    ______ ____
ROOT
ATOM      1  C   UNL     1       3.012   6.466  18.685  0.00  0.00    +0.000 A 
ATOM      2  C   UNL     1       3.905   6.846  17.665  0.00  0.00    +0.000 A 
ATOM      3  C   UNL     1       4.762   5.893  17.102  0.00  0.00    +0.000 A 
ATOM      4  C   UNL     1       4.796   4.604  17.631  0.00  0.00    +0.000 A 
ATOM      5  C   UNL     1       3.878   4.219  18.613  0.00  0.00    +0.000 A 
ATOM      6  C   UNL     1       2.934   5.118  19.137  0.00  0.00    +0.000 A 
ENDROOT
BRANCH   6   7
ATOM      7  N   UNL     1       1.911   4.719  20.025  0.00  0.00    +0.000 N 
ATOM      8  C   UNL     1       2.188   4.483  21.452  0.00  0.00    +0.000 C 
ATOM      9  C   UNL     1       2.032   2.981  21.644  0.00  0.00    +0.000 C 
ATOM     10  C   UNL     1       0.906   2.629  20.694  0.00  0.00    +0.000 C 
ATOM     11  C   UNL     1       1.101   3.580  19.512  0.00  0.00    +0.000 C 
ENDBRANCH   6   7
BRANCH   1  14
ATOM     12  C   UNL     1       1.787   8.616  18.794  0.00  0.00    +0.000 C 
ATOM     13  O   UNL     1       1.958   8.927  17.612  0.00  0.00    +0.000 OA
ATOM     14  N   UNL     1       2.219   7.431  19.350  0.00  0.00    +0.000 N 
ATOM     15  H   UNL     1       1.737   7.104  20.183  0.00  0.00    +0.000 HD
BRANCH  12  16
ATOM     16  C   UNL     1       0.934   9.500  19.721  0.00  0.00    +0.000 C 
BRANCH  16  23
ATOM     17  C   UNL     1      -0.431  13.588  18.391  0.00  0.00    +0.000 C 
ATOM     18  C   UNL     1      -1.154  12.687  19.396  0.00  0.00    +0.000 C 
ATOM     19  C   UNL     1      -2.410  12.052  18.791  0.00  0.00    +0.000 C 
ATOM     20  C   UNL     1      -2.054  10.929  17.816  0.00  0.00    +0.000 C 
ATOM     21  C   UNL     1      -3.314  10.261  17.274  0.00  0.00    +0.000 C 
ATOM     22  C   UNL     1      -1.149   9.892  18.515  0.00  0.00    +0.000 C 
ATOM     23  N   UNL     1       0.098  10.510  19.009  0.00  0.00    +0.000 NA
ATOM     24  C   UNL     1      -0.225  11.596  19.967  0.00  0.00    +0.000 C 
ENDBRANCH  16  23
ENDBRANCH  12  16
ENDBRANCH   1  14
BRANCH   3  25
ATOM     25  S   UNL     1       5.916   6.319  15.814  0.00  0.00    +0.000 S 
ATOM     26  O   UNL     1       5.179   6.987  14.767  0.00  0.00    +0.000 OA
ATOM     27  O   UNL     1       7.038   6.975  16.463  0.00  0.00    +0.000 OA
BRANCH  25  28
ATOM     28  N   UNL     1       6.489   4.853  15.201  0.00  0.00    +0.000 NA
ATOM     29  C   UNL     1       5.552   3.816  14.702  0.00  0.00    +0.000 C 
ATOM     30  C   UNL     1       5.375   3.905  13.182  0.00  0.00    +0.000 C 
ATOM     31  O   UNL     1       6.622   3.947  12.470  0.00  0.00    +0.000 OA
ATOM     32  C   UNL     1       7.518   4.958  12.956  0.00  0.00    +0.000 C 
ATOM     33  C   UNL     1       7.766   4.819  14.455  0.00  0.00    +0.000 C 
ENDBRANCH  25  28
ENDBRANCH   3  25
TORSDOF 6
ENDMDL
MODEL 7
REMARK VINA RESULT:      -7.7      1.803      2.916
REMARK  Name = 
REMARK  8 active torsions:
REMARK  status: ('A' for Active; 'I' for Inactive)
REMARK    1  A    between atoms: C_1  and  C_2
REMARK    2  A    between atoms: C_4  and  C_5
REMARK    3  A    between atoms: N_7  and  C_8
REMARK    4  A    between atoms: C_8  and  C_9
REMARK    5  A    between atoms: N_11  and  C_12
REMARK    6  A    between atoms: C_14  and  S_15
REMARK    7  A    between atoms: S_15  and  N_18
REMARK    8  A    between atoms: C_26  and  N_27
REMARK                            x       y       z     vdW  Elec       q    Type
REMARK                         _______ _______ _______ _____ _____    ______ ____
ROOT
ATOM      1  C   UNL     1       3.492   6.250  18.561  0.00  0.00    +0.000 A 
ATOM      2  C   UNL     1       4.610   6.479  17.736  0.00  0.00    +0.000 A 
ATOM      3  C   UNL     1       5.668   5.563  17.730  0.00  0.00    +0.000 A 
ATOM      4  C   UNL     1       5.651   4.491  18.621  0.00  0.00    +0.000 A 
ATOM      5  C   UNL     1       4.521   4.243  19.406  0.00  0.00    +0.000 A 
ATOM      6  C   UNL     1       3.396   5.083  19.371  0.00  0.00    +0.000 A 
ENDROOT
BRANCH   6   7
ATOM      7  N   UNL     1       2.194   4.778  20.048  0.00  0.00    +0.000 N 
ATOM      8  C   UNL     1       2.202   4.326  21.449  0.00  0.00    +0.000 C 
ATOM      9  C   UNL     1       1.770   2.868  21.399  0.00  0.00    +0.000 C 
ATOM     10  C   UNL     1       0.763   2.848  20.267  0.00  0.00    +0.000 C 
ATOM     11  C   UNL     1       1.296   3.879  19.273  0.00  0.00    +0.000 C 
ENDBRANCH   6   7
BRANCH   1  14
ATOM     12  C   UNL     1       2.314   8.308  17.845  0.00  0.00    +0.000 C 
ATOM     13  O   UNL     1       3.003   8.514  16.843  0.00  0.00    +0.000 OA
ATOM     14  N   UNL     1       2.464   7.216  18.673  0.00  0.00    +0.000 N 
ATOM     15  H   UNL     1       1.660   6.938  19.228  0.00  0.00    +0.000 HD
BRANCH  12  16
ATOM     16  C   UNL     1       1.114   9.214  18.170  0.00  0.00    +0.000 C 
BRANCH  16  23
ATOM     17  C   UNL     1       0.805   9.350  22.668  0.00  0.00    +0.000 C 
ATOM     18  C   UNL     1      -0.205   9.947  21.684  0.00  0.00    +0.000 C 
ATOM     19  C   UNL     1      -0.110  11.475  21.627  0.00  0.00    +0.000 C 
ATOM     20  C   UNL     1       1.131  11.930  20.858  0.00  0.00    +0.000 C 
ATOM     21  C   UNL     1       1.176  13.451  20.750  0.00  0.00    +0.000 C 
ATOM     22  C   UNL     1       1.145  11.287  19.454  0.00  0.00    +0.000 C 
ATOM     23  N   UNL     1       1.146   9.812  19.536  0.00  0.00    +0.000 NA
ATOM     24  C   UNL     1      -0.058   9.349  20.270  0.00  0.00    +0.000 C 
ENDBRANCH  16  23
ENDBRANCH  12  16
ENDBRANCH   1  14
BRANCH   3  25
ATOM     25  S   UNL     1       7.109   5.806  16.711  0.00  0.00    +0.000 S 
ATOM     26  O   UNL     1       7.649   7.109  17.017  0.00  0.00    +0.000 OA
ATOM     27  O   UNL     1       7.925   4.614  16.857  0.00  0.00    +0.000 OA
BRANCH  25  28
ATOM     28  N   UNL     1       6.549   5.829  15.117  0.00  0.00    +0.000 NA
ATOM     29  C   UNL     1       7.463   5.544  13.983  0.00  0.00    +0.000 C 
ATOM     30  C   UNL     1       7.381   4.075  13.552  0.00  0.00    +0.000 C 
ATOM     31  O   UNL     1       6.036   3.624  13.335  0.00  0.00    +0.000 OA
ATOM     32  C   UNL     1       5.162   3.898  14.442  0.00  0.00    +0.000 C 
ATOM     33  C   UNL     1       5.173   5.376  14.817  0.00  0.00    +0.000 C 
ENDBRANCH  25  28
ENDBRANCH   3  25
TORSDOF 6
ENDMDL
MODEL 8
REMARK VINA RESULT:      -7.6      2.935      5.723
REMARK  Name = 
REMARK  8 active torsions:
REMARK  status: ('A' for Active; 'I' for Inactive)
REMARK    1  A    between atoms: C_1  and  C_2
REMARK    2  A    between atoms: C_4  and  C_5
REMARK    3  A    between atoms: N_7  and  C_8
REMARK    4  A    between atoms: C_8  and  C_9
REMARK    5  A    between atoms: N_11  and  C_12
REMARK    6  A    between atoms: C_14  and  S_15
REMARK    7  A    between atoms: S_15  and  N_18
REMARK    8  A    between atoms: C_26  and  N_27
REMARK                            x       y       z     vdW  Elec       q    Type
REMARK                         _______ _______ _______ _____ _____    ______ ____
ROOT
ATOM      1  C   UNL     1       0.757   9.612  20.108  0.00  0.00    +0.000 A 
ATOM      2  C   UNL     1       1.178   8.269  20.044  0.00  0.00    +0.000 A 
ATOM      3  C   UNL     1       2.032   7.858  19.014  0.00  0.00    +0.000 A 
ATOM      4  C   UNL     1       2.370   8.757  18.004  0.00  0.00    +0.000 A 
ATOM      5  C   UNL     1       1.987  10.098  18.095  0.00  0.00    +0.000 A 
ATOM      6  C   UNL     1       1.210  10.576  19.164  0.00  0.00    +0.000 A 
ENDROOT
BRANCH   6   7
ATOM      7  N   UNL     1       0.928  11.948  19.350  0.00  0.00    +0.000 N 
ATOM      8  C   UNL     1       0.778  12.858  18.201  0.00  0.00    +0.000 C 
ATOM      9  C   UNL     1       1.990  13.776  18.261  0.00  0.00    +0.000 C 
ATOM     10  C   UNL     1       2.215  13.949  19.749  0.00  0.00    +0.000 C 
ATOM     11  C   UNL     1       1.819  12.600  20.349  0.00  0.00    +0.000 C 
ENDBRANCH   6   7
BRANCH   1  14
ATOM     12  C   UNL     1       0.028  10.089  22.427  0.00  0.00    +0.000 C 
ATOM     13  O   UNL     1       1.124   9.884  22.956  0.00  0.00    +0.000 OA
ATOM     14  N   UNL     1      -0.196  10.027  21.069  0.00  0.00    +0.000 N 
ATOM     15  H   UNL     1      -0.989  10.548  20.703  0.00  0.00    +0.000 HD
BRANCH  12  16
ATOM     16  C   UNL     1      -1.167  10.574  23.266  0.00  0.00    +0.000 C 
BRANCH  16  23
ATOM     17  C   UNL     1      -1.715  14.301  20.784  0.00  0.00    +0.000 C 
ATOM     18  C   UNL     1      -1.547  14.256  22.306  0.00  0.00    +0.000 C 
ATOM     19  C   UNL     1      -2.869  14.524  23.032  0.00  0.00    +0.000 C 
ATOM     20  C   UNL     1      -3.806  13.319  22.952  0.00  0.00    +0.000 C 
ATOM     21  C   UNL     1      -5.089  13.575  23.737  0.00  0.00    +0.000 C 
ATOM     22  C   UNL     1      -3.089  12.058  23.482  0.00  0.00    +0.000 C 
ATOM     23  N   UNL     1      -1.867  11.767  22.707  0.00  0.00    +0.000 NA
ATOM     24  C   UNL     1      -0.937  12.922  22.782  0.00  0.00    +0.000 C 
ENDBRANCH  16  23
ENDBRANCH  12  16
ENDBRANCH   1  14
BRANCH   3  25
ATOM     25  S   UNL     1       2.590   6.172  18.881  0.00  0.00    +0.000 S 
ATOM     26  O   UNL     1       2.466   5.564  20.184  0.00  0.00    +0.000 OA
ATOM     27  O   UNL     1       1.912   5.601  17.730  0.00  0.00    +0.000 OA
BRANCH  25  28
ATOM     28  N   UNL     1       4.232   6.257  18.493  0.00  0.00    +0.000 NA
ATOM     29  C   UNL     1       5.234   5.449  19.232  0.00  0.00    +0.000 C 
ATOM     30  C   UNL     1       5.554   4.143  18.494  0.00  0.00    +0.000 C 
ATOM     31  O   UNL     1       5.880   4.341  17.110  0.00  0.00    +0.000 OA
ATOM     32  C   UNL     1       4.900   5.119  16.404  0.00  0.00    +0.000 C 
ATOM     33  C   UNL     1       4.644   6.459  17.087  0.00  0.00    +0.000 C 
ENDBRANCH  25  28
ENDBRANCH   3  25
TORSDOF 6
ENDMDL
MODEL 9
REMARK VINA RESULT:      -7.6      1.596      2.671
REMARK  Name = 
REMARK  8 active torsions:
REMARK  status: ('A' for Active; 'I' for Inactive)
REMARK    1  A    between atoms: C_1  and  C_2
REMARK    2  A    between atoms: C_4  and  C_5
REMARK    3  A    between atoms: N_7  and  C_8
REMARK    4  A    between atoms: C_8  and  C_9
REMARK    5  A    between atoms: N_11  and  C_12
REMARK    6  A    between atoms: C_14  and  S_15
REMARK    7  A    between atoms: S_15  and  N_18
REMARK    8  A    between atoms: C_26  and  N_27
REMARK                            x       y       z     vdW  Elec       q    Type
REMARK                         _______ _______ _______ _____ _____    ______ ____
ROOT
ATOM      1  C   UNL     1       3.121   6.586  18.272  0.00  0.00    +0.000 A 
ATOM      2  C   UNL     1       4.362   6.975  17.732  0.00  0.00    +0.000 A 
ATOM      3  C   UNL     1       5.520   6.269  18.076  0.00  0.00    +0.000 A 
ATOM      4  C   UNL     1       5.448   5.257  19.032  0.00  0.00    +0.000 A 
ATOM      5  C   UNL     1       4.209   4.845  19.532  0.00  0.00    +0.000 A 
ATOM      6  C   UNL     1       3.009   5.462  19.139  0.00  0.00    +0.000 A 
ENDROOT
BRANCH   6   7
ATOM      7  N   UNL     1       1.740   4.976  19.522  0.00  0.00    +0.000 N 
ATOM      8  C   UNL     1       1.444   4.640  20.925  0.00  0.00    +0.000 C 
ATOM      9  C   UNL     1       1.298   3.125  20.947  0.00  0.00    +0.000 C 
ATOM     10  C   UNL     1       0.656   2.823  19.609  0.00  0.00    +0.000 C 
ATOM     11  C   UNL     1       1.253   3.863  18.662  0.00  0.00    +0.000 C 
ENDBRANCH   6   7
BRANCH   1  14
ATOM     12  C   UNL     1       1.900   8.729  18.043  0.00  0.00    +0.000 C 
ATOM     13  O   UNL     1       2.888   9.459  18.162  0.00  0.00    +0.000 OA
ATOM     14  N   UNL     1       1.954   7.352  18.033  0.00  0.00    +0.000 N 
ATOM     15  H   UNL     1       1.191   6.859  17.579  0.00  0.00    +0.000 HD
BRANCH  12  16
ATOM     16  C   UNL     1       0.513   9.330  17.753  0.00  0.00    +0.000 C 
BRANCH  16  23
ATOM     17  C   UNL     1      -1.910  12.387  20.017  0.00  0.00    +0.000 C 
ATOM     18  C   UNL     1      -0.387  12.232  20.075  0.00  0.00    +0.000 C 
ATOM     19  C   UNL     1       0.071  11.595  21.391  0.00  0.00    +0.000 C 
ATOM     20  C   UNL     1      -0.232  10.096  21.421  0.00  0.00    +0.000 C 
ATOM     21  C   UNL     1       0.291   9.463  22.707  0.00  0.00    +0.000 C 
ATOM     22  C   UNL     1       0.390   9.409  20.187  0.00  0.00    +0.000 C 
ATOM     23  N   UNL     1      -0.136   9.977  18.930  0.00  0.00    +0.000 NA
ATOM     24  C   UNL     1       0.158  11.431  18.875  0.00  0.00    +0.000 C 
ENDBRANCH  16  23
ENDBRANCH  12  16
ENDBRANCH   1  14
BRANCH   3  25
ATOM     25  S   UNL     1       7.117   6.721  17.428  0.00  0.00    +0.000 S 
ATOM     26  O   UNL     1       7.006   8.048  16.872  0.00  0.00    +0.000 OA
ATOM     27  O   UNL     1       8.084   6.436  18.473  0.00  0.00    +0.000 OA
BRANCH  25  28
ATOM     28  N   UNL     1       7.425   5.643  16.163  0.00  0.00    +0.000 NA
ATOM     29  C   UNL     1       7.389   4.176  16.385  0.00  0.00    +0.000 C 
ATOM     30  C   UNL     1       6.027   3.585  16.004  0.00  0.00    +0.000 C 
ATOM     31  O   UNL     1       5.584   3.982  14.698  0.00  0.00    +0.000 OA
ATOM     32  C   UNL     1       5.615   5.404  14.497  0.00  0.00    +0.000 C 
ATOM     33  C   UNL     1       6.995   5.985  14.789  0.00  0.00    +0.000 C 
ENDBRANCH  25  28
ENDBRANCH   3  25
TORSDOF 6
ENDMDL
