MODEL 1
REMARK VINA RESULT:      -7.0      0.000      0.000
REMARK  Name = 
REMARK  2 active torsions:
REMARK  status: ('A' for Active; 'I' for Inactive)
REMARK    1  A    between atoms: N_1  and  C_2
REMARK    2  A    between atoms: C_5  and  C_6
REMARK                            x       y       z     vdW  Elec       q    Type
REMARK                         _______ _______ _______ _____ _____    ______ ____
ROOT
ATOM      1  C   UNL     1       7.091   5.000  14.711  0.00  0.00    +0.000 A 
ATOM      2  C   UNL     1       5.869   4.399  14.410  0.00  0.00    +0.000 A 
ATOM      3  C   UNL     1       4.966   4.053  15.423  0.00  0.00    +0.000 A 
ATOM      4  C   UNL     1       5.254   4.341  16.764  0.00  0.00    +0.000 A 
ATOM      5  C   UNL     1       6.466   4.987  17.055  0.00  0.00    +0.000 A 
ATOM      6  C   UNL     1       7.359   5.332  16.037  0.00  0.00    +0.000 A 
ENDROOT
BRANCH   4   7
ATOM      7  C   UNL     1       4.306   3.984  17.826  0.00  0.00    +0.000 A 
ATOM      8  C   UNL     1       4.522   3.345  19.032  0.00  0.00    +0.000 A 
ATOM      9  N   UNL     1       3.363   3.204  19.769  0.00  0.00    +0.000 N 
ATOM     10  C   UNL     1       3.317   2.565  21.125  0.00  0.00    +0.000 A 
ATOM     11  C   UNL     1       2.078   2.507  21.745  0.00  0.00    +0.000 A 
ATOM     12  C   UNL     1       0.948   3.027  21.117  0.00  0.00    +0.000 A 
ATOM     13  C   UNL     1       1.014   3.619  19.853  0.00  0.00    +0.000 A 
ATOM     14  C   UNL     1       2.257   3.682  19.211  0.00  0.00    +0.000 A 
ATOM     15  S   UNL     1       2.627   4.337  17.667  0.00  0.00    +0.000 S 
ENDBRANCH   4   7
BRANCH   1  16
ATOM     16  N   UNL     1       7.918   5.474  13.692  0.00  0.00    +0.000 N 
ATOM     17  H   UNL     1       8.546   4.782  13.296  0.00  0.00    +0.000 HD
ATOM     18  H   UNL     1       8.393   6.345  13.903  0.00  0.00    +0.000 HD
ENDBRANCH   1  16
TORSDOF 2
ENDMDL
MODEL 2
REMARK VINA RESULT:      -6.9      0.132      1.198
REMARK  Name = 
REMARK  2 active torsions:
REMARK  status: ('A' for Active; 'I' for Inactive)
REMARK    1  A    between atoms: N_1  and  C_2
REMARK    2  A    between atoms: C_5  and  C_6
REMARK                            x       y       z     vdW  Elec       q    Type
REMARK                         _______ _______ _______ _____ _____    ______ ____
ROOT
ATOM      1  C   UNL     1       7.015   5.167  14.711  0.00  0.00    +0.000 A 
ATOM      2  C   UNL     1       7.208   5.595  16.025  0.00  0.00    +0.000 A 
ATOM      3  C   UNL     1       6.310   5.239  17.039  0.00  0.00    +0.000 A 
ATOM      4  C   UNL     1       5.216   4.407  16.763  0.00  0.00    +0.000 A 
ATOM      5  C   UNL     1       5.054   3.944  15.448  0.00  0.00    +0.000 A 
ATOM      6  C   UNL     1       5.957   4.301  14.443  0.00  0.00    +0.000 A 
ENDROOT
BRANCH   4   7
ATOM      7  C   UNL     1       4.277   4.028  17.826  0.00  0.00    +0.000 A 
ATOM      8  C   UNL     1       4.505   3.377  19.023  0.00  0.00    +0.000 A 
ATOM      9  N   UNL     1       3.352   3.215  19.764  0.00  0.00    +0.000 N 
ATOM     10  C   UNL     1       3.319   2.559  21.111  0.00  0.00    +0.000 A 
ATOM     11  C   UNL     1       2.083   2.482  21.737  0.00  0.00    +0.000 A 
ATOM     12  C   UNL     1       0.945   2.998  21.121  0.00  0.00    +0.000 A 
ATOM     13  C   UNL     1       0.999   3.606  19.864  0.00  0.00    +0.000 A 
ATOM     14  C   UNL     1       2.238   3.689  19.217  0.00  0.00    +0.000 A 
ATOM     15  S   UNL     1       2.594   4.366  17.678  0.00  0.00    +0.000 S 
ENDBRANCH   4   7
BRANCH   1  16
ATOM     16  N   UNL     1       7.987   5.403  13.739  0.00  0.00    +0.000 N 
ATOM     17  H   UNL     1       8.824   4.834  13.825  0.00  0.00    +0.000 HD
ATOM     18  H   UNL     1       8.205   6.382  13.587  0.00  0.00    +0.000 HD
ENDBRANCH   1  16
TORSDOF 2
ENDMDL
MODEL 3
REMARK VINA RESULT:      -6.7      1.023      1.523
REMARK  Name = 
REMARK  2 active torsions:
REMARK  status: ('A' for Active; 'I' for Inactive)
REMARK    1  A    between atoms: N_1  and  C_2
REMARK    2  A    between atoms: C_5  and  C_6
REMARK                            x       y       z     vdW  Elec       q    Type
REMARK                         _______ _______ _______ _____ _____    ______ ____
ROOT
ATOM      1  C   UNL     1       7.199   5.028  14.512  0.00  0.00    +0.000 A 
ATOM      2  C   UNL     1       6.039   4.325  14.185  0.00  0.00    +0.000 A 
ATOM      3  C   UNL     1       5.106   3.976  15.169  0.00  0.00    +0.000 A 
ATOM      4  C   UNL     1       5.297   4.362  16.502  0.00  0.00    +0.000 A 
ATOM      5  C   UNL     1       6.444   5.108  16.816  0.00  0.00    +0.000 A 
ATOM      6  C   UNL     1       7.368   5.455  15.827  0.00  0.00    +0.000 A 
ENDROOT
BRANCH   4   7
ATOM      7  C   UNL     1       4.317   4.002  17.534  0.00  0.00    +0.000 A 
ATOM      8  C   UNL     1       2.984   3.661  17.413  0.00  0.00    +0.000 A 
ATOM      9  N   UNL     1       2.400   3.373  18.631  0.00  0.00    +0.000 N 
ATOM     10  C   UNL     1       0.968   2.955  18.784  0.00  0.00    +0.000 A 
ATOM     11  C   UNL     1       0.531   2.690  20.073  0.00  0.00    +0.000 A 
ATOM     12  C   UNL     1       1.401   2.811  21.154  0.00  0.00    +0.000 A 
ATOM     13  C   UNL     1       2.732   3.202  20.988  0.00  0.00    +0.000 A 
ATOM     14  C   UNL     1       3.189   3.478  19.694  0.00  0.00    +0.000 A 
ATOM     15  S   UNL     1       4.756   3.983  19.201  0.00  0.00    +0.000 S 
ENDBRANCH   4   7
BRANCH   1  16
ATOM     16  N   UNL     1       8.049   5.498  13.511  0.00  0.00    +0.000 N 
ATOM     17  H   UNL     1       7.701   6.301  12.997  0.00  0.00    +0.000 HD
ATOM     18  H   UNL     1       8.415   4.779  12.894  0.00  0.00    +0.000 HD
ENDBRANCH   1  16
TORSDOF 2
ENDMDL
MODEL 4
REMARK VINA RESULT:      -6.5      1.041      1.077
REMARK  Name = 
REMARK  2 active torsions:
REMARK  status: ('A' for Active; 'I' for Inactive)
REMARK    1  A    between atoms: N_1  and  C_2
REMARK    2  A    between atoms: C_5  and  C_6
REMARK                            x       y       z     vdW  Elec       q    Type
REMARK                         _______ _______ _______ _____ _____    ______ ____
ROOT
ATOM      1  C   UNL     1       7.304   5.123  14.328  0.00  0.00    +0.000 A 
ATOM      2  C   UNL     1       6.142   4.411  14.027  0.00  0.00    +0.000 A 
ATOM      3  C   UNL     1       5.184   4.143  15.013  0.00  0.00    +0.000 A 
ATOM      4  C   UNL     1       5.353   4.622  16.319  0.00  0.00    +0.000 A 
ATOM      5  C   UNL     1       6.502   5.376  16.603  0.00  0.00    +0.000 A 
ATOM      6  C   UNL     1       7.451   5.642  15.613  0.00  0.00    +0.000 A 
ENDROOT
BRANCH   4   7
ATOM      7  C   UNL     1       4.347   4.347  17.352  0.00  0.00    +0.000 A 
ATOM      8  C   UNL     1       3.826   3.145  17.789  0.00  0.00    +0.000 A 
ATOM      9  N   UNL     1       2.900   3.306  18.800  0.00  0.00    +0.000 N 
ATOM     10  C   UNL     1       2.196   2.163  19.468  0.00  0.00    +0.000 A 
ATOM     11  C   UNL     1       1.300   2.487  20.475  0.00  0.00    +0.000 A 
ATOM     12  C   UNL     1       1.084   3.817  20.830  0.00  0.00    +0.000 A 
ATOM     13  C   UNL     1       1.750   4.867  20.193  0.00  0.00    +0.000 A 
ATOM     14  C   UNL     1       2.656   4.558  19.171  0.00  0.00    +0.000 A 
ATOM     15  S   UNL     1       3.598   5.635  18.220  0.00  0.00    +0.000 S 
ENDBRANCH   4   7
BRANCH   1  16
ATOM     16  N   UNL     1       8.180   5.511  13.314  0.00  0.00    +0.000 N 
ATOM     17  H   UNL     1       8.278   4.843  12.556  0.00  0.00    +0.000 HD
ATOM     18  H   UNL     1       9.078   5.855  13.639  0.00  0.00    +0.000 HD
ENDBRANCH   1  16
TORSDOF 2
ENDMDL
MODEL 5
REMARK VINA RESULT:      -6.5      1.116      1.681
REMARK  Name = 
REMARK  2 active torsions:
REMARK  status: ('A' for Active; 'I' for Inactive)
REMARK    1  A    between atoms: N_1  and  C_2
REMARK    2  A    between atoms: C_5  and  C_6
REMARK                            x       y       z     vdW  Elec       q    Type
REMARK                         _______ _______ _______ _____ _____    ______ ____
ROOT
ATOM      1  C   UNL     1       7.151   5.232  14.414  0.00  0.00    +0.000 A 
ATOM      2  C   UNL     1       7.300   5.804  15.678  0.00  0.00    +0.000 A 
ATOM      3  C   UNL     1       6.405   5.508  16.713  0.00  0.00    +0.000 A 
ATOM      4  C   UNL     1       5.360   4.596  16.513  0.00  0.00    +0.000 A 
ATOM      5  C   UNL     1       5.244   3.990  15.252  0.00  0.00    +0.000 A 
ATOM      6  C   UNL     1       6.144   4.289  14.225  0.00  0.00    +0.000 A 
ENDROOT
BRANCH   4   7
ATOM      7  C   UNL     1       4.424   4.279  17.599  0.00  0.00    +0.000 A 
ATOM      8  C   UNL     1       3.594   3.188  17.767  0.00  0.00    +0.000 A 
ATOM      9  N   UNL     1       2.869   3.253  18.941  0.00  0.00    +0.000 N 
ATOM     10  C   UNL     1       1.908   2.189  19.379  0.00  0.00    +0.000 A 
ATOM     11  C   UNL     1       1.262   2.393  20.590  0.00  0.00    +0.000 A 
ATOM     12  C   UNL     1       1.515   3.538  21.342  0.00  0.00    +0.000 A 
ATOM     13  C   UNL     1       2.415   4.517  20.914  0.00  0.00    +0.000 A 
ATOM     14  C   UNL     1       3.073   4.329  19.692  0.00  0.00    +0.000 A 
ATOM     15  S   UNL     1       4.211   5.362  18.923  0.00  0.00    +0.000 S 
ENDBRANCH   4   7
BRANCH   1  16
ATOM     16  N   UNL     1       8.127   5.417  13.433  0.00  0.00    +0.000 N 
ATOM     17  H   UNL     1       8.636   4.578  13.174  0.00  0.00    +0.000 HD
ATOM     18  H   UNL     1       8.745   6.206  13.595  0.00  0.00    +0.000 HD
ENDBRANCH   1  16
TORSDOF 2
ENDMDL
MODEL 6
REMARK VINA RESULT:      -6.3      3.825      4.343
REMARK  Name = 
REMARK  2 active torsions:
REMARK  status: ('A' for Active; 'I' for Inactive)
REMARK    1  A    between atoms: N_1  and  C_2
REMARK    2  A    between atoms: C_5  and  C_6
REMARK                            x       y       z     vdW  Elec       q    Type
REMARK                         _______ _______ _______ _____ _____    ______ ____
ROOT
ATOM      1  C   UNL     1       5.748   4.370  15.407  0.00  0.00    +0.000 A 
ATOM      2  C   UNL     1       4.932   3.779  16.373  0.00  0.00    +0.000 A 
ATOM      3  C   UNL     1       4.143   4.559  17.227  0.00  0.00    +0.000 A 
ATOM      4  C   UNL     1       4.124   5.955  17.101  0.00  0.00    +0.000 A 
ATOM      5  C   UNL     1       4.912   6.539  16.097  0.00  0.00    +0.000 A 
ATOM      6  C   UNL     1       5.693   5.752  15.248  0.00  0.00    +0.000 A 
ENDROOT
BRANCH   4   7
ATOM      7  C   UNL     1       3.292   6.775  17.991  0.00  0.00    +0.000 A 
ATOM      8  C   UNL     1       2.727   8.018  17.784  0.00  0.00    +0.000 A 
ATOM      9  N   UNL     1       1.994   8.453  18.871  0.00  0.00    +0.000 N 
ATOM     10  C   UNL     1       1.260   9.759  18.905  0.00  0.00    +0.000 A 
ATOM     11  C   UNL     1       0.558  10.049  20.066  0.00  0.00    +0.000 A 
ATOM     12  C   UNL     1       0.552   9.152  21.132  0.00  0.00    +0.000 A 
ATOM     13  C   UNL     1       1.244   7.940  21.078  0.00  0.00    +0.000 A 
ATOM     14  C   UNL     1       1.961   7.632  19.915  0.00  0.00    +0.000 A 
ATOM     15  S   UNL     1       2.900   6.233  19.580  0.00  0.00    +0.000 S 
ENDBRANCH   4   7
BRANCH   1  16
ATOM     16  N   UNL     1       6.417   3.584  14.468  0.00  0.00    +0.000 N 
ATOM     17  H   UNL     1       6.163   3.764  13.502  0.00  0.00    +0.000 HD
ATOM     18  H   UNL     1       6.432   2.592  14.681  0.00  0.00    +0.000 HD
ENDBRANCH   1  16
TORSDOF 2
ENDMDL
MODEL 7
REMARK VINA RESULT:      -6.3      4.457      5.047
REMARK  Name = 
REMARK  2 active torsions:
REMARK  status: ('A' for Active; 'I' for Inactive)
REMARK    1  A    between atoms: N_1  and  C_2
REMARK    2  A    between atoms: C_5  and  C_6
REMARK                            x       y       z     vdW  Elec       q    Type
REMARK                         _______ _______ _______ _____ _____    ______ ____
ROOT
ATOM      1  C   UNL     1       4.986   4.510  16.546  0.00  0.00    +0.000 A 
ATOM      2  C   UNL     1       5.175   5.882  16.378  0.00  0.00    +0.000 A 
ATOM      3  C   UNL     1       4.378   6.809  17.060  0.00  0.00    +0.000 A 
ATOM      4  C   UNL     1       3.396   6.377  17.962  0.00  0.00    +0.000 A 
ATOM      5  C   UNL     1       3.242   4.996  18.160  0.00  0.00    +0.000 A 
ATOM      6  C   UNL     1       4.045   4.078  17.478  0.00  0.00    +0.000 A 
ENDROOT
BRANCH   4   7
ATOM      7  C   UNL     1       2.563   7.348  18.683  0.00  0.00    +0.000 A 
ATOM      8  C   UNL     1       2.115   7.338  19.989  0.00  0.00    +0.000 A 
ATOM      9  N   UNL     1       1.358   8.451  20.297  0.00  0.00    +0.000 N 
ATOM     10  C   UNL     1       0.766   8.701  21.651  0.00  0.00    +0.000 A 
ATOM     11  C   UNL     1       0.038   9.871  21.806  0.00  0.00    +0.000 A 
ATOM     12  C   UNL     1      -0.117  10.754  20.740  0.00  0.00    +0.000 A 
ATOM     13  C   UNL     1       0.444  10.501  19.486  0.00  0.00    +0.000 A 
ATOM     14  C   UNL     1       1.178   9.322  19.310  0.00  0.00    +0.000 A 
ATOM     15  S   UNL     1       1.962   8.755  17.890  0.00  0.00    +0.000 S 
ENDBRANCH   4   7
BRANCH   1  16
ATOM     16  N   UNL     1       5.876   3.597  15.979  0.00  0.00    +0.000 N 
ATOM     17  H   UNL     1       6.112   3.778  15.008  0.00  0.00    +0.000 HD
ATOM     18  H   UNL     1       5.643   2.622  16.140  0.00  0.00    +0.000 HD
ENDBRANCH   1  16
TORSDOF 2
ENDMDL
MODEL 8
REMARK VINA RESULT:      -6.3      3.975      4.545
REMARK  Name = 
REMARK  2 active torsions:
REMARK  status: ('A' for Active; 'I' for Inactive)
REMARK    1  A    between atoms: N_1  and  C_2
REMARK    2  A    between atoms: C_5  and  C_6
REMARK                            x       y       z     vdW  Elec       q    Type
REMARK                         _______ _______ _______ _____ _____    ______ ____
ROOT
ATOM      1  C   UNL     1       5.513   4.360  15.653  0.00  0.00    +0.000 A 
ATOM      2  C   UNL     1       5.577   5.750  15.554  0.00  0.00    +0.000 A 
ATOM      3  C   UNL     1       4.786   6.569  16.369  0.00  0.00    +0.000 A 
ATOM      4  C   UNL     1       3.938   6.008  17.334  0.00  0.00    +0.000 A 
ATOM      5  C   UNL     1       3.912   4.611  17.458  0.00  0.00    +0.000 A 
ATOM      6  C   UNL     1       4.709   3.801  16.644  0.00  0.00    +0.000 A 
ENDROOT
BRANCH   4   7
ATOM      7  C   UNL     1       3.112   6.866  18.193  0.00  0.00    +0.000 A 
ATOM      8  C   UNL     1       2.568   8.111  17.947  0.00  0.00    +0.000 A 
ATOM      9  N   UNL     1       1.833   8.587  19.014  0.00  0.00    +0.000 N 
ATOM     10  C   UNL     1       1.118   9.905  19.005  0.00  0.00    +0.000 A 
ATOM     11  C   UNL     1       0.412  10.238  20.150  0.00  0.00    +0.000 A 
ATOM     12  C   UNL     1       0.382   9.372  21.241  0.00  0.00    +0.000 A 
ATOM     13  C   UNL     1       1.055   8.147  21.227  0.00  0.00    +0.000 A 
ATOM     14  C   UNL     1       1.777   7.797  20.080  0.00  0.00    +0.000 A 
ATOM     15  S   UNL     1       2.697   6.375  19.792  0.00  0.00    +0.000 S 
ENDBRANCH   4   7
BRANCH   1  16
ATOM     16  N   UNL     1       6.407   3.557  14.944  0.00  0.00    +0.000 N 
ATOM     17  H   UNL     1       6.845   2.821  15.489  0.00  0.00    +0.000 HD
ATOM     18  H   UNL     1       7.079   4.068  14.381  0.00  0.00    +0.000 HD
ENDBRANCH   1  16
TORSDOF 2
ENDMDL
MODEL 9
REMARK VINA RESULT:      -6.2      4.199      4.700
REMARK  Name = 
REMARK  2 active torsions:
REMARK  status: ('A' for Active; 'I' for Inactive)
REMARK    1  A    between atoms: N_1  and  C_2
REMARK    2  A    between atoms: C_5  and  C_6
REMARK                            x       y       z     vdW  Elec       q    Type
REMARK                         _______ _______ _______ _____ _____    ______ ____
ROOT
ATOM      1  C   UNL     1       5.321   4.340  16.391  0.00  0.00    +0.000 A 
ATOM      2  C   UNL     1       4.312   3.887  17.242  0.00  0.00    +0.000 A 
ATOM      3  C   UNL     1       3.508   4.787  17.952  0.00  0.00    +0.000 A 
ATOM      4  C   UNL     1       3.674   6.170  17.792  0.00  0.00    +0.000 A 
ATOM      5  C   UNL     1       4.661   6.618  16.900  0.00  0.00    +0.000 A 
ATOM      6  C   UNL     1       5.455   5.712  16.193  0.00  0.00    +0.000 A 
ENDROOT
BRANCH   4   7
ATOM      7  C   UNL     1       2.829   7.115  18.531  0.00  0.00    +0.000 A 
ATOM      8  C   UNL     1       2.322   7.040  19.814  0.00  0.00    +0.000 A 
ATOM      9  N   UNL     1       1.574   8.150  20.152  0.00  0.00    +0.000 N 
ATOM     10  C   UNL     1       0.926   8.335  21.492  0.00  0.00    +0.000 A 
ATOM     11  C   UNL     1       0.215   9.510  21.683  0.00  0.00    +0.000 A 
ATOM     12  C   UNL     1       0.125  10.456  20.665  0.00  0.00    +0.000 A 
ATOM     13  C   UNL     1       0.737  10.263  19.423  0.00  0.00    +0.000 A 
ATOM     14  C   UNL     1       1.455   9.080  19.212  0.00  0.00    +0.000 A 
ATOM     15  S   UNL     1       2.291   8.579  17.797  0.00  0.00    +0.000 S 
ENDBRANCH   4   7
BRANCH   1  16
ATOM     16  N   UNL     1       6.017   3.445  15.579  0.00  0.00    +0.000 N 
ATOM     17  H   UNL     1       6.124   2.512  15.964  0.00  0.00    +0.000 HD
ATOM     18  H   UNL     1       6.889   3.805  15.203  0.00  0.00    +0.000 HD
ENDBRANCH   1  16
TORSDOF 2
ENDMDL
