MODEL 1
REMARK VINA RESULT:      -8.5      0.000      0.000
REMARK  Name = 
REMARK  4 active torsions:
REMARK  status: ('A' for Active; 'I' for Inactive)
REMARK    1  A    between atoms: C_2  and  C_3
REMARK    2  A    between atoms: C_8  and  C_10
REMARK    3  A    between atoms: C_10  and  N_11
REMARK    4  A    between atoms: C_12  and  C_14
REMARK                            x       y       z     vdW  Elec       q    Type
REMARK                         _______ _______ _______ _____ _____    ______ ____
ROOT
ATOM      1  N   UNL     1       3.366   5.951  20.034  0.00  0.00    +0.000 N 
ATOM      2  C   UNL     1       2.490   6.561  19.160  0.00  0.00    +0.000 C 
ATOM      3  O   UNL     1       2.244   6.121  18.042  0.00  0.00    +0.000 OA
ATOM      4  H   UNL     1       3.294   6.173  21.018  0.00  0.00    +0.000 HD
ENDROOT
BRANCH   2   5
ATOM      5  C   UNL     1       1.840   7.819  19.634  0.00  0.00    +0.000 A 
ATOM      6  C   UNL     1       1.682   8.927  18.796  0.00  0.00    +0.000 A 
ATOM      7  C   UNL     1       0.997  10.061  19.251  0.00  0.00    +0.000 A 
ATOM      8  C   UNL     1       0.455  10.104  20.546  0.00  0.00    +0.000 A 
ATOM      9  C   UNL     1      -0.249  11.229  21.010  0.00  0.00    +0.000 A 
ATOM     10  C   UNL     1      -0.790  11.253  22.296  0.00  0.00    +0.000 A 
ATOM     11  C   UNL     1      -0.630  10.156  23.138  0.00  0.00    +0.000 A 
ATOM     12  C   UNL     1       0.066   9.030  22.690  0.00  0.00    +0.000 A 
ATOM     13  C   UNL     1       0.613   8.986  21.397  0.00  0.00    +0.000 A 
ATOM     14  C   UNL     1       1.301   7.853  20.928  0.00  0.00    +0.000 A 
ENDBRANCH   2   5
BRANCH   1  15
ATOM     15  C   UNL     1       4.040   4.714  19.674  0.00  0.00    +0.000 C 
BRANCH  15  21
ATOM     16  C   UNL     1       6.912   4.768  17.094  0.00  0.00    +0.000 C 
ATOM     17  C   UNL     1       6.682   4.103  15.727  0.00  0.00    +0.000 C 
ATOM     18  C   UNL     1       5.200   4.349  15.458  0.00  0.00    +0.000 C 
ATOM     19  C   UNL     1       4.582   4.181  16.837  0.00  0.00    +0.000 C 
ATOM     20  N   UNL     1       5.605   4.664  17.750  0.00  0.00    +0.000 N 
ATOM     21  C   UNL     1       5.455   4.911  19.103  0.00  0.00    +0.000 C 
ATOM     22  O   UNL     1       6.400   5.297  19.791  0.00  0.00    +0.000 OA
BRANCH  16  24
ATOM     23  N   UNL     1       7.742   7.259  16.796  0.00  0.00    +0.000 NA
ATOM     24  C   UNL     1       7.349   6.173  16.919  0.00  0.00    +0.000 C 
ENDBRANCH  16  24
ENDBRANCH  15  21
ENDBRANCH   1  15
TORSDOF 4
ENDMDL
MODEL 2
REMARK VINA RESULT:      -7.9      0.626      1.729
REMARK  Name = 
REMARK  4 active torsions:
REMARK  status: ('A' for Active; 'I' for Inactive)
REMARK    1  A    between atoms: C_2  and  C_3
REMARK    2  A    between atoms: C_8  and  C_10
REMARK    3  A    between atoms: C_10  and  N_11
REMARK    4  A    between atoms: C_12  and  C_14
REMARK                            x       y       z     vdW  Elec       q    Type
REMARK                         _______ _______ _______ _____ _____    ______ ____
ROOT
ATOM      1  N   UNL     1       3.328   5.818  20.033  0.00  0.00    +0.000 N 
ATOM      2  C   UNL     1       2.535   6.571  19.192  0.00  0.00    +0.000 C 
ATOM      3  O   UNL     1       2.417   6.336  17.995  0.00  0.00    +0.000 OA
ATOM      4  H   UNL     1       3.148   5.862  21.027  0.00  0.00    +0.000 HD
ENDROOT
BRANCH   2   5
ATOM      5  C   UNL     1       1.812   7.723  19.808  0.00  0.00    +0.000 A 
ATOM      6  C   UNL     1       1.424   7.715  21.152  0.00  0.00    +0.000 A 
ATOM      7  C   UNL     1       0.819   8.846  21.715  0.00  0.00    +0.000 A 
ATOM      8  C   UNL     1       0.596  10.002  20.948  0.00  0.00    +0.000 A 
ATOM      9  C   UNL     1       0.005  11.149  21.505  0.00  0.00    +0.000 A 
ATOM     10  C   UNL     1      -0.202  12.293  20.733  0.00  0.00    +0.000 A 
ATOM     11  C   UNL     1       0.176  12.304  19.393  0.00  0.00    +0.000 A 
ATOM     12  C   UNL     1       0.767  11.172  18.826  0.00  0.00    +0.000 A 
ATOM     13  C   UNL     1       0.987  10.013  19.590  0.00  0.00    +0.000 A 
ATOM     14  C   UNL     1       1.596   8.873  19.036  0.00  0.00    +0.000 A 
ENDBRANCH   2   5
BRANCH   1  15
ATOM     15  C   UNL     1       4.062   4.666  19.536  0.00  0.00    +0.000 C 
BRANCH  15  21
ATOM     16  C   UNL     1       7.033   5.087  17.104  0.00  0.00    +0.000 C 
ATOM     17  C   UNL     1       6.903   4.517  15.683  0.00  0.00    +0.000 C 
ATOM     18  C   UNL     1       5.421   4.694  15.363  0.00  0.00    +0.000 C 
ATOM     19  C   UNL     1       4.757   4.385  16.695  0.00  0.00    +0.000 C 
ATOM     20  N   UNL     1       5.707   4.856  17.689  0.00  0.00    +0.000 N 
ATOM     21  C   UNL     1       5.486   4.989  19.048  0.00  0.00    +0.000 C 
ATOM     22  O   UNL     1       6.375   5.377  19.806  0.00  0.00    +0.000 OA
BRANCH  16  24
ATOM     23  N   UNL     1       7.691   7.646  17.064  0.00  0.00    +0.000 NA
ATOM     24  C   UNL     1       7.388   6.525  17.055  0.00  0.00    +0.000 C 
ENDBRANCH  16  24
ENDBRANCH  15  21
ENDBRANCH   1  15
TORSDOF 4
ENDMDL
MODEL 3
REMARK VINA RESULT:      -7.7      5.006      7.871
REMARK  Name = 
REMARK  4 active torsions:
REMARK  status: ('A' for Active; 'I' for Inactive)
REMARK    1  A    between atoms: C_2  and  C_3
REMARK    2  A    between atoms: C_8  and  C_10
REMARK    3  A    between atoms: C_10  and  N_11
REMARK    4  A    between atoms: C_12  and  C_14
REMARK                            x       y       z     vdW  Elec       q    Type
REMARK                         _______ _______ _______ _____ _____    ______ ____
ROOT
ATOM      1  N   UNL     1       8.403   7.566  18.556  0.00  0.00    +0.000 N 
ATOM      2  C   UNL     1       8.162   8.819  18.032  0.00  0.00    +0.000 C 
ATOM      3  O   UNL     1       7.380   9.020  17.109  0.00  0.00    +0.000 OA
ATOM      4  H   UNL     1       8.800   7.503  19.484  0.00  0.00    +0.000 HD
ENDROOT
BRANCH   2   5
ATOM      5  C   UNL     1       8.916   9.954  18.640  0.00  0.00    +0.000 A 
ATOM      6  C   UNL     1       8.981  10.137  20.025  0.00  0.00    +0.000 A 
ATOM      7  C   UNL     1       9.764  11.167  20.562  0.00  0.00    +0.000 A 
ATOM      8  C   UNL     1      10.497  12.026  19.726  0.00  0.00    +0.000 A 
ATOM      9  C   UNL     1      11.300  13.053  20.253  0.00  0.00    +0.000 A 
ATOM     10  C   UNL     1      12.030  13.893  19.410  0.00  0.00    +0.000 A 
ATOM     11  C   UNL     1      11.964  13.720  18.030  0.00  0.00    +0.000 A 
ATOM     12  C   UNL     1      11.172  12.702  17.492  0.00  0.00    +0.000 A 
ATOM     13  C   UNL     1      10.434  11.845  18.326  0.00  0.00    +0.000 A 
ATOM     14  C   UNL     1       9.646  10.805  17.799  0.00  0.00    +0.000 A 
ENDBRANCH   2   5
BRANCH   1  15
ATOM     15  C   UNL     1       7.708   6.396  18.044  0.00  0.00    +0.000 C 
BRANCH  15  21
ATOM     16  C   UNL     1       4.406   5.187  19.641  0.00  0.00    +0.000 C 
ATOM     17  C   UNL     1       3.079   5.700  19.058  0.00  0.00    +0.000 C 
ATOM     18  C   UNL     1       3.380   5.849  17.569  0.00  0.00    +0.000 C 
ATOM     19  C   UNL     1       4.808   6.368  17.572  0.00  0.00    +0.000 C 
ATOM     20  N   UNL     1       5.416   5.743  18.735  0.00  0.00    +0.000 N 
ATOM     21  C   UNL     1       6.761   5.732  19.060  0.00  0.00    +0.000 C 
ATOM     22  O   UNL     1       7.165   5.191  20.089  0.00  0.00    +0.000 OA
BRANCH  16  24
ATOM     23  N   UNL     1       4.414   2.547  19.740  0.00  0.00    +0.000 NA
ATOM     24  C   UNL     1       4.421   3.706  19.667  0.00  0.00    +0.000 C 
ENDBRANCH  16  24
ENDBRANCH  15  21
ENDBRANCH   1  15
TORSDOF 4
ENDMDL
MODEL 4
REMARK VINA RESULT:      -7.7      1.188      1.197
REMARK  Name = 
REMARK  4 active torsions:
REMARK  status: ('A' for Active; 'I' for Inactive)
REMARK    1  A    between atoms: C_2  and  C_3
REMARK    2  A    between atoms: C_8  and  C_10
REMARK    3  A    between atoms: C_10  and  N_11
REMARK    4  A    between atoms: C_12  and  C_14
REMARK                            x       y       z     vdW  Elec       q    Type
REMARK                         _______ _______ _______ _____ _____    ______ ____
ROOT
ATOM      1  N   UNL     1       2.623   5.541  18.736  0.00  0.00    +0.000 N 
ATOM      2  C   UNL     1       2.268   5.904  20.019  0.00  0.00    +0.000 C 
ATOM      3  O   UNL     1       2.375   5.152  20.982  0.00  0.00    +0.000 OA
ATOM      4  H   UNL     1       2.803   6.274  18.064  0.00  0.00    +0.000 HD
ENDROOT
BRANCH   2   5
ATOM      5  C   UNL     1       1.722   7.282  20.197  0.00  0.00    +0.000 A 
ATOM      6  C   UNL     1       1.771   8.231  19.172  0.00  0.00    +0.000 A 
ATOM      7  C   UNL     1       1.179   9.488  19.348  0.00  0.00    +0.000 A 
ATOM      8  C   UNL     1       0.523   9.814  20.548  0.00  0.00    +0.000 A 
ATOM      9  C   UNL     1      -0.090  11.065  20.732  0.00  0.00    +0.000 A 
ATOM     10  C   UNL     1      -0.744  11.372  21.926  0.00  0.00    +0.000 A 
ATOM     11  C   UNL     1      -0.791  10.433  22.953  0.00  0.00    +0.000 A 
ATOM     12  C   UNL     1      -0.187   9.184  22.784  0.00  0.00    +0.000 A 
ATOM     13  C   UNL     1       0.472   8.857  21.587  0.00  0.00    +0.000 A 
ATOM     14  C   UNL     1       1.069   7.598  21.397  0.00  0.00    +0.000 A 
ENDBRANCH   2   5
BRANCH   1  15
ATOM     15  C   UNL     1       3.178   4.226  18.459  0.00  0.00    +0.000 C 
BRANCH  15  21
ATOM     16  C   UNL     1       6.859   4.462  17.314  0.00  0.00    +0.000 C 
ATOM     17  C   UNL     1       7.152   4.616  15.813  0.00  0.00    +0.000 C 
ATOM     18  C   UNL     1       5.976   5.448  15.307  0.00  0.00    +0.000 C 
ATOM     19  C   UNL     1       4.810   4.893  16.109  0.00  0.00    +0.000 C 
ATOM     20  N   UNL     1       5.396   4.525  17.387  0.00  0.00    +0.000 N 
ATOM     21  C   UNL     1       4.714   4.163  18.535  0.00  0.00    +0.000 C 
ATOM     22  O   UNL     1       5.315   3.844  19.561  0.00  0.00    +0.000 OA
BRANCH  16  24
ATOM     23  N   UNL     1       7.977   6.423  18.688  0.00  0.00    +0.000 NA
ATOM     24  C   UNL     1       7.513   5.547  18.083  0.00  0.00    +0.000 C 
ENDBRANCH  16  24
ENDBRANCH  15  21
ENDBRANCH   1  15
TORSDOF 4
ENDMDL
MODEL 5
REMARK VINA RESULT:      -7.6      1.093      1.141
REMARK  Name = 
REMARK  4 active torsions:
REMARK  status: ('A' for Active; 'I' for Inactive)
REMARK    1  A    between atoms: C_2  and  C_3
REMARK    2  A    between atoms: C_8  and  C_10
REMARK    3  A    between atoms: C_10  and  N_11
REMARK    4  A    between atoms: C_12  and  C_14
REMARK                            x       y       z     vdW  Elec       q    Type
REMARK                         _______ _______ _______ _____ _____    ______ ____
ROOT
ATOM      1  N   UNL     1       2.301   6.108  18.624  0.00  0.00    +0.000 N 
ATOM      2  C   UNL     1       2.562   7.422  18.293  0.00  0.00    +0.000 C 
ATOM      3  O   UNL     1       3.404   7.749  17.465  0.00  0.00    +0.000 OA
ATOM      4  H   UNL     1       1.415   5.892  19.061  0.00  0.00    +0.000 HD
ENDROOT
BRANCH   2   5
ATOM      5  C   UNL     1       1.765   8.463  19.008  0.00  0.00    +0.000 A 
ATOM      6  C   UNL     1       1.199   9.549  18.334  0.00  0.00    +0.000 A 
ATOM      7  C   UNL     1       0.392  10.462  19.025  0.00  0.00    +0.000 A 
ATOM      8  C   UNL     1       0.135  10.302  20.397  0.00  0.00    +0.000 A 
ATOM      9  C   UNL     1      -0.687  11.202  21.098  0.00  0.00    +0.000 A 
ATOM     10  C   UNL     1      -0.940  11.026  22.460  0.00  0.00    +0.000 A 
ATOM     11  C   UNL     1      -0.373   9.950  23.138  0.00  0.00    +0.000 A 
ATOM     12  C   UNL     1       0.444   9.047  22.453  0.00  0.00    +0.000 A 
ATOM     13  C   UNL     1       0.706   9.207  21.082  0.00  0.00    +0.000 A 
ATOM     14  C   UNL     1       1.513   8.295  20.377  0.00  0.00    +0.000 A 
ENDBRANCH   2   5
BRANCH   1  15
ATOM     15  C   UNL     1       3.010   5.019  17.974  0.00  0.00    +0.000 C 
BRANCH  15  21
ATOM     16  C   UNL     1       6.838   4.723  17.555  0.00  0.00    +0.000 C 
ATOM     17  C   UNL     1       7.400   4.392  16.162  0.00  0.00    +0.000 C 
ATOM     18  C   UNL     1       6.421   5.078  15.213  0.00  0.00    +0.000 C 
ATOM     19  C   UNL     1       5.083   4.852  15.898  0.00  0.00    +0.000 C 
ATOM     20  N   UNL     1       5.398   4.871  17.317  0.00  0.00    +0.000 N 
ATOM     21  C   UNL     1       4.495   4.914  18.365  0.00  0.00    +0.000 C 
ATOM     22  O   UNL     1       4.874   4.901  19.536  0.00  0.00    +0.000 OA
BRANCH  16  24
ATOM     23  N   UNL     1       7.969   6.938  18.446  0.00  0.00    +0.000 NA
ATOM     24  C   UNL     1       7.457   5.961  18.081  0.00  0.00    +0.000 C 
ENDBRANCH  16  24
ENDBRANCH  15  21
ENDBRANCH   1  15
TORSDOF 4
ENDMDL
MODEL 6
REMARK VINA RESULT:      -7.5      2.633      3.896
REMARK  Name = 
REMARK  4 active torsions:
REMARK  status: ('A' for Active; 'I' for Inactive)
REMARK    1  A    between atoms: C_2  and  C_3
REMARK    2  A    between atoms: C_8  and  C_10
REMARK    3  A    between atoms: C_10  and  N_11
REMARK    4  A    between atoms: C_12  and  C_14
REMARK                            x       y       z     vdW  Elec       q    Type
REMARK                         _______ _______ _______ _____ _____    ______ ____
ROOT
ATOM      1  N   UNL     1       2.571   7.099  19.898  0.00  0.00    +0.000 N 
ATOM      2  C   UNL     1       1.909   8.216  19.434  0.00  0.00    +0.000 C 
ATOM      3  O   UNL     1       2.016   8.629  18.285  0.00  0.00    +0.000 OA
ATOM      4  H   UNL     1       2.215   6.641  20.727  0.00  0.00    +0.000 HD
ENDROOT
BRANCH   2   5
ATOM      5  C   UNL     1       1.039   8.933  20.413  0.00  0.00    +0.000 A 
ATOM      6  C   UNL     1       1.096   8.663  21.784  0.00  0.00    +0.000 A 
ATOM      7  C   UNL     1       0.322   9.410  22.680  0.00  0.00    +0.000 A 
ATOM      8  C   UNL     1      -0.516  10.441  22.224  0.00  0.00    +0.000 A 
ATOM      9  C   UNL     1      -1.286  11.210  23.114  0.00  0.00    +0.000 A 
ATOM     10  C   UNL     1      -2.108  12.236  22.646  0.00  0.00    +0.000 A 
ATOM     11  C   UNL     1      -2.175  12.505  21.281  0.00  0.00    +0.000 A 
ATOM     12  C   UNL     1      -1.414  11.750  20.385  0.00  0.00    +0.000 A 
ATOM     13  C   UNL     1      -0.578  10.716  20.839  0.00  0.00    +0.000 A 
ATOM     14  C   UNL     1       0.206   9.960  19.949  0.00  0.00    +0.000 A 
ENDBRANCH   2   5
BRANCH   1  15
ATOM     15  C   UNL     1       3.431   6.322  19.021  0.00  0.00    +0.000 C 
BRANCH  15  21
ATOM     16  C   UNL     1       2.647   2.682  17.994  0.00  0.00    +0.000 C 
ATOM     17  C   UNL     1       3.665   1.586  18.347  0.00  0.00    +0.000 C 
ATOM     18  C   UNL     1       4.253   2.061  19.673  0.00  0.00    +0.000 C 
ATOM     19  C   UNL     1       4.341   3.565  19.474  0.00  0.00    +0.000 C 
ATOM     20  N   UNL     1       3.204   3.883  18.627  0.00  0.00    +0.000 N 
ATOM     21  C   UNL     1       2.722   5.145  18.326  0.00  0.00    +0.000 C 
ATOM     22  O   UNL     1       1.762   5.300  17.572  0.00  0.00    +0.000 OA
BRANCH  16  24
ATOM     23  N   UNL     1       0.274   2.075  18.985  0.00  0.00    +0.000 NA
ATOM     24  C   UNL     1       1.307   2.333  18.522  0.00  0.00    +0.000 C 
ENDBRANCH  16  24
ENDBRANCH  15  21
ENDBRANCH   1  15
TORSDOF 4
ENDMDL
MODEL 7
REMARK VINA RESULT:      -7.4      2.448      3.679
REMARK  Name = 
REMARK  4 active torsions:
REMARK  status: ('A' for Active; 'I' for Inactive)
REMARK    1  A    between atoms: C_2  and  C_3
REMARK    2  A    between atoms: C_8  and  C_10
REMARK    3  A    between atoms: C_10  and  N_11
REMARK    4  A    between atoms: C_12  and  C_14
REMARK                            x       y       z     vdW  Elec       q    Type
REMARK                         _______ _______ _______ _____ _____    ______ ____
ROOT
ATOM      1  N   UNL     1       1.888   7.435  20.495  0.00  0.00    +0.000 N 
ATOM      2  C   UNL     1       1.382   8.615  19.991  0.00  0.00    +0.000 C 
ATOM      3  O   UNL     1       1.652   9.036  18.872  0.00  0.00    +0.000 OA
ATOM      4  H   UNL     1       1.403   6.997  21.266  0.00  0.00    +0.000 HD
ENDROOT
BRANCH   2   5
ATOM      5  C   UNL     1       0.473   9.390  20.888  0.00  0.00    +0.000 A 
ATOM      6  C   UNL     1       0.373   9.109  22.254  0.00  0.00    +0.000 A 
ATOM      7  C   UNL     1      -0.430   9.908  23.078  0.00  0.00    +0.000 A 
ATOM      8  C   UNL     1      -1.140  11.001  22.553  0.00  0.00    +0.000 A 
ATOM      9  C   UNL     1      -1.936  11.821  23.371  0.00  0.00    +0.000 A 
ATOM     10  C   UNL     1      -2.628  12.908  22.836  0.00  0.00    +0.000 A 
ATOM     11  C   UNL     1      -2.538  13.188  21.476  0.00  0.00    +0.000 A 
ATOM     12  C   UNL     1      -1.749  12.383  20.650  0.00  0.00    +0.000 A 
ATOM     13  C   UNL     1      -1.041  11.287  21.172  0.00  0.00    +0.000 A 
ATOM     14  C   UNL     1      -0.230  10.479  20.355  0.00  0.00    +0.000 A 
ENDBRANCH   2   5
BRANCH   1  15
ATOM     15  C   UNL     1       2.770   6.599  19.696  0.00  0.00    +0.000 C 
BRANCH  15  21
ATOM     16  C   UNL     1       3.059   2.772  19.270  0.00  0.00    +0.000 C 
ATOM     17  C   UNL     1       3.244   2.204  17.853  0.00  0.00    +0.000 C 
ATOM     18  C   UNL     1       4.075   3.273  17.149  0.00  0.00    +0.000 C 
ATOM     19  C   UNL     1       3.495   4.562  17.707  0.00  0.00    +0.000 C 
ATOM     20  N   UNL     1       3.108   4.223  19.066  0.00  0.00    +0.000 N 
ATOM     21  C   UNL     1       2.719   5.104  20.060  0.00  0.00    +0.000 C 
ATOM     22  O   UNL     1       2.385   4.703  21.175  0.00  0.00    +0.000 OA
BRANCH  16  24
ATOM     23  N   UNL     1       4.946   1.922  20.911  0.00  0.00    +0.000 NA
ATOM     24  C   UNL     1       4.135   2.287  20.166  0.00  0.00    +0.000 C 
ENDBRANCH  16  24
ENDBRANCH  15  21
ENDBRANCH   1  15
TORSDOF 4
ENDMDL
MODEL 8
REMARK VINA RESULT:      -7.4      2.649      3.659
REMARK  Name = 
REMARK  4 active torsions:
REMARK  status: ('A' for Active; 'I' for Inactive)
REMARK    1  A    between atoms: C_2  and  C_3
REMARK    2  A    between atoms: C_8  and  C_10
REMARK    3  A    between atoms: C_10  and  N_11
REMARK    4  A    between atoms: C_12  and  C_14
REMARK                            x       y       z     vdW  Elec       q    Type
REMARK                         _______ _______ _______ _____ _____    ______ ____
ROOT
ATOM      1  N   UNL     1       2.475   7.335  19.231  0.00  0.00    +0.000 N 
ATOM      2  C   UNL     1       2.089   8.435  18.493  0.00  0.00    +0.000 C 
ATOM      3  O   UNL     1       2.463   8.634  17.343  0.00  0.00    +0.000 OA
ATOM      4  H   UNL     1       1.909   7.070  20.026  0.00  0.00    +0.000 HD
ENDROOT
BRANCH   2   5
ATOM      5  C   UNL     1       1.181   9.409  19.169  0.00  0.00    +0.000 A 
ATOM      6  C   UNL     1       0.528  10.420  18.459  0.00  0.00    +0.000 A 
ATOM      7  C   UNL     1      -0.377  11.266  19.113  0.00  0.00    +0.000 A 
ATOM      8  C   UNL     1      -0.648  11.111  20.483  0.00  0.00    +0.000 A 
ATOM      9  C   UNL     1      -1.567  11.941  21.148  0.00  0.00    +0.000 A 
ATOM     10  C   UNL     1      -1.831  11.769  22.508  0.00  0.00    +0.000 A 
ATOM     11  C   UNL     1      -1.178  10.768  23.222  0.00  0.00    +0.000 A 
ATOM     12  C   UNL     1      -0.264   9.934  22.574  0.00  0.00    +0.000 A 
ATOM     13  C   UNL     1       0.011  10.089  21.205  0.00  0.00    +0.000 A 
ATOM     14  C   UNL     1       0.917   9.246  20.536  0.00  0.00    +0.000 A 
ENDBRANCH   2   5
BRANCH   1  15
ATOM     15  C   UNL     1       3.345   6.320  18.659  0.00  0.00    +0.000 C 
BRANCH  15  21
ATOM     16  C   UNL     1       2.534   2.594  18.045  0.00  0.00    +0.000 C 
ATOM     17  C   UNL     1       3.590   1.542  18.423  0.00  0.00    +0.000 C 
ATOM     18  C   UNL     1       4.268   2.146  19.650  0.00  0.00    +0.000 C 
ATOM     19  C   UNL     1       4.321   3.625  19.304  0.00  0.00    +0.000 C 
ATOM     20  N   UNL     1       3.120   3.853  18.517  0.00  0.00    +0.000 N 
ATOM     21  C   UNL     1       2.602   5.078  18.135  0.00  0.00    +0.000 C 
ATOM     22  O   UNL     1       1.587   5.154  17.443  0.00  0.00    +0.000 OA
BRANCH  16  24
ATOM     23  N   UNL     1       0.212   2.101  19.205  0.00  0.00    +0.000 NA
ATOM     24  C   UNL     1       1.242   2.289  18.701  0.00  0.00    +0.000 C 
ENDBRANCH  16  24
ENDBRANCH  15  21
ENDBRANCH   1  15
TORSDOF 4
ENDMDL
MODEL 9
REMARK VINA RESULT:      -7.4      2.651      3.563
REMARK  Name = 
REMARK  4 active torsions:
REMARK  status: ('A' for Active; 'I' for Inactive)
REMARK    1  A    between atoms: C_2  and  C_3
REMARK    2  A    between atoms: C_8  and  C_10
REMARK    3  A    between atoms: C_10  and  N_11
REMARK    4  A    between atoms: C_12  and  C_14
REMARK                            x       y       z     vdW  Elec       q    Type
REMARK                         _______ _______ _______ _____ _____    ______ ____
ROOT
ATOM      1  N   UNL     1       2.337   7.433  19.105  0.00  0.00    +0.000 N 
ATOM      2  C   UNL     1       1.964   8.567  18.413  0.00  0.00    +0.000 C 
ATOM      3  O   UNL     1       2.290   8.779  17.251  0.00  0.00    +0.000 OA
ATOM      4  H   UNL     1       1.800   7.172  19.921  0.00  0.00    +0.000 HD
ENDROOT
BRANCH   2   5
ATOM      5  C   UNL     1       1.133   9.560  19.156  0.00  0.00    +0.000 A 
ATOM      6  C   UNL     1       0.616  10.700  18.532  0.00  0.00    +0.000 A 
ATOM      7  C   UNL     1      -0.225  11.568  19.240  0.00  0.00    +0.000 A 
ATOM      8  C   UNL     1      -0.568  11.309  20.577  0.00  0.00    +0.000 A 
ATOM      9  C   UNL     1      -1.424  12.162  21.294  0.00  0.00    +0.000 A 
ATOM     10  C   UNL     1      -1.762  11.887  22.620  0.00  0.00    +0.000 A 
ATOM     11  C   UNL     1      -1.245  10.758  23.249  0.00  0.00    +0.000 A 
ATOM     12  C   UNL     1      -0.394   9.899  22.548  0.00  0.00    +0.000 A 
ATOM     13  C   UNL     1      -0.047  10.158  21.211  0.00  0.00    +0.000 A 
ATOM     14  C   UNL     1       0.795   9.293  20.490  0.00  0.00    +0.000 A 
ENDBRANCH   2   5
BRANCH   1  15
ATOM     15  C   UNL     1       3.135   6.398  18.468  0.00  0.00    +0.000 C 
BRANCH  15  21
ATOM     16  C   UNL     1       3.223   3.327  20.808  0.00  0.00    +0.000 C 
ATOM     17  C   UNL     1       1.891   2.669  21.205  0.00  0.00    +0.000 C 
ATOM     18  C   UNL     1       1.021   2.855  19.965  0.00  0.00    +0.000 C 
ATOM     19  C   UNL     1       1.418   4.243  19.489  0.00  0.00    +0.000 C 
ATOM     20  N   UNL     1       2.822   4.357  19.844  0.00  0.00    +0.000 N 
ATOM     21  C   UNL     1       3.699   5.349  19.444  0.00  0.00    +0.000 C 
ATOM     22  O   UNL     1       4.869   5.362  19.827  0.00  0.00    +0.000 OA
BRANCH  16  24
ATOM     23  N   UNL     1       4.858   1.511  19.805  0.00  0.00    +0.000 NA
ATOM     24  C   UNL     1       4.140   2.324  20.219  0.00  0.00    +0.000 C 
ENDBRANCH  16  24
ENDBRANCH  15  21
ENDBRANCH   1  15
TORSDOF 4
ENDMDL
