MODEL 1
REMARK VINA RESULT:      -6.9      0.000      0.000
REMARK  Name = 
REMARK  5 active torsions:
REMARK  status: ('A' for Active; 'I' for Inactive)
REMARK    1  A    between atoms: C_2  and  C_3
REMARK    2  A    between atoms: C_7  and  C_8
REMARK    3  A    between atoms: C_8  and  O_10
REMARK    4  A    between atoms: O_10  and  C_11
REMARK    5  A    between atoms: C_11  and  C_12
REMARK                            x       y       z     vdW  Elec       q    Type
REMARK                         _______ _______ _______ _____ _____    ______ ____
ROOT
ATOM      1  C   UNL     1       5.128   4.685  18.566  0.00  0.00    +0.000 C 
ATOM      2  O   UNL     1       6.071   3.977  18.884  0.00  0.00    +0.000 OA
ENDROOT
BRANCH   1   7
ATOM      3  C   UNL     1       1.965   3.336  20.191  0.00  0.00    +0.000 A 
ATOM      4  C   UNL     1       1.058   3.493  19.135  0.00  0.00    +0.000 A 
ATOM      5  C   UNL     1       1.480   4.040  17.926  0.00  0.00    +0.000 A 
ATOM      6  C   UNL     1       2.807   4.438  17.776  0.00  0.00    +0.000 A 
ATOM      7  C   UNL     1       3.722   4.292  18.832  0.00  0.00    +0.000 A 
ATOM      8  C   UNL     1       3.302   3.732  20.040  0.00  0.00    +0.000 A 
BRANCH   3  10
ATOM      9  N   UNL     1       1.178   2.285  22.429  0.00  0.00    +0.000 NA
ATOM     10  C   UNL     1       1.528   2.759  21.426  0.00  0.00    +0.000 C 
ENDBRANCH   3  10
ENDBRANCH   1   7
BRANCH   1  11
ATOM     11  O   UNL     1       5.207   5.951  18.067  0.00  0.00    +0.000 OA
BRANCH  11  12
ATOM     12  C   UNL     1       5.957   6.089  16.835  0.00  0.00    +0.000 C 
ATOM     13  C   UNL     1       5.562   5.130  15.731  0.00  0.00    +0.000 C 
ATOM     14  C   UNL     1       5.202   6.571  15.609  0.00  0.00    +0.000 C 
BRANCH  12  15
ATOM     15  C   UNL     1       7.361   6.677  17.056  0.00  0.00    +0.000 C 
ATOM     16  C   UNL     1       7.663   8.072  17.551  0.00  0.00    +0.000 C 
ATOM     17  C   UNL     1       7.917   6.894  18.441  0.00  0.00    +0.000 C 
ENDBRANCH  12  15
ENDBRANCH  11  12
ENDBRANCH   1  11
TORSDOF 5
ENDMDL
MODEL 2
REMARK VINA RESULT:      -6.8      3.181      6.269
REMARK  Name = 
REMARK  5 active torsions:
REMARK  status: ('A' for Active; 'I' for Inactive)
REMARK    1  A    between atoms: C_2  and  C_3
REMARK    2  A    between atoms: C_7  and  C_8
REMARK    3  A    between atoms: C_8  and  O_10
REMARK    4  A    between atoms: O_10  and  C_11
REMARK    5  A    between atoms: C_11  and  C_12
REMARK                            x       y       z     vdW  Elec       q    Type
REMARK                         _______ _______ _______ _____ _____    ______ ____
ROOT
ATOM      1  C   UNL     1       3.590   4.897  18.070  0.00  0.00    +0.000 C 
ATOM      2  O   UNL     1       2.776   5.777  17.837  0.00  0.00    +0.000 OA
ENDROOT
BRANCH   1   7
ATOM      3  C   UNL     1       6.172   4.308  15.339  0.00  0.00    +0.000 A 
ATOM      4  C   UNL     1       7.353   4.488  16.072  0.00  0.00    +0.000 A 
ATOM      5  C   UNL     1       7.293   4.806  17.426  0.00  0.00    +0.000 A 
ATOM      6  C   UNL     1       6.054   4.952  18.046  0.00  0.00    +0.000 A 
ATOM      7  C   UNL     1       4.864   4.782  17.318  0.00  0.00    +0.000 A 
ATOM      8  C   UNL     1       4.924   4.450  15.962  0.00  0.00    +0.000 A 
BRANCH   3  10
ATOM      9  N   UNL     1       6.297   3.681  12.824  0.00  0.00    +0.000 NA
ATOM     10  C   UNL     1       6.240   3.965  13.951  0.00  0.00    +0.000 C 
ENDBRANCH   3  10
ENDBRANCH   1   7
BRANCH   1  11
ATOM     11  O   UNL     1       3.535   4.003  19.096  0.00  0.00    +0.000 OA
BRANCH  11  12
ATOM     12  C   UNL     1       2.616   2.897  18.911  0.00  0.00    +0.000 C 
ATOM     13  C   UNL     1       2.675   2.234  17.551  0.00  0.00    +0.000 C 
ATOM     14  C   UNL     1       3.216   1.514  18.739  0.00  0.00    +0.000 C 
BRANCH  12  15
ATOM     15  C   UNL     1       1.370   3.003  19.807  0.00  0.00    +0.000 C 
ATOM     16  C   UNL     1       1.353   2.861  21.311  0.00  0.00    +0.000 C 
ATOM     17  C   UNL     1       1.129   4.204  20.686  0.00  0.00    +0.000 C 
ENDBRANCH  12  15
ENDBRANCH  11  12
ENDBRANCH   1  11
TORSDOF 5
ENDMDL
MODEL 3
REMARK VINA RESULT:      -6.8      3.113      5.990
REMARK  Name = 
REMARK  5 active torsions:
REMARK  status: ('A' for Active; 'I' for Inactive)
REMARK    1  A    between atoms: C_2  and  C_3
REMARK    2  A    between atoms: C_7  and  C_8
REMARK    3  A    between atoms: C_8  and  O_10
REMARK    4  A    between atoms: O_10  and  C_11
REMARK    5  A    between atoms: C_11  and  C_12
REMARK                            x       y       z     vdW  Elec       q    Type
REMARK                         _______ _______ _______ _____ _____    ______ ____
ROOT
ATOM      1  C   UNL     1       4.719   3.661  18.681  0.00  0.00    +0.000 C 
ATOM      2  O   UNL     1       5.500   3.725  19.618  0.00  0.00    +0.000 OA
ENDROOT
BRANCH   1   7
ATOM      3  C   UNL     1       5.536   4.635  15.096  0.00  0.00    +0.000 A 
ATOM      4  C   UNL     1       5.396   6.027  15.180  0.00  0.00    +0.000 A 
ATOM      5  C   UNL     1       5.031   6.621  16.386  0.00  0.00    +0.000 A 
ATOM      6  C   UNL     1       4.797   5.824  17.504  0.00  0.00    +0.000 A 
ATOM      7  C   UNL     1       4.927   4.427  17.428  0.00  0.00    +0.000 A 
ATOM      8  C   UNL     1       5.306   3.832  16.222  0.00  0.00    +0.000 A 
BRANCH   3  10
ATOM      9  N   UNL     1       6.244   3.546  12.850  0.00  0.00    +0.000 NA
ATOM     10  C   UNL     1       5.927   4.031  13.859  0.00  0.00    +0.000 C 
ENDBRANCH   3  10
ENDBRANCH   1   7
BRANCH   1  11
ATOM     11  O   UNL     1       3.657   2.814  18.578  0.00  0.00    +0.000 OA
BRANCH  11  12
ATOM     12  C   UNL     1       2.380   3.363  18.988  0.00  0.00    +0.000 C 
ATOM     13  C   UNL     1       1.650   4.154  17.922  0.00  0.00    +0.000 C 
ATOM     14  C   UNL     1       1.137   2.811  18.315  0.00  0.00    +0.000 C 
BRANCH  12  15
ATOM     15  C   UNL     1       2.296   3.604  20.504  0.00  0.00    +0.000 C 
ATOM     16  C   UNL     1       1.318   2.944  21.448  0.00  0.00    +0.000 C 
ATOM     17  C   UNL     1       2.768   2.572  21.496  0.00  0.00    +0.000 C 
ENDBRANCH  12  15
ENDBRANCH  11  12
ENDBRANCH   1  11
TORSDOF 5
ENDMDL
MODEL 4
REMARK VINA RESULT:      -6.6      3.058      6.100
REMARK  Name = 
REMARK  5 active torsions:
REMARK  status: ('A' for Active; 'I' for Inactive)
REMARK    1  A    between atoms: C_2  and  C_3
REMARK    2  A    between atoms: C_7  and  C_8
REMARK    3  A    between atoms: C_8  and  O_10
REMARK    4  A    between atoms: O_10  and  C_11
REMARK    5  A    between atoms: C_11  and  C_12
REMARK                            x       y       z     vdW  Elec       q    Type
REMARK                         _______ _______ _______ _____ _____    ______ ____
ROOT
ATOM      1  C   UNL     1       4.677   3.525  18.545  0.00  0.00    +0.000 C 
ATOM      2  O   UNL     1       5.176   3.394  19.651  0.00  0.00    +0.000 OA
ENDROOT
BRANCH   1   7
ATOM      3  C   UNL     1       6.091   4.324  15.105  0.00  0.00    +0.000 A 
ATOM      4  C   UNL     1       6.946   5.386  15.429  0.00  0.00    +0.000 A 
ATOM      5  C   UNL     1       7.040   5.830  16.746  0.00  0.00    +0.000 A 
ATOM      6  C   UNL     1       6.274   5.218  17.736  0.00  0.00    +0.000 A 
ATOM      7  C   UNL     1       5.408   4.158  17.420  0.00  0.00    +0.000 A 
ATOM      8  C   UNL     1       5.323   3.704  16.101  0.00  0.00    +0.000 A 
BRANCH   3  10
ATOM      9  N   UNL     1       5.951   3.486  12.654  0.00  0.00    +0.000 NA
ATOM     10  C   UNL     1       6.010   3.862  13.753  0.00  0.00    +0.000 C 
ENDBRANCH   3  10
ENDBRANCH   1   7
BRANCH   1  11
ATOM     11  O   UNL     1       3.481   3.016  18.138  0.00  0.00    +0.000 OA
BRANCH  11  12
ATOM     12  C   UNL     1       2.308   3.736  18.594  0.00  0.00    +0.000 C 
ATOM     13  C   UNL     1       2.345   5.232  18.363  0.00  0.00    +0.000 C 
ATOM     14  C   UNL     1       1.437   4.388  17.536  0.00  0.00    +0.000 C 
BRANCH  12  15
ATOM     15  C   UNL     1       1.581   3.020  19.744  0.00  0.00    +0.000 C 
ATOM     16  C   UNL     1       2.202   2.609  21.058  0.00  0.00    +0.000 C 
ATOM     17  C   UNL     1       1.219   3.739  21.019  0.00  0.00    +0.000 C 
ENDBRANCH  12  15
ENDBRANCH  11  12
ENDBRANCH   1  11
TORSDOF 5
ENDMDL
MODEL 5
REMARK VINA RESULT:      -6.6      2.958      6.145
REMARK  Name = 
REMARK  5 active torsions:
REMARK  status: ('A' for Active; 'I' for Inactive)
REMARK    1  A    between atoms: C_2  and  C_3
REMARK    2  A    between atoms: C_7  and  C_8
REMARK    3  A    between atoms: C_8  and  O_10
REMARK    4  A    between atoms: O_10  and  C_11
REMARK    5  A    between atoms: C_11  and  C_12
REMARK                            x       y       z     vdW  Elec       q    Type
REMARK                         _______ _______ _______ _____ _____    ______ ____
ROOT
ATOM      1  C   UNL     1       3.325   4.850  18.080  0.00  0.00    +0.000 C 
ATOM      2  O   UNL     1       2.304   5.455  17.794  0.00  0.00    +0.000 OA
ENDROOT
BRANCH   1   7
ATOM      3  C   UNL     1       6.612   6.503  17.115  0.00  0.00    +0.000 A 
ATOM      4  C   UNL     1       7.007   5.672  16.059  0.00  0.00    +0.000 A 
ATOM      5  C   UNL     1       6.213   4.590  15.687  0.00  0.00    +0.000 A 
ATOM      6  C   UNL     1       5.029   4.334  16.376  0.00  0.00    +0.000 A 
ATOM      7  C   UNL     1       4.629   5.157  17.442  0.00  0.00    +0.000 A 
ATOM      8  C   UNL     1       5.419   6.251  17.806  0.00  0.00    +0.000 A 
BRANCH   3  10
ATOM      9  N   UNL     1       8.083   8.532  17.787  0.00  0.00    +0.000 NA
ATOM     10  C   UNL     1       7.424   7.623  17.482  0.00  0.00    +0.000 C 
ENDBRANCH   3  10
ENDBRANCH   1   7
BRANCH   1  11
ATOM     11  O   UNL     1       3.463   3.934  19.079  0.00  0.00    +0.000 OA
BRANCH  11  12
ATOM     12  C   UNL     1       2.642   2.746  18.953  0.00  0.00    +0.000 C 
ATOM     13  C   UNL     1       2.591   2.146  17.563  0.00  0.00    +0.000 C 
ATOM     14  C   UNL     1       3.350   1.441  18.635  0.00  0.00    +0.000 C 
BRANCH  12  15
ATOM     15  C   UNL     1       1.519   2.685  20.001  0.00  0.00    +0.000 C 
ATOM     16  C   UNL     1       1.711   2.706  21.500  0.00  0.00    +0.000 C 
ATOM     17  C   UNL     1       1.123   3.896  20.807  0.00  0.00    +0.000 C 
ENDBRANCH  12  15
ENDBRANCH  11  12
ENDBRANCH   1  11
TORSDOF 5
ENDMDL
MODEL 6
REMARK VINA RESULT:      -6.6      3.048      6.054
REMARK  Name = 
REMARK  5 active torsions:
REMARK  status: ('A' for Active; 'I' for Inactive)
REMARK    1  A    between atoms: C_2  and  C_3
REMARK    2  A    between atoms: C_7  and  C_8
REMARK    3  A    between atoms: C_8  and  O_10
REMARK    4  A    between atoms: O_10  and  C_11
REMARK    5  A    between atoms: C_11  and  C_12
REMARK                            x       y       z     vdW  Elec       q    Type
REMARK                         _______ _______ _______ _____ _____    ______ ____
ROOT
ATOM      1  C   UNL     1       4.636   3.958  19.280  0.00  0.00    +0.000 C 
ATOM      2  O   UNL     1       5.372   3.039  19.603  0.00  0.00    +0.000 OA
ENDROOT
BRANCH   1   7
ATOM      3  C   UNL     1       5.417   4.849  15.665  0.00  0.00    +0.000 A 
ATOM      4  C   UNL     1       5.179   6.230  15.694  0.00  0.00    +0.000 A 
ATOM      5  C   UNL     1       4.761   6.843  16.872  0.00  0.00    +0.000 A 
ATOM      6  C   UNL     1       4.573   6.075  18.020  0.00  0.00    +0.000 A 
ATOM      7  C   UNL     1       4.801   4.689  17.999  0.00  0.00    +0.000 A 
ATOM      8  C   UNL     1       5.233   4.076  16.820  0.00  0.00    +0.000 A 
BRANCH   3  10
ATOM      9  N   UNL     1       6.217   3.721  13.470  0.00  0.00    +0.000 NA
ATOM     10  C   UNL     1       5.862   4.228  14.456  0.00  0.00    +0.000 C 
ENDBRANCH   3  10
ENDBRANCH   1   7
BRANCH   1  11
ATOM     11  O   UNL     1       3.512   4.356  19.939  0.00  0.00    +0.000 OA
BRANCH  11  12
ATOM     12  C   UNL     1       2.555   3.307  20.230  0.00  0.00    +0.000 C 
ATOM     13  C   UNL     1       2.748   2.616  21.564  0.00  0.00    +0.000 C 
ATOM     14  C   UNL     1       1.594   3.542  21.381  0.00  0.00    +0.000 C 
BRANCH  12  15
ATOM     15  C   UNL     1       1.970   2.667  18.961  0.00  0.00    +0.000 C 
ATOM     16  C   UNL     1       0.501   2.555  18.628  0.00  0.00    +0.000 C 
ATOM     17  C   UNL     1       1.369   3.503  17.859  0.00  0.00    +0.000 C 
ENDBRANCH  12  15
ENDBRANCH  11  12
ENDBRANCH   1  11
TORSDOF 5
ENDMDL
MODEL 7
REMARK VINA RESULT:      -6.5      3.171      5.887
REMARK  Name = 
REMARK  5 active torsions:
REMARK  status: ('A' for Active; 'I' for Inactive)
REMARK    1  A    between atoms: C_2  and  C_3
REMARK    2  A    between atoms: C_7  and  C_8
REMARK    3  A    between atoms: C_8  and  O_10
REMARK    4  A    between atoms: O_10  and  C_11
REMARK    5  A    between atoms: C_11  and  C_12
REMARK                            x       y       z     vdW  Elec       q    Type
REMARK                         _______ _______ _______ _____ _____    ______ ____
ROOT
ATOM      1  C   UNL     1       3.004   5.833  18.450  0.00  0.00    +0.000 C 
ATOM      2  O   UNL     1       2.800   6.909  18.990  0.00  0.00    +0.000 OA
ENDROOT
BRANCH   1   7
ATOM      3  C   UNL     1       5.878   4.635  16.265  0.00  0.00    +0.000 A 
ATOM      4  C   UNL     1       6.915   4.618  17.208  0.00  0.00    +0.000 A 
ATOM      5  C   UNL     1       6.670   5.003  18.524  0.00  0.00    +0.000 A 
ATOM      6  C   UNL     1       5.392   5.413  18.895  0.00  0.00    +0.000 A 
ATOM      7  C   UNL     1       4.347   5.442  17.955  0.00  0.00    +0.000 A 
ATOM      8  C   UNL     1       4.590   5.042  16.638  0.00  0.00    +0.000 A 
BRANCH   3  10
ATOM      9  N   UNL     1       6.342   3.893  13.823  0.00  0.00    +0.000 NA
ATOM     10  C   UNL     1       6.133   4.222  14.919  0.00  0.00    +0.000 C 
ENDBRANCH   3  10
ENDBRANCH   1   7
BRANCH   1  11
ATOM     11  O   UNL     1       2.115   4.807  18.342  0.00  0.00    +0.000 OA
BRANCH  11  12
ATOM     12  C   UNL     1       2.048   3.916  19.483  0.00  0.00    +0.000 C 
ATOM     13  C   UNL     1       2.260   4.580  20.828  0.00  0.00    +0.000 C 
ATOM     14  C   UNL     1       0.895   4.110  20.452  0.00  0.00    +0.000 C 
BRANCH  12  15
ATOM     15  C   UNL     1       2.416   2.466  19.128  0.00  0.00    +0.000 C 
ATOM     16  C   UNL     1       3.059   2.011  17.838  0.00  0.00    +0.000 C 
ATOM     17  C   UNL     1       3.848   1.995  19.111  0.00  0.00    +0.000 C 
ENDBRANCH  12  15
ENDBRANCH  11  12
ENDBRANCH   1  11
TORSDOF 5
ENDMDL
MODEL 8
REMARK VINA RESULT:      -6.5      2.863      5.624
REMARK  Name = 
REMARK  5 active torsions:
REMARK  status: ('A' for Active; 'I' for Inactive)
REMARK    1  A    between atoms: C_2  and  C_3
REMARK    2  A    between atoms: C_7  and  C_8
REMARK    3  A    between atoms: C_8  and  O_10
REMARK    4  A    between atoms: O_10  and  C_11
REMARK    5  A    between atoms: C_11  and  C_12
REMARK                            x       y       z     vdW  Elec       q    Type
REMARK                         _______ _______ _______ _____ _____    ______ ____
ROOT
ATOM      1  C   UNL     1       4.385   3.197  19.216  0.00  0.00    +0.000 C 
ATOM      2  O   UNL     1       5.051   2.615  20.058  0.00  0.00    +0.000 OA
ENDROOT
BRANCH   1   7
ATOM      3  C   UNL     1       6.401   5.900  17.456  0.00  0.00    +0.000 A 
ATOM      4  C   UNL     1       5.991   5.692  16.132  0.00  0.00    +0.000 A 
ATOM      5  C   UNL     1       5.084   4.679  15.832  0.00  0.00    +0.000 A 
ATOM      6  C   UNL     1       4.593   3.869  16.854  0.00  0.00    +0.000 A 
ATOM      7  C   UNL     1       5.004   4.065  18.183  0.00  0.00    +0.000 A 
ATOM      8  C   UNL     1       5.904   5.089  18.486  0.00  0.00    +0.000 A 
BRANCH   3  10
ATOM      9  N   UNL     1       8.074   7.807  18.002  0.00  0.00    +0.000 NA
ATOM     10  C   UNL     1       7.321   6.953  17.759  0.00  0.00    +0.000 C 
ENDBRANCH   3  10
ENDBRANCH   1   7
BRANCH   1  11
ATOM     11  O   UNL     1       3.048   3.047  19.005  0.00  0.00    +0.000 OA
BRANCH  11  12
ATOM     12  C   UNL     1       2.188   3.671  19.991  0.00  0.00    +0.000 C 
ATOM     13  C   UNL     1       0.770   3.139  20.034  0.00  0.00    +0.000 C 
ATOM     14  C   UNL     1       1.709   2.806  21.144  0.00  0.00    +0.000 C 
BRANCH  12  15
ATOM     15  C   UNL     1       2.622   5.104  20.337  0.00  0.00    +0.000 C 
ATOM     16  C   UNL     1       2.473   6.310  19.439  0.00  0.00    +0.000 C 
ATOM     17  C   UNL     1       1.614   6.179  20.659  0.00  0.00    +0.000 C 
ENDBRANCH  12  15
ENDBRANCH  11  12
ENDBRANCH   1  11
TORSDOF 5
ENDMDL
MODEL 9
REMARK VINA RESULT:      -6.5      3.077      6.104
REMARK  Name = 
REMARK  5 active torsions:
REMARK  status: ('A' for Active; 'I' for Inactive)
REMARK    1  A    between atoms: C_2  and  C_3
REMARK    2  A    between atoms: C_7  and  C_8
REMARK    3  A    between atoms: C_8  and  O_10
REMARK    4  A    between atoms: O_10  and  C_11
REMARK    5  A    between atoms: C_11  and  C_12
REMARK                            x       y       z     vdW  Elec       q    Type
REMARK                         _______ _______ _______ _____ _____    ______ ____
ROOT
ATOM      1  C   UNL     1       3.703   5.826  18.429  0.00  0.00    +0.000 C 
ATOM      2  O   UNL     1       2.987   6.715  17.994  0.00  0.00    +0.000 OA
ENDROOT
BRANCH   1   7
ATOM      3  C   UNL     1       6.115   4.502  15.803  0.00  0.00    +0.000 A 
ATOM      4  C   UNL     1       7.297   4.454  16.554  0.00  0.00    +0.000 A 
ATOM      5  C   UNL     1       7.295   4.860  17.886  0.00  0.00    +0.000 A 
ATOM      6  C   UNL     1       6.115   5.321  18.465  0.00  0.00    +0.000 A 
ATOM      7  C   UNL     1       4.926   5.380  17.718  0.00  0.00    +0.000 A 
ATOM      8  C   UNL     1       4.925   4.961  16.385  0.00  0.00    +0.000 A 
BRANCH   3  10
ATOM      9  N   UNL     1       6.124   3.721  13.329  0.00  0.00    +0.000 NA
ATOM     10  C   UNL     1       6.119   4.068  14.439  0.00  0.00    +0.000 C 
ENDBRANCH   3  10
ENDBRANCH   1   7
BRANCH   1  11
ATOM     11  O   UNL     1       3.585   5.222  19.645  0.00  0.00    +0.000 OA
BRANCH  11  12
ATOM     12  C   UNL     1       2.421   4.374  19.809  0.00  0.00    +0.000 C 
ATOM     13  C   UNL     1       2.184   3.877  21.220  0.00  0.00    +0.000 C 
ATOM     14  C   UNL     1       1.278   4.915  20.649  0.00  0.00    +0.000 C 
BRANCH  12  15
ATOM     15  C   UNL     1       2.039   3.633  18.517  0.00  0.00    +0.000 C 
ATOM     16  C   UNL     1       2.676   2.359  18.011  0.00  0.00    +0.000 C 
ATOM     17  C   UNL     1       1.278   2.331  18.549  0.00  0.00    +0.000 C 
ENDBRANCH  12  15
ENDBRANCH  11  12
ENDBRANCH   1  11
TORSDOF 5
ENDMDL
