MODEL 1
REMARK VINA RESULT:      -8.1      0.000      0.000
REMARK  Name = 
REMARK  7 active torsions:
REMARK  status: ('A' for Active; 'I' for Inactive)
REMARK    1  A    between atoms: C_1  and  C_2
REMARK    2  A    between atoms: C_2  and  C_3
REMARK    3  A    between atoms: C_2  and  N_15
REMARK    4  A    between atoms: N_5  and  C_6
REMARK    5  A    between atoms: N_15  and  C_16
REMARK    6  A    between atoms: N_15  and  S_23
REMARK    7  A    between atoms: S_23  and  C_24
REMARK                            x       y       z     vdW  Elec       q    Type
REMARK                         _______ _______ _______ _____ _____    ______ ____
ROOT
ATOM      1  C   UNL     1       4.658   3.365  19.057  0.00  0.00    +0.000 C 
ATOM      2  C   UNL     1       4.333   4.207  17.815  0.00  0.00    +0.000 C 
ENDROOT
BRANCH   2   3
ATOM      3  C   UNL     1       3.191   5.147  18.217  0.00  0.00    +0.000 C 
ATOM      4  O   UNL     1       2.029   4.738  18.273  0.00  0.00    +0.000 OA
ATOM      5  N   UNL     1       3.581   6.453  18.498  0.00  0.00    +0.000 N 
ATOM      6  H   UNL     1       4.431   6.751  18.038  0.00  0.00    +0.000 HD
BRANCH   5   7
ATOM      7  C   UNL     1       2.648   7.463  18.782  0.00  0.00    +0.000 A 
ATOM      8  C   UNL     1       2.275   8.389  17.789  0.00  0.00    +0.000 A 
ATOM      9  C   UNL     1       1.334   9.384  18.066  0.00  0.00    +0.000 A 
ATOM     10  C   UNL     1       0.836   9.451  19.350  0.00  0.00    +0.000 A 
ATOM     11  C   UNL     1       1.202   8.549  20.319  0.00  0.00    +0.000 A 
ATOM     12  C   UNL     1       2.077   7.516  20.057  0.00  0.00    +0.000 A 
ATOM     13  O   UNL     1       0.627   8.815  21.521  0.00  0.00    +0.000 OA
ATOM     14  C   UNL     1      -0.094  10.027  21.212  0.00  0.00    +0.000 C 
ATOM     15  O   UNL     1      -0.037  10.384  19.815  0.00  0.00    +0.000 OA
ENDBRANCH   5   7
ENDBRANCH   2   3
BRANCH   2  16
ATOM     16  N   UNL     1       5.577   4.860  17.290  0.00  0.00    +0.000 N 
BRANCH  16  17
ATOM     17  C   UNL     1       6.024   4.663  15.941  0.00  0.00    +0.000 A 
ATOM     18  C   UNL     1       7.180   5.272  15.448  0.00  0.00    +0.000 A 
ATOM     19  C   UNL     1       7.530   5.116  14.103  0.00  0.00    +0.000 A 
ATOM     20  C   UNL     1       6.745   4.321  13.268  0.00  0.00    +0.000 A 
ATOM     21 CL   UNL     1       7.169   4.142  11.612  0.00  0.00    +0.000 Cl
ATOM     22  C   UNL     1       5.617   3.674  13.767  0.00  0.00    +0.000 A 
ATOM     23  C   UNL     1       5.246   3.860  15.100  0.00  0.00    +0.000 A 
ENDBRANCH  16  17
BRANCH  16  24
ATOM     24  S   UNL     1       6.811   5.253  18.406  0.00  0.00    +0.000 S 
ATOM     25  C   UNL     1       7.407   6.846  17.849  0.00  0.00    +0.000 C 
ATOM     26  O   UNL     1       6.204   5.449  19.709  0.00  0.00    +0.000 OA
ATOM     27  O   UNL     1       7.901   4.317  18.238  0.00  0.00    +0.000 OA
ENDBRANCH  16  24
ENDBRANCH   2  16
TORSDOF 5
ENDMDL
MODEL 2
REMARK VINA RESULT:      -7.9      4.591      8.653
REMARK  Name = 
REMARK  7 active torsions:
REMARK  status: ('A' for Active; 'I' for Inactive)
REMARK    1  A    between atoms: C_1  and  C_2
REMARK    2  A    between atoms: C_2  and  C_3
REMARK    3  A    between atoms: C_2  and  N_15
REMARK    4  A    between atoms: N_5  and  C_6
REMARK    5  A    between atoms: N_15  and  C_16
REMARK    6  A    between atoms: N_15  and  S_23
REMARK    7  A    between atoms: S_23  and  C_24
REMARK                            x       y       z     vdW  Elec       q    Type
REMARK                         _______ _______ _______ _____ _____    ______ ____
ROOT
ATOM      1  C   UNL     1      -0.829  10.593  22.631  0.00  0.00    +0.000 C 
ATOM      2  C   UNL     1       0.288  10.535  21.579  0.00  0.00    +0.000 C 
ENDROOT
BRANCH   2   3
ATOM      3  C   UNL     1       0.420   9.063  21.170  0.00  0.00    +0.000 C 
ATOM      4  O   UNL     1      -0.425   8.235  21.517  0.00  0.00    +0.000 OA
ATOM      5  N   UNL     1       1.545   8.769  20.405  0.00  0.00    +0.000 N 
ATOM      6  H   UNL     1       2.326   9.397  20.537  0.00  0.00    +0.000 HD
BRANCH   5   7
ATOM      7  C   UNL     1       1.869   7.453  20.035  0.00  0.00    +0.000 A 
ATOM      8  C   UNL     1       1.561   6.376  20.888  0.00  0.00    +0.000 A 
ATOM      9  C   UNL     1       1.868   5.066  20.513  0.00  0.00    +0.000 A 
ATOM     10  C   UNL     1       2.523   4.882  19.314  0.00  0.00    +0.000 A 
ATOM     11  C   UNL     1       2.825   5.935  18.483  0.00  0.00    +0.000 A 
ATOM     12  C   UNL     1       2.475   7.231  18.796  0.00  0.00    +0.000 A 
ATOM     13  O   UNL     1       3.504   5.542  17.372  0.00  0.00    +0.000 OA
ATOM     14  C   UNL     1       3.649   4.129  17.632  0.00  0.00    +0.000 C 
ATOM     15  O   UNL     1       2.952   3.692  18.817  0.00  0.00    +0.000 OA
ENDBRANCH   5   7
ENDBRANCH   2   3
BRANCH   2  16
ATOM     16  N   UNL     1       0.012  11.509  20.473  0.00  0.00    +0.000 N 
BRANCH  16  17
ATOM     17  C   UNL     1      -1.094  11.342  19.574  0.00  0.00    +0.000 A 
ATOM     18  C   UNL     1      -1.032  10.482  18.476  0.00  0.00    +0.000 A 
ATOM     19  C   UNL     1      -2.105  10.415  17.582  0.00  0.00    +0.000 A 
ATOM     20  C   UNL     1      -3.250  11.179  17.812  0.00  0.00    +0.000 A 
ATOM     21 CL   UNL     1      -4.563  11.107  16.704  0.00  0.00    +0.000 Cl
ATOM     22  C   UNL     1      -3.335  12.004  18.932  0.00  0.00    +0.000 A 
ATOM     23  C   UNL     1      -2.248  12.098  19.803  0.00  0.00    +0.000 A 
ENDBRANCH  16  17
BRANCH  16  24
ATOM     24  S   UNL     1       1.328  12.396  19.836  0.00  0.00    +0.000 S 
ATOM     25  C   UNL     1       0.559  13.813  19.061  0.00  0.00    +0.000 C 
ATOM     26  O   UNL     1       2.127  12.886  20.942  0.00  0.00    +0.000 OA
ATOM     27  O   UNL     1       1.938  11.620  18.777  0.00  0.00    +0.000 OA
ENDBRANCH  16  24
ENDBRANCH   2  16
TORSDOF 5
ENDMDL
MODEL 3
REMARK VINA RESULT:      -7.7      1.804      2.453
REMARK  Name = 
REMARK  7 active torsions:
REMARK  status: ('A' for Active; 'I' for Inactive)
REMARK    1  A    between atoms: C_1  and  C_2
REMARK    2  A    between atoms: C_2  and  C_3
REMARK    3  A    between atoms: C_2  and  N_15
REMARK    4  A    between atoms: N_5  and  C_6
REMARK    5  A    between atoms: N_15  and  C_16
REMARK    6  A    between atoms: N_15  and  S_23
REMARK    7  A    between atoms: S_23  and  C_24
REMARK                            x       y       z     vdW  Elec       q    Type
REMARK                         _______ _______ _______ _____ _____    ______ ____
ROOT
ATOM      1  C   UNL     1       6.025   5.351  19.496  0.00  0.00    +0.000 C 
ATOM      2  C   UNL     1       4.610   4.961  19.047  0.00  0.00    +0.000 C 
ENDROOT
BRANCH   2   3
ATOM      3  C   UNL     1       3.896   6.267  18.684  0.00  0.00    +0.000 C 
ATOM      4  O   UNL     1       4.325   6.990  17.782  0.00  0.00    +0.000 OA
ATOM      5  N   UNL     1       2.766   6.546  19.447  0.00  0.00    +0.000 N 
ATOM      6  H   UNL     1       2.761   6.129  20.368  0.00  0.00    +0.000 HD
BRANCH   5   7
ATOM      7  C   UNL     1       2.056   7.750  19.312  0.00  0.00    +0.000 A 
ATOM      8  C   UNL     1       1.886   8.339  18.044  0.00  0.00    +0.000 A 
ATOM      9  C   UNL     1       1.166   9.529  17.908  0.00  0.00    +0.000 A 
ATOM     10  C   UNL     1       0.683  10.118  19.056  0.00  0.00    +0.000 A 
ATOM     11  C   UNL     1       0.851   9.544  20.293  0.00  0.00    +0.000 A 
ATOM     12  C   UNL     1       1.499   8.337  20.452  0.00  0.00    +0.000 A 
ATOM     13  O   UNL     1       0.333  10.303  21.294  0.00  0.00    +0.000 OA
ATOM     14  C   UNL     1      -0.124  11.453  20.549  0.00  0.00    +0.000 C 
ATOM     15  O   UNL     1       0.015  11.300  19.122  0.00  0.00    +0.000 OA
ENDBRANCH   5   7
ENDBRANCH   2   3
BRANCH   2  16
ATOM     16  N   UNL     1       4.675   3.918  17.971  0.00  0.00    +0.000 N 
BRANCH  16  17
ATOM     17  C   UNL     1       5.398   4.133  16.751  0.00  0.00    +0.000 A 
ATOM     18  C   UNL     1       6.781   4.324  16.734  0.00  0.00    +0.000 A 
ATOM     19  C   UNL     1       7.429   4.611  15.528  0.00  0.00    +0.000 A 
ATOM     20  C   UNL     1       6.697   4.669  14.342  0.00  0.00    +0.000 A 
ATOM     21 CL   UNL     1       7.494   5.037  12.863  0.00  0.00    +0.000 Cl
ATOM     22  C   UNL     1       5.325   4.433  14.348  0.00  0.00    +0.000 A 
ATOM     23  C   UNL     1       4.672   4.183  15.556  0.00  0.00    +0.000 A 
ENDBRANCH  16  17
BRANCH  16  24
ATOM     24  S   UNL     1       3.385   2.801  17.856  0.00  0.00    +0.000 S 
ATOM     25  C   UNL     1       2.765   2.682  19.530  0.00  0.00    +0.000 C 
ATOM     26  O   UNL     1       2.338   3.392  17.047  0.00  0.00    +0.000 OA
ATOM     27  O   UNL     1       3.929   1.502  17.519  0.00  0.00    +0.000 OA
ENDBRANCH  16  24
ENDBRANCH   2  16
TORSDOF 5
ENDMDL
MODEL 4
REMARK VINA RESULT:      -7.6      5.077      8.724
REMARK  Name = 
REMARK  7 active torsions:
REMARK  status: ('A' for Active; 'I' for Inactive)
REMARK    1  A    between atoms: C_1  and  C_2
REMARK    2  A    between atoms: C_2  and  C_3
REMARK    3  A    between atoms: C_2  and  N_15
REMARK    4  A    between atoms: N_5  and  C_6
REMARK    5  A    between atoms: N_15  and  C_16
REMARK    6  A    between atoms: N_15  and  S_23
REMARK    7  A    between atoms: S_23  and  C_24
REMARK                            x       y       z     vdW  Elec       q    Type
REMARK                         _______ _______ _______ _____ _____    ______ ____
ROOT
ATOM      1  C   UNL     1      -0.751  10.550  22.913  0.00  0.00    +0.000 C 
ATOM      2  C   UNL     1       0.244  10.600  21.745  0.00  0.00    +0.000 C 
ENDROOT
BRANCH   2   3
ATOM      3  C   UNL     1       0.351   9.170  21.206  0.00  0.00    +0.000 C 
ATOM      4  O   UNL     1      -0.560   8.359  21.388  0.00  0.00    +0.000 OA
ATOM      5  N   UNL     1       1.530   8.889  20.523  0.00  0.00    +0.000 N 
ATOM      6  H   UNL     1       2.322   9.460  20.790  0.00  0.00    +0.000 HD
BRANCH   5   7
ATOM      7  C   UNL     1       1.831   7.600  20.055  0.00  0.00    +0.000 A 
ATOM      8  C   UNL     1       2.290   7.409  18.737  0.00  0.00    +0.000 A 
ATOM      9  C   UNL     1       2.605   6.129  18.276  0.00  0.00    +0.000 A 
ATOM     10  C   UNL     1       2.398   5.071  19.136  0.00  0.00    +0.000 A 
ATOM     11  C   UNL     1       1.947   5.258  20.421  0.00  0.00    +0.000 A 
ATOM     12  C   UNL     1       1.692   6.516  20.926  0.00  0.00    +0.000 A 
ATOM     13  O   UNL     1       1.776   4.086  21.087  0.00  0.00    +0.000 OA
ATOM     14  C   UNL     1       2.110   3.137  20.052  0.00  0.00    +0.000 C 
ATOM     15  O   UNL     1       2.591   3.758  18.841  0.00  0.00    +0.000 OA
ENDBRANCH   5   7
ENDBRANCH   2   3
BRANCH   2  16
ATOM     16  N   UNL     1      -0.164  11.653  20.759  0.00  0.00    +0.000 N 
BRANCH  16  17
ATOM     17  C   UNL     1      -1.254  11.455  19.846  0.00  0.00    +0.000 A 
ATOM     18  C   UNL     1      -1.167  10.567  18.772  0.00  0.00    +0.000 A 
ATOM     19  C   UNL     1      -2.224  10.470  17.862  0.00  0.00    +0.000 A 
ATOM     20  C   UNL     1      -3.377  11.232  18.053  0.00  0.00    +0.000 A 
ATOM     21 CL   UNL     1      -4.671  11.121  16.925  0.00  0.00    +0.000 Cl
ATOM     22  C   UNL     1      -3.487  12.084  19.149  0.00  0.00    +0.000 A 
ATOM     23  C   UNL     1      -2.416  12.209  20.036  0.00  0.00    +0.000 A 
ENDBRANCH  16  17
BRANCH  16  24
ATOM     24  S   UNL     1       1.025  12.763  20.229  0.00  0.00    +0.000 S 
ATOM     25  C   UNL     1       1.720  11.989  18.774  0.00  0.00    +0.000 C 
ATOM     26  O   UNL     1       0.358  13.976  19.799  0.00  0.00    +0.000 OA
ATOM     27  O   UNL     1       2.080  12.816  21.218  0.00  0.00    +0.000 OA
ENDBRANCH  16  24
ENDBRANCH   2  16
TORSDOF 5
ENDMDL
MODEL 5
REMARK VINA RESULT:      -7.6      2.242      3.090
REMARK  Name = 
REMARK  7 active torsions:
REMARK  status: ('A' for Active; 'I' for Inactive)
REMARK    1  A    between atoms: C_1  and  C_2
REMARK    2  A    between atoms: C_2  and  C_3
REMARK    3  A    between atoms: C_2  and  N_15
REMARK    4  A    between atoms: N_5  and  C_6
REMARK    5  A    between atoms: N_15  and  C_16
REMARK    6  A    between atoms: N_15  and  S_23
REMARK    7  A    between atoms: S_23  and  C_24
REMARK                            x       y       z     vdW  Elec       q    Type
REMARK                         _______ _______ _______ _____ _____    ______ ____
ROOT
ATOM      1  C   UNL     1       5.378   5.348  19.523  0.00  0.00    +0.000 C 
ATOM      2  C   UNL     1       4.039   4.600  19.455  0.00  0.00    +0.000 C 
ENDROOT
BRANCH   2   3
ATOM      3  C   UNL     1       2.979   5.560  20.006  0.00  0.00    +0.000 C 
ATOM      4  O   UNL     1       2.174   5.186  20.862  0.00  0.00    +0.000 OA
ATOM      5  N   UNL     1       3.013   6.841  19.463  0.00  0.00    +0.000 N 
ATOM      6  H   UNL     1       3.409   6.899  18.534  0.00  0.00    +0.000 HD
BRANCH   5   7
ATOM      7  C   UNL     1       2.049   7.811  19.783  0.00  0.00    +0.000 A 
ATOM      8  C   UNL     1       1.516   7.883  21.085  0.00  0.00    +0.000 A 
ATOM      9  C   UNL     1       0.569   8.858  21.408  0.00  0.00    +0.000 A 
ATOM     10  C   UNL     1       0.148   9.698  20.400  0.00  0.00    +0.000 A 
ATOM     11  C   UNL     1       0.668   9.625  19.130  0.00  0.00    +0.000 A 
ATOM     12  C   UNL     1       1.651   8.718  18.797  0.00  0.00    +0.000 A 
ATOM     13  O   UNL     1       0.091  10.516  18.280  0.00  0.00    +0.000 OA
ATOM     14  C   UNL     1      -0.897  11.113  19.147  0.00  0.00    +0.000 C 
ATOM     15  O   UNL     1      -0.804  10.662  20.515  0.00  0.00    +0.000 OA
ENDBRANCH   5   7
ENDBRANCH   2   3
BRANCH   2  16
ATOM     16  N   UNL     1       3.805   4.077  18.070  0.00  0.00    +0.000 N 
BRANCH  16  17
ATOM     17  C   UNL     1       4.677   4.406  16.978  0.00  0.00    +0.000 A 
ATOM     18  C   UNL     1       4.673   5.671  16.384  0.00  0.00    +0.000 A 
ATOM     19  C   UNL     1       5.482   5.919  15.271  0.00  0.00    +0.000 A 
ATOM     20  C   UNL     1       6.316   4.914  14.780  0.00  0.00    +0.000 A 
ATOM     21 CL   UNL     1       7.299   5.217  13.402  0.00  0.00    +0.000 Cl
ATOM     22  C   UNL     1       6.357   3.666  15.398  0.00  0.00    +0.000 A 
ATOM     23  C   UNL     1       5.523   3.407  16.487  0.00  0.00    +0.000 A 
ENDBRANCH  16  17
BRANCH  16  24
ATOM     24  S   UNL     1       2.203   3.685  17.617  0.00  0.00    +0.000 S 
ATOM     25  C   UNL     1       1.647   2.579  18.909  0.00  0.00    +0.000 C 
ATOM     26  O   UNL     1       1.398   4.888  17.700  0.00  0.00    +0.000 OA
ATOM     27  O   UNL     1       2.245   2.912  16.395  0.00  0.00    +0.000 OA
ENDBRANCH  16  24
ENDBRANCH   2  16
TORSDOF 5
ENDMDL
MODEL 6
REMARK VINA RESULT:      -7.6      2.908      3.517
REMARK  Name = 
REMARK  7 active torsions:
REMARK  status: ('A' for Active; 'I' for Inactive)
REMARK    1  A    between atoms: C_1  and  C_2
REMARK    2  A    between atoms: C_2  and  C_3
REMARK    3  A    between atoms: C_2  and  N_15
REMARK    4  A    between atoms: N_5  and  C_6
REMARK    5  A    between atoms: N_15  and  C_16
REMARK    6  A    between atoms: N_15  and  S_23
REMARK    7  A    between atoms: S_23  and  C_24
REMARK                            x       y       z     vdW  Elec       q    Type
REMARK                         _______ _______ _______ _____ _____    ______ ____
ROOT
ATOM      1  C   UNL     1       2.962   4.624  20.935  0.00  0.00    +0.000 C 
ATOM      2  C   UNL     1       2.618   4.621  19.438  0.00  0.00    +0.000 C 
ENDROOT
BRANCH   2   3
ATOM      3  C   UNL     1       2.039   6.005  19.126  0.00  0.00    +0.000 C 
ATOM      4  O   UNL     1       1.603   6.266  18.002  0.00  0.00    +0.000 OA
ATOM      5  N   UNL     1       2.058   6.900  20.191  0.00  0.00    +0.000 N 
ATOM      6  H   UNL     1       2.774   6.723  20.883  0.00  0.00    +0.000 HD
BRANCH   5   7
ATOM      7  C   UNL     1       1.659   8.238  20.046  0.00  0.00    +0.000 A 
ATOM      8  C   UNL     1       1.755   8.878  18.795  0.00  0.00    +0.000 A 
ATOM      9  C   UNL     1       1.343  10.205  18.646  0.00  0.00    +0.000 A 
ATOM     10  C   UNL     1       0.897  10.865  19.770  0.00  0.00    +0.000 A 
ATOM     11  C   UNL     1       0.806  10.240  20.991  0.00  0.00    +0.000 A 
ATOM     12  C   UNL     1       1.141   8.913  21.155  0.00  0.00    +0.000 A 
ATOM     13  O   UNL     1       0.379  11.077  21.973  0.00  0.00    +0.000 OA
ATOM     14  C   UNL     1       0.273  12.318  21.241  0.00  0.00    +0.000 C 
ATOM     15  O   UNL     1       0.514  12.169  19.827  0.00  0.00    +0.000 OA
ENDBRANCH   5   7
ENDBRANCH   2   3
BRANCH   2  16
ATOM     16  N   UNL     1       3.810   4.201  18.632  0.00  0.00    +0.000 N 
BRANCH  16  17
ATOM     17  C   UNL     1       4.900   5.097  18.368  0.00  0.00    +0.000 A 
ATOM     18  C   UNL     1       6.086   5.058  19.105  0.00  0.00    +0.000 A 
ATOM     19  C   UNL     1       7.086   6.005  18.865  0.00  0.00    +0.000 A 
ATOM     20  C   UNL     1       6.912   6.962  17.865  0.00  0.00    +0.000 A 
ATOM     21 CL   UNL     1       8.137   8.134  17.582  0.00  0.00    +0.000 Cl
ATOM     22  C   UNL     1       5.751   6.976  17.096  0.00  0.00    +0.000 A 
ATOM     23  C   UNL     1       4.736   6.054  17.361  0.00  0.00    +0.000 A 
ENDBRANCH  16  17
BRANCH  16  24
ATOM     24  S   UNL     1       3.600   2.963  17.471  0.00  0.00    +0.000 S 
ATOM     25  C   UNL     1       3.597   1.459  18.440  0.00  0.00    +0.000 C 
ATOM     26  O   UNL     1       2.282   3.105  16.885  0.00  0.00    +0.000 OA
ATOM     27  O   UNL     1       4.777   2.916  16.629  0.00  0.00    +0.000 OA
ENDBRANCH  16  24
ENDBRANCH   2  16
TORSDOF 5
ENDMDL
MODEL 7
REMARK VINA RESULT:      -7.6      4.437      8.650
REMARK  Name = 
REMARK  7 active torsions:
REMARK  status: ('A' for Active; 'I' for Inactive)
REMARK    1  A    between atoms: C_1  and  C_2
REMARK    2  A    between atoms: C_2  and  C_3
REMARK    3  A    between atoms: C_2  and  N_15
REMARK    4  A    between atoms: N_5  and  C_6
REMARK    5  A    between atoms: N_15  and  C_16
REMARK    6  A    between atoms: N_15  and  S_23
REMARK    7  A    between atoms: S_23  and  C_24
REMARK                            x       y       z     vdW  Elec       q    Type
REMARK                         _______ _______ _______ _____ _____    ______ ____
ROOT
ATOM      1  C   UNL     1      -0.050   9.150  20.979  0.00  0.00    +0.000 C 
ATOM      2  C   UNL     1       0.950   9.885  20.075  0.00  0.00    +0.000 C 
ENDROOT
BRANCH   2   3
ATOM      3  C   UNL     1       1.477   8.847  19.079  0.00  0.00    +0.000 C 
ATOM      4  O   UNL     1       1.272   8.975  17.870  0.00  0.00    +0.000 OA
ATOM      5  N   UNL     1       2.177   7.790  19.652  0.00  0.00    +0.000 N 
ATOM      6  H   UNL     1       1.929   7.587  20.612  0.00  0.00    +0.000 HD
BRANCH   5   7
ATOM      7  C   UNL     1       2.638   6.703  18.892  0.00  0.00    +0.000 A 
ATOM      8  C   UNL     1       2.044   5.433  19.032  0.00  0.00    +0.000 A 
ATOM      9  C   UNL     1       2.491   4.355  18.264  0.00  0.00    +0.000 A 
ATOM     10  C   UNL     1       3.557   4.573  17.416  0.00  0.00    +0.000 A 
ATOM     11  C   UNL     1       4.136   5.812  17.283  0.00  0.00    +0.000 A 
ATOM     12  C   UNL     1       3.674   6.910  17.977  0.00  0.00    +0.000 A 
ATOM     13  O   UNL     1       5.192   5.802  16.427  0.00  0.00    +0.000 OA
ATOM     14  C   UNL     1       5.249   4.400  16.087  0.00  0.00    +0.000 C 
ATOM     15  O   UNL     1       4.160   3.633  16.641  0.00  0.00    +0.000 OA
ENDBRANCH   5   7
ENDBRANCH   2   3
BRANCH   2  16
ATOM     16  N   UNL     1       0.316  11.110  19.487  0.00  0.00    +0.000 N 
BRANCH  16  17
ATOM     17  C   UNL     1      -1.002  11.082  18.918  0.00  0.00    +0.000 A 
ATOM     18  C   UNL     1      -1.294  10.351  17.764  0.00  0.00    +0.000 A 
ATOM     19  C   UNL     1      -2.572  10.421  17.202  0.00  0.00    +0.000 A 
ATOM     20  C   UNL     1      -3.561  11.191  17.816  0.00  0.00    +0.000 A 
ATOM     21 CL   UNL     1      -5.128  11.287  17.115  0.00  0.00    +0.000 Cl
ATOM     22  C   UNL     1      -3.287  11.883  18.993  0.00  0.00    +0.000 A 
ATOM     23  C   UNL     1      -2.000  11.843  19.534  0.00  0.00    +0.000 A 
ENDBRANCH  16  17
BRANCH  16  24
ATOM     24  S   UNL     1       1.343  12.326  18.862  0.00  0.00    +0.000 S 
ATOM     25  C   UNL     1       2.052  13.084  20.319  0.00  0.00    +0.000 C 
ATOM     26  O   UNL     1       2.422  11.685  18.137  0.00  0.00    +0.000 OA
ATOM     27  O   UNL     1       0.526  13.335  18.221  0.00  0.00    +0.000 OA
ENDBRANCH  16  24
ENDBRANCH   2  16
TORSDOF 5
ENDMDL
MODEL 8
REMARK VINA RESULT:      -7.5      0.632      1.348
REMARK  Name = 
REMARK  7 active torsions:
REMARK  status: ('A' for Active; 'I' for Inactive)
REMARK    1  A    between atoms: C_1  and  C_2
REMARK    2  A    between atoms: C_2  and  C_3
REMARK    3  A    between atoms: C_2  and  N_15
REMARK    4  A    between atoms: N_5  and  C_6
REMARK    5  A    between atoms: N_15  and  C_16
REMARK    6  A    between atoms: N_15  and  S_23
REMARK    7  A    between atoms: S_23  and  C_24
REMARK                            x       y       z     vdW  Elec       q    Type
REMARK                         _______ _______ _______ _____ _____    ______ ____
ROOT
ATOM      1  C   UNL     1       4.566   3.073  18.832  0.00  0.00    +0.000 C 
ATOM      2  C   UNL     1       4.200   4.195  17.850  0.00  0.00    +0.000 C 
ENDROOT
BRANCH   2   3
ATOM      3  C   UNL     1       3.197   5.097  18.578  0.00  0.00    +0.000 C 
ATOM      4  O   UNL     1       2.272   4.610  19.232  0.00  0.00    +0.000 OA
ATOM      5  N   UNL     1       3.424   6.461  18.430  0.00  0.00    +0.000 N 
ATOM      6  H   UNL     1       3.919   6.721  17.587  0.00  0.00    +0.000 HD
BRANCH   5   7
ATOM      7  C   UNL     1       2.541   7.423  18.947  0.00  0.00    +0.000 A 
ATOM      8  C   UNL     1       2.107   7.345  20.285  0.00  0.00    +0.000 A 
ATOM      9  C   UNL     1       1.241   8.311  20.805  0.00  0.00    +0.000 A 
ATOM     10  C   UNL     1       0.797   9.297  19.950  0.00  0.00    +0.000 A 
ATOM     11  C   UNL     1       1.220   9.371  18.645  0.00  0.00    +0.000 A 
ATOM     12  C   UNL     1       2.126   8.471  18.122  0.00  0.00    +0.000 A 
ATOM     13  O   UNL     1       0.635  10.393  17.965  0.00  0.00    +0.000 OA
ATOM     14  C   UNL     1      -0.253  10.913  18.977  0.00  0.00    +0.000 C 
ATOM     15  O   UNL     1      -0.089  10.279  20.263  0.00  0.00    +0.000 OA
ENDBRANCH   5   7
ENDBRANCH   2   3
BRANCH   2  16
ATOM     16  N   UNL     1       5.441   4.861  17.336  0.00  0.00    +0.000 N 
BRANCH  16  17
ATOM     17  C   UNL     1       5.910   4.658  15.995  0.00  0.00    +0.000 A 
ATOM     18  C   UNL     1       7.078   5.259  15.521  0.00  0.00    +0.000 A 
ATOM     19  C   UNL     1       7.450   5.097  14.183  0.00  0.00    +0.000 A 
ATOM     20  C   UNL     1       6.673   4.306  13.336  0.00  0.00    +0.000 A 
ATOM     21 CL   UNL     1       7.125   4.121  11.687  0.00  0.00    +0.000 Cl
ATOM     22  C   UNL     1       5.533   3.668  13.816  0.00  0.00    +0.000 A 
ATOM     23  C   UNL     1       5.141   3.859  15.142  0.00  0.00    +0.000 A 
ENDBRANCH  16  17
BRANCH  16  24
ATOM     24  S   UNL     1       6.654   5.283  18.465  0.00  0.00    +0.000 S 
ATOM     25  C   UNL     1       7.238   6.876  17.897  0.00  0.00    +0.000 C 
ATOM     26  O   UNL     1       6.025   5.487  19.756  0.00  0.00    +0.000 OA
ATOM     27  O   UNL     1       7.758   4.358  18.324  0.00  0.00    +0.000 OA
ENDBRANCH  16  24
ENDBRANCH   2  16
TORSDOF 5
ENDMDL
MODEL 9
REMARK VINA RESULT:      -7.5      3.271      7.412
REMARK  Name = 
REMARK  7 active torsions:
REMARK  status: ('A' for Active; 'I' for Inactive)
REMARK    1  A    between atoms: C_1  and  C_2
REMARK    2  A    between atoms: C_2  and  C_3
REMARK    3  A    between atoms: C_2  and  N_15
REMARK    4  A    between atoms: N_5  and  C_6
REMARK    5  A    between atoms: N_15  and  C_16
REMARK    6  A    between atoms: N_15  and  S_23
REMARK    7  A    between atoms: S_23  and  C_24
REMARK                            x       y       z     vdW  Elec       q    Type
REMARK                         _______ _______ _______ _____ _____    ______ ____
ROOT
ATOM      1  C   UNL     1       4.422   2.188  19.981  0.00  0.00    +0.000 C 
ATOM      2  C   UNL     1       4.314   3.706  19.781  0.00  0.00    +0.000 C 
ENDROOT
BRANCH   2   3
ATOM      3  C   UNL     1       5.340   4.074  18.703  0.00  0.00    +0.000 C 
ATOM      4  O   UNL     1       6.461   4.482  19.013  0.00  0.00    +0.000 OA
ATOM      5  N   UNL     1       4.894   3.912  17.395  0.00  0.00    +0.000 N 
ATOM      6  H   UNL     1       3.892   3.975  17.275  0.00  0.00    +0.000 HD
BRANCH   5   7
ATOM      7  C   UNL     1       5.671   4.298  16.291  0.00  0.00    +0.000 A 
ATOM      8  C   UNL     1       6.508   5.429  16.369  0.00  0.00    +0.000 A 
ATOM      9  C   UNL     1       7.293   5.805  15.277  0.00  0.00    +0.000 A 
ATOM     10  C   UNL     1       7.175   5.064  14.120  0.00  0.00    +0.000 A 
ATOM     11  C   UNL     1       6.357   3.963  14.044  0.00  0.00    +0.000 A 
ATOM     12  C   UNL     1       5.620   3.528  15.126  0.00  0.00    +0.000 A 
ATOM     13  O   UNL     1       6.357   3.399  12.807  0.00  0.00    +0.000 OA
ATOM     14  C   UNL     1       7.222   4.312  12.097  0.00  0.00    +0.000 C 
ATOM     15  O   UNL     1       7.813   5.316  12.947  0.00  0.00    +0.000 OA
ENDBRANCH   5   7
ENDBRANCH   2   3
BRANCH   2  16
ATOM     16  N   UNL     1       2.893   4.095  19.506  0.00  0.00    +0.000 N 
BRANCH  16  17
ATOM     17  C   UNL     1       2.495   5.466  19.364  0.00  0.00    +0.000 A 
ATOM     18  C   UNL     1       2.461   6.101  18.121  0.00  0.00    +0.000 A 
ATOM     19  C   UNL     1       2.147   7.461  18.042  0.00  0.00    +0.000 A 
ATOM     20  C   UNL     1       1.832   8.170  19.202  0.00  0.00    +0.000 A 
ATOM     21 CL   UNL     1       1.460   9.846  19.106  0.00  0.00    +0.000 Cl
ATOM     22  C   UNL     1       1.820   7.530  20.439  0.00  0.00    +0.000 A 
ATOM     23  C   UNL     1       2.170   6.181  20.521  0.00  0.00    +0.000 A 
ENDBRANCH  16  17
BRANCH  16  24
ATOM     24  S   UNL     1       1.655   3.039  20.034  0.00  0.00    +0.000 S 
ATOM     25  C   UNL     1       2.029   2.764  21.762  0.00  0.00    +0.000 C 
ATOM     26  O   UNL     1       0.392   3.747  19.971  0.00  0.00    +0.000 OA
ATOM     27  O   UNL     1       1.817   1.766  19.364  0.00  0.00    +0.000 OA
ENDBRANCH  16  24
ENDBRANCH   2  16
TORSDOF 5
ENDMDL
