MODEL 1
REMARK VINA RESULT:      -8.0      0.000      0.000
REMARK  Name = 
REMARK  9 active torsions:
REMARK  status: ('A' for Active; 'I' for Inactive)
REMARK    1  A    between atoms: C_1  and  O_2
REMARK    2  A    between atoms: O_2  and  C_3
REMARK    3  A    between atoms: N_8  and  C_9
REMARK    4  A    between atoms: C_10  and  O_11
REMARK    5  A    between atoms: C_12  and  N_13
REMARK    6  A    between atoms: N_13  and  C_14
REMARK    7  A    between atoms: C_14  and  C_15
REMARK    8  A    between atoms: C_28  and  O_29
REMARK    9  A    between atoms: O_29  and  C_30
REMARK                            x       y       z     vdW  Elec       q    Type
REMARK                         _______ _______ _______ _____ _____    ______ ____
ROOT
ATOM      1  C   UNL     1       1.953   4.755  19.653  0.00  0.00    +0.000 C 
ATOM      2  C   UNL     1       3.214   3.955  20.060  0.00  0.00    +0.000 C 
ATOM      3  C   UNL     1       3.663   2.814  19.088  0.00  0.00    +0.000 C 
ATOM      4  C   UNL     1       2.502   2.337  18.168  0.00  0.00    +0.000 C 
ATOM      5  C   UNL     1       1.332   1.709  18.892  0.00  0.00    +0.000 C 
ATOM      6  O   UNL     1       0.583   2.817  19.398  0.00  0.00    +0.000 OA
ATOM      7  C   UNL     1       1.080   3.965  18.673  0.00  0.00    +0.000 C 
ATOM      8  O   UNL     1       1.874   3.484  17.585  0.00  0.00    +0.000 OA
ENDROOT
BRANCH   1  14
ATOM      9  C   UNL     1       0.777   9.842  20.185  0.00  0.00    +0.000 A 
ATOM     10  C   UNL     1       1.680   9.582  19.129  0.00  0.00    +0.000 A 
ATOM     11  C   UNL     1       2.101   8.267  18.887  0.00  0.00    +0.000 A 
ATOM     12  N   UNL     1       2.868   7.767  17.867  0.00  0.00    +0.000 NA
ATOM     13  C   UNL     1       2.886   6.463  18.052  0.00  0.00    +0.000 A 
ATOM     14  N   UNL     1       2.212   6.107  19.183  0.00  0.00    +0.000 N 
ATOM     15  C   UNL     1       1.694   7.259  19.741  0.00  0.00    +0.000 A 
ATOM     16  C   UNL     1       0.899   7.509  20.869  0.00  0.00    +0.000 A 
ATOM     17  C   UNL     1       0.427   8.818  21.079  0.00  0.00    +0.000 A 
BRANCH   9  19
ATOM     18  C   UNL     1      -0.900  11.357  19.500  0.00  0.00    +0.000 C 
ATOM     19  O   UNL     1       0.236  11.095  20.332  0.00  0.00    +0.000 OA
ENDBRANCH   9  19
BRANCH  17  20
ATOM     20  O   UNL     1      -0.399   8.860  22.172  0.00  0.00    +0.000 OA
ATOM     21  C   UNL     1       0.013   9.507  23.362  0.00  0.00    +0.000 C 
ENDBRANCH  17  20
ENDBRANCH   1  14
BRANCH   2  22
ATOM     22  O   UNL     1       3.005   3.360  21.364  0.00  0.00    +0.000 OA
ATOM     23  H   UNL     1       2.939   4.073  22.024  0.00  0.00    +0.000 HD
ENDBRANCH   2  22
BRANCH   3  24
ATOM     24  N   UNL     1       4.757   3.217  18.182  0.00  0.00    +0.000 NA
ATOM     25  H   UNL     1       5.410   2.439  18.074  0.00  0.00    +0.000 HD
BRANCH  24  26
ATOM     26  C   UNL     1       5.527   4.396  18.588  0.00  0.00    +0.000 C 
BRANCH  26  27
ATOM     27  C   UNL     1       6.697   4.587  17.588  0.00  0.00    +0.000 C 
ATOM     28  C   UNL     1       6.377   5.608  16.479  0.00  0.00    +0.000 C 
ATOM     29  C   UNL     1       6.328   7.040  17.005  0.00  0.00    +0.000 C 
ATOM     30  C   UNL     1       7.632   7.416  17.698  0.00  0.00    +0.000 C 
ATOM     31  C   UNL     1       8.003   6.425  18.798  0.00  0.00    +0.000 C 
ATOM     32  C   UNL     1       8.004   4.983  18.296  0.00  0.00    +0.000 C 
ENDBRANCH  26  27
ENDBRANCH  24  26
ENDBRANCH   3  24
TORSDOF 7
ENDMDL
MODEL 2
REMARK VINA RESULT:      -7.7      1.125      1.370
REMARK  Name = 
REMARK  9 active torsions:
REMARK  status: ('A' for Active; 'I' for Inactive)
REMARK    1  A    between atoms: C_1  and  O_2
REMARK    2  A    between atoms: O_2  and  C_3
REMARK    3  A    between atoms: N_8  and  C_9
REMARK    4  A    between atoms: C_10  and  O_11
REMARK    5  A    between atoms: C_12  and  N_13
REMARK    6  A    between atoms: N_13  and  C_14
REMARK    7  A    between atoms: C_14  and  C_15
REMARK    8  A    between atoms: C_28  and  O_29
REMARK    9  A    between atoms: O_29  and  C_30
REMARK                            x       y       z     vdW  Elec       q    Type
REMARK                         _______ _______ _______ _____ _____    ______ ____
ROOT
ATOM      1  C   UNL     1       2.209   5.284  19.167  0.00  0.00    +0.000 C 
ATOM      2  C   UNL     1       3.283   4.656  20.088  0.00  0.00    +0.000 C 
ATOM      3  C   UNL     1       4.026   3.395  19.536  0.00  0.00    +0.000 C 
ATOM      4  C   UNL     1       3.222   2.686  18.408  0.00  0.00    +0.000 C 
ATOM      5  C   UNL     1       1.888   2.117  18.839  0.00  0.00    +0.000 C 
ATOM      6  O   UNL     1       1.007   3.244  18.869  0.00  0.00    +0.000 OA
ATOM      7  C   UNL     1       1.698   4.276  18.131  0.00  0.00    +0.000 C 
ATOM      8  O   UNL     1       2.801   3.667  17.455  0.00  0.00    +0.000 OA
ENDROOT
BRANCH   1  14
ATOM      9  C   UNL     1       1.236  10.432  18.845  0.00  0.00    +0.000 A 
ATOM     10  C   UNL     1       2.247   9.995  17.960  0.00  0.00    +0.000 A 
ATOM     11  C   UNL     1       2.628   8.645  17.955  0.00  0.00    +0.000 A 
ATOM     12  N   UNL     1       3.488   7.982  17.120  0.00  0.00    +0.000 NA
ATOM     13  C   UNL     1       3.416   6.717  17.482  0.00  0.00    +0.000 A 
ATOM     14  N   UNL     1       2.592   6.547  18.554  0.00  0.00    +0.000 N 
ATOM     15  C   UNL     1       2.069   7.783  18.879  0.00  0.00    +0.000 A 
ATOM     16  C   UNL     1       1.155   8.216  19.850  0.00  0.00    +0.000 A 
ATOM     17  C   UNL     1       0.727   9.557  19.818  0.00  0.00    +0.000 A 
BRANCH   9  19
ATOM     18  C   UNL     1       1.746  12.727  18.631  0.00  0.00    +0.000 C 
ATOM     19  O   UNL     1       0.745  11.710  18.750  0.00  0.00    +0.000 OA
ENDBRANCH   9  19
BRANCH  17  20
ATOM     20  O   UNL     1      -0.223   9.780  20.780  0.00  0.00    +0.000 OA
ATOM     21  C   UNL     1       0.069  10.584  21.908  0.00  0.00    +0.000 C 
ENDBRANCH  17  20
ENDBRANCH   1  14
BRANCH   2  22
ATOM     22  O   UNL     1       2.676   4.287  21.351  0.00  0.00    +0.000 OA
ATOM     23  H   UNL     1       2.367   3.365  21.290  0.00  0.00    +0.000 HD
ENDBRANCH   2  22
BRANCH   3  24
ATOM     24  N   UNL     1       5.348   3.705  18.955  0.00  0.00    +0.000 NA
ATOM     25  H   UNL     1       6.016   2.984  19.231  0.00  0.00    +0.000 HD
BRANCH  24  26
ATOM     26  C   UNL     1       5.918   5.006  19.314  0.00  0.00    +0.000 C 
BRANCH  26  27
ATOM     27  C   UNL     1       7.348   5.096  18.720  0.00  0.00    +0.000 C 
ATOM     28  C   UNL     1       7.441   4.528  17.290  0.00  0.00    +0.000 C 
ATOM     29  C   UNL     1       6.742   5.417  16.265  0.00  0.00    +0.000 C 
ATOM     30  C   UNL     1       7.299   6.836  16.298  0.00  0.00    +0.000 C 
ATOM     31  C   UNL     1       7.245   7.441  17.699  0.00  0.00    +0.000 C 
ATOM     32  C   UNL     1       7.894   6.534  18.742  0.00  0.00    +0.000 C 
ENDBRANCH  26  27
ENDBRANCH  24  26
ENDBRANCH   3  24
TORSDOF 7
ENDMDL
MODEL 3
REMARK VINA RESULT:      -7.6      0.694      1.260
REMARK  Name = 
REMARK  9 active torsions:
REMARK  status: ('A' for Active; 'I' for Inactive)
REMARK    1  A    between atoms: C_1  and  O_2
REMARK    2  A    between atoms: O_2  and  C_3
REMARK    3  A    between atoms: N_8  and  C_9
REMARK    4  A    between atoms: C_10  and  O_11
REMARK    5  A    between atoms: C_12  and  N_13
REMARK    6  A    between atoms: N_13  and  C_14
REMARK    7  A    between atoms: C_14  and  C_15
REMARK    8  A    between atoms: C_28  and  O_29
REMARK    9  A    between atoms: O_29  and  C_30
REMARK                            x       y       z     vdW  Elec       q    Type
REMARK                         _______ _______ _______ _____ _____    ______ ____
ROOT
ATOM      1  C   UNL     1       2.161   4.889  19.368  0.00  0.00    +0.000 C 
ATOM      2  C   UNL     1       3.318   4.289  20.203  0.00  0.00    +0.000 C 
ATOM      3  C   UNL     1       4.228   3.239  19.484  0.00  0.00    +0.000 C 
ATOM      4  C   UNL     1       3.523   2.596  18.255  0.00  0.00    +0.000 C 
ATOM      5  C   UNL     1       2.285   1.790  18.579  0.00  0.00    +0.000 C 
ATOM      6  O   UNL     1       1.255   2.766  18.760  0.00  0.00    +0.000 OA
ATOM      7  C   UNL     1       1.790   3.982  18.190  0.00  0.00    +0.000 C 
ATOM      8  O   UNL     1       2.963   3.637  17.448  0.00  0.00    +0.000 OA
ENDROOT
BRANCH   1  14
ATOM      9  C   UNL     1       0.808   9.901  20.140  0.00  0.00    +0.000 A 
ATOM     10  C   UNL     1       1.697   9.720  19.056  0.00  0.00    +0.000 A 
ATOM     11  C   UNL     1       2.161   8.433  18.749  0.00  0.00    +0.000 A 
ATOM     12  N   UNL     1       2.924   8.006  17.694  0.00  0.00    +0.000 NA
ATOM     13  C   UNL     1       2.994   6.697  17.823  0.00  0.00    +0.000 A 
ATOM     14  N   UNL     1       2.359   6.269  18.951  0.00  0.00    +0.000 N 
ATOM     15  C   UNL     1       1.811   7.376  19.568  0.00  0.00    +0.000 A 
ATOM     16  C   UNL     1       1.032   7.548  20.721  0.00  0.00    +0.000 A 
ATOM     17  C   UNL     1       0.516   8.828  20.997  0.00  0.00    +0.000 A 
BRANCH   9  19
ATOM     18  C   UNL     1      -0.536  11.623  19.246  0.00  0.00    +0.000 C 
ATOM     19  O   UNL     1       0.224  11.126  20.352  0.00  0.00    +0.000 OA
ENDBRANCH   9  19
BRANCH  17  20
ATOM     20  O   UNL     1      -0.286   8.793  22.108  0.00  0.00    +0.000 OA
ATOM     21  C   UNL     1       0.045   9.545  23.260  0.00  0.00    +0.000 C 
ENDBRANCH  17  20
ENDBRANCH   1  14
BRANCH   2  22
ATOM     22  O   UNL     1       2.777   3.659  21.390  0.00  0.00    +0.000 OA
ATOM     23  H   UNL     1       3.197   4.059  22.173  0.00  0.00    +0.000 HD
ENDBRANCH   2  22
BRANCH   3  24
ATOM     24  N   UNL     1       5.489   3.812  18.973  0.00  0.00    +0.000 NA
ATOM     25  H   UNL     1       6.278   3.297  19.367  0.00  0.00    +0.000 HD
BRANCH  24  26
ATOM     26  C   UNL     1       5.704   5.236  19.244  0.00  0.00    +0.000 C 
BRANCH  26  27
ATOM     27  C   UNL     1       7.031   5.670  18.569  0.00  0.00    +0.000 C 
ATOM     28  C   UNL     1       7.656   4.556  17.706  0.00  0.00    +0.000 C 
ATOM     29  C   UNL     1       6.860   4.294  16.431  0.00  0.00    +0.000 C 
ATOM     30  C   UNL     1       6.706   5.567  15.606  0.00  0.00    +0.000 C 
ATOM     31  C   UNL     1       6.104   6.708  16.422  0.00  0.00    +0.000 C 
ATOM     32  C   UNL     1       6.862   6.945  17.727  0.00  0.00    +0.000 C 
ENDBRANCH  26  27
ENDBRANCH  24  26
ENDBRANCH   3  24
TORSDOF 7
ENDMDL
MODEL 4
REMARK VINA RESULT:      -7.4      1.577      2.271
REMARK  Name = 
REMARK  9 active torsions:
REMARK  status: ('A' for Active; 'I' for Inactive)
REMARK    1  A    between atoms: C_1  and  O_2
REMARK    2  A    between atoms: O_2  and  C_3
REMARK    3  A    between atoms: N_8  and  C_9
REMARK    4  A    between atoms: C_10  and  O_11
REMARK    5  A    between atoms: C_12  and  N_13
REMARK    6  A    between atoms: N_13  and  C_14
REMARK    7  A    between atoms: C_14  and  C_15
REMARK    8  A    between atoms: C_28  and  O_29
REMARK    9  A    between atoms: O_29  and  C_30
REMARK                            x       y       z     vdW  Elec       q    Type
REMARK                         _______ _______ _______ _____ _____    ______ ____
ROOT
ATOM      1  C   UNL     1       3.205   5.694  19.942  0.00  0.00    +0.000 C 
ATOM      2  C   UNL     1       4.297   4.826  19.271  0.00  0.00    +0.000 C 
ATOM      3  C   UNL     1       3.824   3.482  18.626  0.00  0.00    +0.000 C 
ATOM      4  C   UNL     1       2.464   2.998  19.209  0.00  0.00    +0.000 C 
ATOM      5  C   UNL     1       2.486   2.665  20.684  0.00  0.00    +0.000 C 
ATOM      6  O   UNL     1       2.408   3.932  21.342  0.00  0.00    +0.000 OA
ATOM      7  C   UNL     1       1.977   4.858  20.319  0.00  0.00    +0.000 C 
ATOM      8  O   UNL     1       1.541   4.092  19.193  0.00  0.00    +0.000 OA
ENDROOT
BRANCH   1  14
ATOM      9  C   UNL     1       0.060   9.892  19.759  0.00  0.00    +0.000 A 
ATOM     10  C   UNL     1       0.905   9.774  18.634  0.00  0.00    +0.000 A 
ATOM     11  C   UNL     1       1.817   8.711  18.560  0.00  0.00    +0.000 A 
ATOM     12  N   UNL     1       2.642   8.335  17.532  0.00  0.00    +0.000 NA
ATOM     13  C   UNL     1       3.215   7.221  17.937  0.00  0.00    +0.000 A 
ATOM     14  N   UNL     1       2.840   6.895  19.207  0.00  0.00    +0.000 N 
ATOM     15  C   UNL     1       1.933   7.846  19.631  0.00  0.00    +0.000 A 
ATOM     16  C   UNL     1       1.195   8.013  20.812  0.00  0.00    +0.000 A 
ATOM     17  C   UNL     1       0.237   9.044  20.864  0.00  0.00    +0.000 A 
BRANCH   9  19
ATOM     18  C   UNL     1      -0.549  12.115  20.269  0.00  0.00    +0.000 C 
ATOM     19  O   UNL     1      -0.941  10.831  19.771  0.00  0.00    +0.000 OA
ENDBRANCH   9  19
BRANCH  17  20
ATOM     20  O   UNL     1      -0.444   9.005  22.053  0.00  0.00    +0.000 OA
ATOM     21  C   UNL     1       0.118   9.566  23.224  0.00  0.00    +0.000 C 
ENDBRANCH  17  20
ENDBRANCH   1  14
BRANCH   2  22
ATOM     22  O   UNL     1       5.322   4.508  20.243  0.00  0.00    +0.000 OA
ATOM     23  H   UNL     1       4.915   4.483  21.128  0.00  0.00    +0.000 HD
ENDBRANCH   2  22
BRANCH   3  24
ATOM     24  N   UNL     1       3.628   3.572  17.165  0.00  0.00    +0.000 NA
ATOM     25  H   UNL     1       3.013   2.816  16.860  0.00  0.00    +0.000 HD
BRANCH  24  26
ATOM     26  C   UNL     1       4.845   3.518  16.350  0.00  0.00    +0.000 C 
BRANCH  26  27
ATOM     27  C   UNL     1       4.858   4.749  15.407  0.00  0.00    +0.000 C 
ATOM     28  C   UNL     1       5.960   5.766  15.764  0.00  0.00    +0.000 C 
ATOM     29  C   UNL     1       7.358   5.247  15.435  0.00  0.00    +0.000 C 
ATOM     30  C   UNL     1       7.468   4.855  13.967  0.00  0.00    +0.000 C 
ATOM     31  C   UNL     1       6.386   3.859  13.557  0.00  0.00    +0.000 C 
ATOM     32  C   UNL     1       4.986   4.344  13.929  0.00  0.00    +0.000 C 
ENDBRANCH  26  27
ENDBRANCH  24  26
ENDBRANCH   3  24
TORSDOF 7
ENDMDL
MODEL 5
REMARK VINA RESULT:      -7.4      1.399      1.849
REMARK  Name = 
REMARK  9 active torsions:
REMARK  status: ('A' for Active; 'I' for Inactive)
REMARK    1  A    between atoms: C_1  and  O_2
REMARK    2  A    between atoms: O_2  and  C_3
REMARK    3  A    between atoms: N_8  and  C_9
REMARK    4  A    between atoms: C_10  and  O_11
REMARK    5  A    between atoms: C_12  and  N_13
REMARK    6  A    between atoms: N_13  and  C_14
REMARK    7  A    between atoms: C_14  and  C_15
REMARK    8  A    between atoms: C_28  and  O_29
REMARK    9  A    between atoms: O_29  and  C_30
REMARK                            x       y       z     vdW  Elec       q    Type
REMARK                         _______ _______ _______ _____ _____    ______ ____
ROOT
ATOM      1  C   UNL     1       1.951   5.904  19.314  0.00  0.00    +0.000 C 
ATOM      2  C   UNL     1       3.146   5.504  20.213  0.00  0.00    +0.000 C 
ATOM      3  C   UNL     1       4.225   4.574  19.568  0.00  0.00    +0.000 C 
ATOM      4  C   UNL     1       3.672   3.797  18.338  0.00  0.00    +0.000 C 
ATOM      5  C   UNL     1       2.549   2.831  18.647  0.00  0.00    +0.000 C 
ATOM      6  O   UNL     1       1.384   3.654  18.753  0.00  0.00    +0.000 OA
ATOM      7  C   UNL     1       1.763   4.916  18.158  0.00  0.00    +0.000 C 
ATOM      8  O   UNL     1       3.002   4.720  17.473  0.00  0.00    +0.000 OA
ENDROOT
BRANCH   1  14
ATOM      9  C   UNL     1       0.899  10.903  20.518  0.00  0.00    +0.000 A 
ATOM     10  C   UNL     1       1.340  10.727  19.188  0.00  0.00    +0.000 A 
ATOM     11  C   UNL     1       1.681   9.444  18.735  0.00  0.00    +0.000 A 
ATOM     12  N   UNL     1       2.018   9.021  17.476  0.00  0.00    +0.000 NA
ATOM     13  C   UNL     1       2.148   7.714  17.572  0.00  0.00    +0.000 A 
ATOM     14  N   UNL     1       1.967   7.284  18.853  0.00  0.00    +0.000 N 
ATOM     15  C   UNL     1       1.662   8.387  19.625  0.00  0.00    +0.000 A 
ATOM     16  C   UNL     1       1.348   8.556  20.981  0.00  0.00    +0.000 A 
ATOM     17  C   UNL     1       0.949   9.831  21.424  0.00  0.00    +0.000 A 
BRANCH   9  19
ATOM     18  C   UNL     1       1.329  13.211  20.769  0.00  0.00    +0.000 C 
ATOM     19  O   UNL     1       0.413  12.121  20.925  0.00  0.00    +0.000 OA
ENDBRANCH   9  19
BRANCH  17  20
ATOM     20  O   UNL     1       0.600   9.791  22.749  0.00  0.00    +0.000 OA
ATOM     21  C   UNL     1      -0.756   9.900  23.140  0.00  0.00    +0.000 C 
ENDBRANCH  17  20
ENDBRANCH   1  14
BRANCH   2  22
ATOM     22  O   UNL     1       2.651   4.840  21.402  0.00  0.00    +0.000 OA
ATOM     23  H   UNL     1       3.413   4.557  21.939  0.00  0.00    +0.000 HD
ENDBRANCH   2  22
BRANCH   3  24
ATOM     24  N   UNL     1       5.412   5.306  19.082  0.00  0.00    +0.000 NA
ATOM     25  H   UNL     1       5.121   5.998  18.388  0.00  0.00    +0.000 HD
BRANCH  24  26
ATOM     26  C   UNL     1       6.471   4.489  18.485  0.00  0.00    +0.000 C 
BRANCH  26  27
ATOM     27  C   UNL     1       7.230   5.353  17.445  0.00  0.00    +0.000 C 
ATOM     28  C   UNL     1       7.376   4.656  16.078  0.00  0.00    +0.000 C 
ATOM     29  C   UNL     1       6.049   4.563  15.329  0.00  0.00    +0.000 C 
ATOM     30  C   UNL     1       5.423   5.940  15.147  0.00  0.00    +0.000 C 
ATOM     31  C   UNL     1       5.270   6.681  16.473  0.00  0.00    +0.000 C 
ATOM     32  C   UNL     1       6.581   6.734  17.256  0.00  0.00    +0.000 C 
ENDBRANCH  26  27
ENDBRANCH  24  26
ENDBRANCH   3  24
TORSDOF 7
ENDMDL
MODEL 6
REMARK VINA RESULT:      -7.4      1.328      1.587
REMARK  Name = 
REMARK  9 active torsions:
REMARK  status: ('A' for Active; 'I' for Inactive)
REMARK    1  A    between atoms: C_1  and  O_2
REMARK    2  A    between atoms: O_2  and  C_3
REMARK    3  A    between atoms: N_8  and  C_9
REMARK    4  A    between atoms: C_10  and  O_11
REMARK    5  A    between atoms: C_12  and  N_13
REMARK    6  A    between atoms: N_13  and  C_14
REMARK    7  A    between atoms: C_14  and  C_15
REMARK    8  A    between atoms: C_28  and  O_29
REMARK    9  A    between atoms: O_29  and  C_30
REMARK                            x       y       z     vdW  Elec       q    Type
REMARK                         _______ _______ _______ _____ _____    ______ ____
ROOT
ATOM      1  C   UNL     1       2.423   5.743  20.036  0.00  0.00    +0.000 C 
ATOM      2  C   UNL     1       3.646   4.937  19.535  0.00  0.00    +0.000 C 
ATOM      3  C   UNL     1       3.341   3.664  18.678  0.00  0.00    +0.000 C 
ATOM      4  C   UNL     1       1.895   3.136  18.905  0.00  0.00    +0.000 C 
ATOM      5  C   UNL     1       1.603   2.661  20.312  0.00  0.00    +0.000 C 
ATOM      6  O   UNL     1       1.369   3.860  21.056  0.00  0.00    +0.000 OA
ATOM      7  C   UNL     1       1.155   4.883  20.057  0.00  0.00    +0.000 C 
ATOM      8  O   UNL     1       0.981   4.233  18.796  0.00  0.00    +0.000 OA
ENDROOT
BRANCH   1  14
ATOM      9  C   UNL     1       0.614  10.651  20.469  0.00  0.00    +0.000 A 
ATOM     10  C   UNL     1       1.047  10.325  19.164  0.00  0.00    +0.000 A 
ATOM     11  C   UNL     1       1.578   9.053  18.908  0.00  0.00    +0.000 A 
ATOM     12  N   UNL     1       1.949   8.483  17.719  0.00  0.00    +0.000 NA
ATOM     13  C   UNL     1       2.288   7.246  18.017  0.00  0.00    +0.000 A 
ATOM     14  N   UNL     1       2.207   7.012  19.358  0.00  0.00    +0.000 N 
ATOM     15  C   UNL     1       1.749   8.169  19.956  0.00  0.00    +0.000 A 
ATOM     16  C   UNL     1       1.443   8.511  21.282  0.00  0.00    +0.000 A 
ATOM     17  C   UNL     1       0.855   9.766  21.532  0.00  0.00    +0.000 A 
BRANCH   9  19
ATOM     18  C   UNL     1      -1.240  12.007  19.921  0.00  0.00    +0.000 C 
ATOM     19  O   UNL     1      -0.051  11.830  20.698  0.00  0.00    +0.000 OA
ENDBRANCH   9  19
BRANCH  17  20
ATOM     20  O   UNL     1       0.548   9.894  22.861  0.00  0.00    +0.000 OA
ATOM     21  C   UNL     1      -0.799  10.011  23.281  0.00  0.00    +0.000 C 
ENDBRANCH  17  20
ENDBRANCH   1  14
BRANCH   2  22
ATOM     22  O   UNL     1       4.442   4.518  20.671  0.00  0.00    +0.000 OA
ATOM     23  H   UNL     1       5.384   4.601  20.437  0.00  0.00    +0.000 HD
ENDBRANCH   2  22
BRANCH   3  24
ATOM     24  N   UNL     1       3.463   3.897  17.225  0.00  0.00    +0.000 NA
ATOM     25  H   UNL     1       2.714   3.400  16.739  0.00  0.00    +0.000 HD
BRANCH  24  26
ATOM     26  C   UNL     1       4.734   3.498  16.615  0.00  0.00    +0.000 C 
BRANCH  26  27
ATOM     27  C   UNL     1       5.193   4.627  15.655  0.00  0.00    +0.000 C 
ATOM     28  C   UNL     1       4.934   6.037  16.221  0.00  0.00    +0.000 C 
ATOM     29  C   UNL     1       5.860   6.376  17.385  0.00  0.00    +0.000 C 
ATOM     30  C   UNL     1       7.323   6.239  16.981  0.00  0.00    +0.000 C 
ATOM     31  C   UNL     1       7.630   4.861  16.399  0.00  0.00    +0.000 C 
ATOM     32  C   UNL     1       6.675   4.489  15.267  0.00  0.00    +0.000 C 
ENDBRANCH  26  27
ENDBRANCH  24  26
ENDBRANCH   3  24
TORSDOF 7
ENDMDL
MODEL 7
REMARK VINA RESULT:      -7.4      1.840      2.468
REMARK  Name = 
REMARK  9 active torsions:
REMARK  status: ('A' for Active; 'I' for Inactive)
REMARK    1  A    between atoms: C_1  and  O_2
REMARK    2  A    between atoms: O_2  and  C_3
REMARK    3  A    between atoms: N_8  and  C_9
REMARK    4  A    between atoms: C_10  and  O_11
REMARK    5  A    between atoms: C_12  and  N_13
REMARK    6  A    between atoms: N_13  and  C_14
REMARK    7  A    between atoms: C_14  and  C_15
REMARK    8  A    between atoms: C_28  and  O_29
REMARK    9  A    between atoms: O_29  and  C_30
REMARK                            x       y       z     vdW  Elec       q    Type
REMARK                         _______ _______ _______ _____ _____    ______ ____
ROOT
ATOM      1  C   UNL     1       3.101   6.078  19.474  0.00  0.00    +0.000 C 
ATOM      2  C   UNL     1       4.389   5.537  18.807  0.00  0.00    +0.000 C 
ATOM      3  C   UNL     1       4.218   4.315  17.846  0.00  0.00    +0.000 C 
ATOM      4  C   UNL     1       2.901   3.534  18.118  0.00  0.00    +0.000 C 
ATOM      5  C   UNL     1       2.812   2.891  19.485  0.00  0.00    +0.000 C 
ATOM      6  O   UNL     1       2.454   3.960  20.365  0.00  0.00    +0.000 OA
ATOM      7  C   UNL     1       1.993   5.019  19.495  0.00  0.00    +0.000 C 
ATOM      8  O   UNL     1       1.817   4.466  18.189  0.00  0.00    +0.000 OA
ENDROOT
BRANCH   1  14
ATOM      9  C   UNL     1      -0.196  10.105  20.153  0.00  0.00    +0.000 A 
ATOM     10  C   UNL     1       0.547  10.184  18.954  0.00  0.00    +0.000 A 
ATOM     11  C   UNL     1       1.485   9.186  18.654  0.00  0.00    +0.000 A 
ATOM     12  N   UNL     1       2.226   8.994  17.517  0.00  0.00    +0.000 NA
ATOM     13  C   UNL     1       2.874   7.864  17.711  0.00  0.00    +0.000 A 
ATOM     14  N   UNL     1       2.627   7.350  18.949  0.00  0.00    +0.000 N 
ATOM     15  C   UNL     1       1.730   8.189  19.579  0.00  0.00    +0.000 A 
ATOM     16  C   UNL     1       1.097   8.157  20.830  0.00  0.00    +0.000 A 
ATOM     17  C   UNL     1       0.112   9.123  21.108  0.00  0.00    +0.000 A 
BRANCH   9  19
ATOM     18  C   UNL     1      -1.751  11.608  19.206  0.00  0.00    +0.000 C 
ATOM     19  O   UNL     1      -1.225  10.985  20.382  0.00  0.00    +0.000 OA
ENDBRANCH   9  19
BRANCH  17  20
ATOM     20  O   UNL     1      -0.457   8.889  22.333  0.00  0.00    +0.000 OA
ATOM     21  C   UNL     1      -0.093   9.669  23.457  0.00  0.00    +0.000 C 
ENDBRANCH  17  20
ENDBRANCH   1  14
BRANCH   2  22
ATOM     22  O   UNL     1       5.338   5.157  19.834  0.00  0.00    +0.000 OA
ATOM     23  H   UNL     1       4.866   4.654  20.522  0.00  0.00    +0.000 HD
ENDBRANCH   2  22
BRANCH   3  24
ATOM     24  N   UNL     1       4.175   4.696  16.420  0.00  0.00    +0.000 NA
ATOM     25  H   UNL     1       4.031   3.860  15.851  0.00  0.00    +0.000 HD
BRANCH  24  26
ATOM     26  C   UNL     1       5.357   5.391  15.905  0.00  0.00    +0.000 C 
BRANCH  26  27
ATOM     27  C   UNL     1       6.442   4.334  15.573  0.00  0.00    +0.000 C 
ATOM     28  C   UNL     1       5.924   3.211  14.652  0.00  0.00    +0.000 C 
ATOM     29  C   UNL     1       5.675   3.697  13.227  0.00  0.00    +0.000 C 
ATOM     30  C   UNL     1       6.932   4.318  12.631  0.00  0.00    +0.000 C 
ATOM     31  C   UNL     1       7.497   5.428  13.514  0.00  0.00    +0.000 C 
ATOM     32  C   UNL     1       7.700   4.969  14.956  0.00  0.00    +0.000 C 
ENDBRANCH  26  27
ENDBRANCH  24  26
ENDBRANCH   3  24
TORSDOF 7
ENDMDL
MODEL 8
REMARK VINA RESULT:      -7.3      1.396      1.787
REMARK  Name = 
REMARK  9 active torsions:
REMARK  status: ('A' for Active; 'I' for Inactive)
REMARK    1  A    between atoms: C_1  and  O_2
REMARK    2  A    between atoms: O_2  and  C_3
REMARK    3  A    between atoms: N_8  and  C_9
REMARK    4  A    between atoms: C_10  and  O_11
REMARK    5  A    between atoms: C_12  and  N_13
REMARK    6  A    between atoms: N_13  and  C_14
REMARK    7  A    between atoms: C_14  and  C_15
REMARK    8  A    between atoms: C_28  and  O_29
REMARK    9  A    between atoms: O_29  and  C_30
REMARK                            x       y       z     vdW  Elec       q    Type
REMARK                         _______ _______ _______ _____ _____    ______ ____
ROOT
ATOM      1  C   UNL     1       2.879   5.557  20.037  0.00  0.00    +0.000 C 
ATOM      2  C   UNL     1       3.911   4.633  19.348  0.00  0.00    +0.000 C 
ATOM      3  C   UNL     1       3.344   3.360  18.637  0.00  0.00    +0.000 C 
ATOM      4  C   UNL     1       1.938   2.965  19.173  0.00  0.00    +0.000 C 
ATOM      5  C   UNL     1       1.901   2.569  20.632  0.00  0.00    +0.000 C 
ATOM      6  O   UNL     1       1.913   3.810  21.344  0.00  0.00    +0.000 OA
ATOM      7  C   UNL     1       1.580   4.809  20.355  0.00  0.00    +0.000 C 
ATOM      8  O   UNL     1       1.107   4.130  19.189  0.00  0.00    +0.000 OA
ENDROOT
BRANCH   1  14
ATOM      9  C   UNL     1       0.099  10.009  19.991  0.00  0.00    +0.000 A 
ATOM     10  C   UNL     1       0.951   9.867  18.873  0.00  0.00    +0.000 A 
ATOM     11  C   UNL     1       1.772   8.736  18.766  0.00  0.00    +0.000 A 
ATOM     12  N   UNL     1       2.580   8.335  17.735  0.00  0.00    +0.000 NA
ATOM     13  C   UNL     1       3.052   7.160  18.100  0.00  0.00    +0.000 A 
ATOM     14  N   UNL     1       2.628   6.815  19.349  0.00  0.00    +0.000 N 
ATOM     15  C   UNL     1       1.797   7.820  19.801  0.00  0.00    +0.000 A 
ATOM     16  C   UNL     1       1.055   8.000  20.977  0.00  0.00    +0.000 A 
ATOM     17  C   UNL     1       0.186   9.104  21.060  0.00  0.00    +0.000 A 
BRANCH   9  19
ATOM     18  C   UNL     1      -1.711  11.071  18.909  0.00  0.00    +0.000 C 
ATOM     19  O   UNL     1      -0.820  11.028  20.029  0.00  0.00    +0.000 OA
ENDBRANCH   9  19
BRANCH  17  20
ATOM     20  O   UNL     1      -0.517   9.073  22.237  0.00  0.00    +0.000 OA
ATOM     21  C   UNL     1       0.060   9.561  23.434  0.00  0.00    +0.000 C 
ENDBRANCH  17  20
ENDBRANCH   1  14
BRANCH   2  22
ATOM     22  O   UNL     1       4.886   4.190  20.323  0.00  0.00    +0.000 OA
ATOM     23  H   UNL     1       4.428   4.017  21.165  0.00  0.00    +0.000 HD
ENDBRANCH   2  22
BRANCH   3  24
ATOM     24  N   UNL     1       3.188   3.527  17.178  0.00  0.00    +0.000 NA
ATOM     25  H   UNL     1       3.260   2.615  16.723  0.00  0.00    +0.000 HD
BRANCH  24  26
ATOM     26  C   UNL     1       4.144   4.429  16.529  0.00  0.00    +0.000 C 
BRANCH  26  27
ATOM     27  C   UNL     1       5.470   3.657  16.303  0.00  0.00    +0.000 C 
ATOM     28  C   UNL     1       5.774   3.410  14.812  0.00  0.00    +0.000 C 
ATOM     29  C   UNL     1       6.160   4.691  14.078  0.00  0.00    +0.000 C 
ATOM     30  C   UNL     1       7.351   5.370  14.746  0.00  0.00    +0.000 C 
ATOM     31  C   UNL     1       7.106   5.624  16.231  0.00  0.00    +0.000 C 
ATOM     32  C   UNL     1       6.667   4.359  16.966  0.00  0.00    +0.000 C 
ENDBRANCH  26  27
ENDBRANCH  24  26
ENDBRANCH   3  24
TORSDOF 7
ENDMDL
MODEL 9
REMARK VINA RESULT:      -7.2      1.022      1.150
REMARK  Name = 
REMARK  9 active torsions:
REMARK  status: ('A' for Active; 'I' for Inactive)
REMARK    1  A    between atoms: C_1  and  O_2
REMARK    2  A    between atoms: O_2  and  C_3
REMARK    3  A    between atoms: N_8  and  C_9
REMARK    4  A    between atoms: C_10  and  O_11
REMARK    5  A    between atoms: C_12  and  N_13
REMARK    6  A    between atoms: N_13  and  C_14
REMARK    7  A    between atoms: C_14  and  C_15
REMARK    8  A    between atoms: C_28  and  O_29
REMARK    9  A    between atoms: O_29  and  C_30
REMARK                            x       y       z     vdW  Elec       q    Type
REMARK                         _______ _______ _______ _____ _____    ______ ____
ROOT
ATOM      1  C   UNL     1       2.574   5.441  19.414  0.00  0.00    +0.000 C 
ATOM      2  C   UNL     1       3.976   4.827  19.182  0.00  0.00    +0.000 C 
ATOM      3  C   UNL     1       4.089   3.748  18.055  0.00  0.00    +0.000 C 
ATOM      4  C   UNL     1       2.713   3.104  17.719  0.00  0.00    +0.000 C 
ATOM      5  C   UNL     1       2.077   2.330  18.852  0.00  0.00    +0.000 C 
ATOM      6  O   UNL     1       1.495   3.331  19.692  0.00  0.00    +0.000 OA
ATOM      7  C   UNL     1       1.466   4.527  18.881  0.00  0.00    +0.000 C 
ATOM      8  O   UNL     1       1.750   4.147  17.532  0.00  0.00    +0.000 OA
ENDROOT
BRANCH   1  14
ATOM      9  C   UNL     1       0.484  10.157  20.382  0.00  0.00    +0.000 A 
ATOM     10  C   UNL     1       1.155  10.085  19.141  0.00  0.00    +0.000 A 
ATOM     11  C   UNL     1       1.783   8.890  18.761  0.00  0.00    +0.000 A 
ATOM     12  N   UNL     1       2.385   8.555  17.577  0.00  0.00    +0.000 NA
ATOM     13  C   UNL     1       2.725   7.289  17.706  0.00  0.00    +0.000 A 
ATOM     14  N   UNL     1       2.421   6.811  18.946  0.00  0.00    +0.000 N 
ATOM     15  C   UNL     1       1.809   7.830  19.648  0.00  0.00    +0.000 A 
ATOM     16  C   UNL     1       1.259   7.917  20.935  0.00  0.00    +0.000 A 
ATOM     17  C   UNL     1       0.577   9.095  21.295  0.00  0.00    +0.000 A 
BRANCH   9  19
ATOM     18  C   UNL     1       0.298  12.508  20.261  0.00  0.00    +0.000 C 
ATOM     19  O   UNL     1      -0.265  11.265  20.693  0.00  0.00    +0.000 OA
ENDBRANCH   9  19
BRANCH  17  20
ATOM     20  O   UNL     1       0.035   8.971  22.548  0.00  0.00    +0.000 OA
ATOM     21  C   UNL     1      -0.625  10.065  23.158  0.00  0.00    +0.000 C 
ENDBRANCH  17  20
ENDBRANCH   1  14
BRANCH   2  22
ATOM     22  O   UNL     1       4.446   4.225  20.413  0.00  0.00    +0.000 OA
ATOM     23  H   UNL     1       3.879   3.461  20.622  0.00  0.00    +0.000 HD
ENDBRANCH   2  22
BRANCH   3  24
ATOM     24  N   UNL     1       4.606   4.286  16.781  0.00  0.00    +0.000 NA
ATOM     25  H   UNL     1       5.295   3.638  16.395  0.00  0.00    +0.000 HD
BRANCH  24  26
ATOM     26  C   UNL     1       5.225   5.612  16.848  0.00  0.00    +0.000 C 
BRANCH  26  27
ATOM     27  C   UNL     1       6.750   5.454  16.614  0.00  0.00    +0.000 C 
ATOM     28  C   UNL     1       7.460   6.798  16.356  0.00  0.00    +0.000 C 
ATOM     29  C   UNL     1       7.539   7.663  17.611  0.00  0.00    +0.000 C 
ATOM     30  C   UNL     1       8.230   6.920  18.748  0.00  0.00    +0.000 C 
ATOM     31  C   UNL     1       7.574   5.572  19.034  0.00  0.00    +0.000 C 
ATOM     32  C   UNL     1       7.440   4.718  17.774  0.00  0.00    +0.000 C 
ENDBRANCH  26  27
ENDBRANCH  24  26
ENDBRANCH   3  24
TORSDOF 7
ENDMDL
