MODEL 1
REMARK VINA RESULT:      -7.9      0.000      0.000
REMARK  Name = 
REMARK  3 active torsions:
REMARK  status: ('A' for Active; 'I' for Inactive)
REMARK    1  A    between atoms: C_1  and  N_2
REMARK    2  A    between atoms: C_4  and  C_5
REMARK    3  A    between atoms: N_11  and  C_12
REMARK                            x       y       z     vdW  Elec       q    Type
REMARK                         _______ _______ _______ _____ _____    ______ ____
ROOT
ATOM      1  C   UNL     1       3.002   6.918  18.227  0.00  0.00    +0.000 C 
ATOM      2  O   UNL     1       3.652   7.131  17.207  0.00  0.00    +0.000 OA
ATOM      3  N   UNL     1       2.384   8.007  18.934  0.00  0.00    +0.000 N 
ATOM      4  C   UNL     1       1.556   7.746  20.108  0.00  0.00    +0.000 C 
ATOM      5  C   UNL     1       1.299   8.775  21.207  0.00  0.00    +0.000 C 
ATOM      6  C   UNL     1       0.964  10.226  20.910  0.00  0.00    +0.000 C 
ATOM      7  N   UNL     1       0.591  10.602  19.560  0.00  0.00    +0.000 NA
ATOM      8  C   UNL     1       1.734  10.485  18.652  0.00  0.00    +0.000 C 
ATOM      9  C   UNL     1       2.049   9.118  18.047  0.00  0.00    +0.000 C 
ENDROOT
BRANCH   7  10
ATOM     10  C   UNL     1      -0.724  10.150  19.074  0.00  0.00    +0.000 C 
ATOM     11  C   UNL     1      -1.870  11.186  19.329  0.00  0.00    +0.000 C 
ATOM     12  C   UNL     1      -2.754  11.041  18.126  0.00  0.00    +0.000 A 
ATOM     13  C   UNL     1      -3.972  11.655  17.880  0.00  0.00    +0.000 A 
ATOM     14  C   UNL     1      -4.574  11.474  16.628  0.00  0.00    +0.000 A 
ATOM     15  C   UNL     1      -3.964  10.673  15.652  0.00  0.00    +0.000 A 
ATOM     16  C   UNL     1      -2.740  10.058  15.908  0.00  0.00    +0.000 A 
ATOM     17  C   UNL     1      -2.144  10.267  17.142  0.00  0.00    +0.000 A 
ATOM     18  C   UNL     1      -0.761   9.875  17.543  0.00  0.00    +0.000 C 
ENDBRANCH   7  10
BRANCH   1  22
ATOM     19  C   UNL     1       1.492   2.255  19.277  0.00  0.00    +0.000 C 
ATOM     20  N   UNL     1       2.272   3.463  19.147  0.00  0.00    +0.000 N 
ATOM     21  C   UNL     1       1.985   4.530  18.350  0.00  0.00    +0.000 A 
ATOM     22  C   UNL     1       2.869   5.542  18.694  0.00  0.00    +0.000 A 
ATOM     23  C   UNL     1       3.758   4.880  19.587  0.00  0.00    +0.000 A 
ATOM     24  N   UNL     1       3.382   3.633  19.877  0.00  0.00    +0.000 NA
ENDBRANCH   1  22
TORSDOF 2
ENDMDL
MODEL 2
REMARK VINA RESULT:      -7.8      4.055      6.356
REMARK  Name = 
REMARK  3 active torsions:
REMARK  status: ('A' for Active; 'I' for Inactive)
REMARK    1  A    between atoms: C_1  and  N_2
REMARK    2  A    between atoms: C_4  and  C_5
REMARK    3  A    between atoms: N_11  and  C_12
REMARK                            x       y       z     vdW  Elec       q    Type
REMARK                         _______ _______ _______ _____ _____    ______ ____
ROOT
ATOM      1  C   UNL     1       6.654   4.999  15.584  0.00  0.00    +0.000 C 
ATOM      2  O   UNL     1       7.592   5.787  15.668  0.00  0.00    +0.000 OA
ATOM      3  N   UNL     1       5.923   4.613  16.761  0.00  0.00    +0.000 N 
ATOM      4  C   UNL     1       4.767   3.727  16.652  0.00  0.00    +0.000 C 
ATOM      5  C   UNL     1       4.259   2.855  17.797  0.00  0.00    +0.000 C 
ATOM      6  C   UNL     1       4.121   3.369  19.220  0.00  0.00    +0.000 C 
ATOM      7  N   UNL     1       4.193   4.796  19.466  0.00  0.00    +0.000 NA
ATOM      8  C   UNL     1       5.545   5.299  19.217  0.00  0.00    +0.000 C 
ATOM      9  C   UNL     1       5.940   5.656  17.784  0.00  0.00    +0.000 C 
ENDROOT
BRANCH   7  10
ATOM     10  C   UNL     1       3.057   5.616  19.009  0.00  0.00    +0.000 C 
ATOM     11  C   UNL     1       2.285   6.312  20.179  0.00  0.00    +0.000 C 
ATOM     12  C   UNL     1       1.875   7.633  19.598  0.00  0.00    +0.000 A 
ATOM     13  C   UNL     1       1.079   8.611  20.173  0.00  0.00    +0.000 A 
ATOM     14  C   UNL     1       0.925   9.830  19.501  0.00  0.00    +0.000 A 
ATOM     15  C   UNL     1       1.550  10.049  18.265  0.00  0.00    +0.000 A 
ATOM     16  C   UNL     1       2.348   9.060  17.694  0.00  0.00    +0.000 A 
ATOM     17  C   UNL     1       2.511   7.867  18.382  0.00  0.00    +0.000 A 
ATOM     18  C   UNL     1       3.469   6.772  18.053  0.00  0.00    +0.000 C 
ENDBRANCH   7  10
BRANCH   1  22
ATOM     19  C   UNL     1       4.363   3.076  11.563  0.00  0.00    +0.000 C 
ATOM     20  N   UNL     1       5.330   3.671  12.454  0.00  0.00    +0.000 N 
ATOM     21  C   UNL     1       5.074   4.225  13.673  0.00  0.00    +0.000 A 
ATOM     22  C   UNL     1       6.300   4.473  14.270  0.00  0.00    +0.000 A 
ATOM     23  C   UNL     1       7.216   4.191  13.216  0.00  0.00    +0.000 A 
ATOM     24  N   UNL     1       6.629   3.685  12.130  0.00  0.00    +0.000 NA
ENDBRANCH   1  22
TORSDOF 2
ENDMDL
MODEL 3
REMARK VINA RESULT:      -7.3      3.482      5.554
REMARK  Name = 
REMARK  3 active torsions:
REMARK  status: ('A' for Active; 'I' for Inactive)
REMARK    1  A    between atoms: C_1  and  N_2
REMARK    2  A    between atoms: C_4  and  C_5
REMARK    3  A    between atoms: N_11  and  C_12
REMARK                            x       y       z     vdW  Elec       q    Type
REMARK                         _______ _______ _______ _____ _____    ______ ____
ROOT
ATOM      1  C   UNL     1       6.262   4.300  17.539  0.00  0.00    +0.000 C 
ATOM      2  O   UNL     1       7.203   4.041  18.285  0.00  0.00    +0.000 OA
ATOM      3  N   UNL     1       4.930   4.425  18.069  0.00  0.00    +0.000 N 
ATOM      4  C   UNL     1       3.822   4.798  17.193  0.00  0.00    +0.000 C 
ATOM      5  C   UNL     1       2.363   4.460  17.486  0.00  0.00    +0.000 C 
ATOM      6  C   UNL     1       1.741   4.633  18.861  0.00  0.00    +0.000 C 
ATOM      7  N   UNL     1       2.449   5.406  19.863  0.00  0.00    +0.000 NA
ATOM      8  C   UNL     1       3.663   4.710  20.294  0.00  0.00    +0.000 C 
ATOM      9  C   UNL     1       4.932   4.871  19.460  0.00  0.00    +0.000 C 
ENDROOT
BRANCH   7  10
ATOM     10  C   UNL     1       2.523   6.863  19.662  0.00  0.00    +0.000 C 
ATOM     11  C   UNL     1       1.856   7.340  18.329  0.00  0.00    +0.000 C 
ATOM     12  C   UNL     1       1.251   8.665  18.689  0.00  0.00    +0.000 A 
ATOM     13  C   UNL     1       0.619   9.573  17.854  0.00  0.00    +0.000 A 
ATOM     14  C   UNL     1       0.012  10.699  18.425  0.00  0.00    +0.000 A 
ATOM     15  C   UNL     1       0.060  10.911  19.811  0.00  0.00    +0.000 A 
ATOM     16  C   UNL     1       0.698   9.994  20.642  0.00  0.00    +0.000 A 
ATOM     17  C   UNL     1       1.273   8.871  20.067  0.00  0.00    +0.000 A 
ATOM     18  C   UNL     1       1.820   7.682  20.782  0.00  0.00    +0.000 C 
ENDBRANCH   7  10
BRANCH   1  22
ATOM     19  C   UNL     1       6.685   3.843  12.566  0.00  0.00    +0.000 C 
ATOM     20  N   UNL     1       6.700   4.351  13.917  0.00  0.00    +0.000 N 
ATOM     21  C   UNL     1       6.078   3.798  14.997  0.00  0.00    +0.000 A 
ATOM     22  C   UNL     1       6.529   4.481  16.116  0.00  0.00    +0.000 A 
ATOM     23  C   UNL     1       7.279   5.547  15.543  0.00  0.00    +0.000 A 
ATOM     24  N   UNL     1       7.399   5.453  14.217  0.00  0.00    +0.000 NA
ENDBRANCH   1  22
TORSDOF 2
ENDMDL
MODEL 4
REMARK VINA RESULT:      -7.0      4.242      8.454
REMARK  Name = 
REMARK  3 active torsions:
REMARK  status: ('A' for Active; 'I' for Inactive)
REMARK    1  A    between atoms: C_1  and  N_2
REMARK    2  A    between atoms: C_4  and  C_5
REMARK    3  A    between atoms: N_11  and  C_12
REMARK                            x       y       z     vdW  Elec       q    Type
REMARK                         _______ _______ _______ _____ _____    ______ ____
ROOT
ATOM      1  C   UNL     1      -4.107  12.712  21.600  0.00  0.00    +0.000 C 
ATOM      2  O   UNL     1      -4.595  12.449  22.696  0.00  0.00    +0.000 OA
ATOM      3  N   UNL     1      -2.680  12.703  21.421  0.00  0.00    +0.000 N 
ATOM      4  C   UNL     1      -2.103  12.950  20.102  0.00  0.00    +0.000 C 
ATOM      5  C   UNL     1      -0.686  13.475  19.885  0.00  0.00    +0.000 C 
ATOM      6  C   UNL     1       0.512  12.944  20.652  0.00  0.00    +0.000 C 
ATOM      7  N   UNL     1       0.379  11.712  21.405  0.00  0.00    +0.000 NA
ATOM      8  C   UNL     1      -0.509  11.898  22.554  0.00  0.00    +0.000 C 
ATOM      9  C   UNL     1      -2.018  11.779  22.338  0.00  0.00    +0.000 C 
ENDROOT
BRANCH   7  10
ATOM     10  C   UNL     1       0.258  10.462  20.635  0.00  0.00    +0.000 C 
ATOM     11  C   UNL     1       1.006  10.504  19.260  0.00  0.00    +0.000 C 
ATOM     12  C   UNL     1       1.524   9.106  19.094  0.00  0.00    +0.000 A 
ATOM     13  C   UNL     1       2.179   8.561  18.001  0.00  0.00    +0.000 A 
ATOM     14  C   UNL     1       2.692   7.262  18.107  0.00  0.00    +0.000 A 
ATOM     15  C   UNL     1       2.528   6.523  19.288  0.00  0.00    +0.000 A 
ATOM     16  C   UNL     1       1.867   7.079  20.381  0.00  0.00    +0.000 A 
ATOM     17  C   UNL     1       1.387   8.375  20.271  0.00  0.00    +0.000 A 
ATOM     18  C   UNL     1       0.836   9.219  21.371  0.00  0.00    +0.000 C 
ENDBRANCH   7  10
BRANCH   1  22
ATOM     19  C   UNL     1      -6.901  12.688  17.439  0.00  0.00    +0.000 C 
ATOM     20  N   UNL     1      -6.289  13.051  18.696  0.00  0.00    +0.000 N 
ATOM     21  C   UNL     1      -5.591  12.224  19.524  0.00  0.00    +0.000 A 
ATOM     22  C   UNL     1      -5.005  13.024  20.494  0.00  0.00    +0.000 A 
ATOM     23  C   UNL     1      -5.591  14.296  20.235  0.00  0.00    +0.000 A 
ATOM     24  N   UNL     1      -6.347  14.314  19.136  0.00  0.00    +0.000 NA
ENDBRANCH   1  22
TORSDOF 2
ENDMDL
MODEL 5
REMARK VINA RESULT:      -7.0      4.591      8.731
REMARK  Name = 
REMARK  3 active torsions:
REMARK  status: ('A' for Active; 'I' for Inactive)
REMARK    1  A    between atoms: C_1  and  N_2
REMARK    2  A    between atoms: C_4  and  C_5
REMARK    3  A    between atoms: N_11  and  C_12
REMARK                            x       y       z     vdW  Elec       q    Type
REMARK                         _______ _______ _______ _____ _____    ______ ____
ROOT
ATOM      1  C   UNL     1      -4.613  12.770  22.005  0.00  0.00    +0.000 C 
ATOM      2  O   UNL     1      -5.035  12.506  23.128  0.00  0.00    +0.000 OA
ATOM      3  N   UNL     1      -3.198  12.855  21.763  0.00  0.00    +0.000 N 
ATOM      4  C   UNL     1      -2.696  13.103  20.414  0.00  0.00    +0.000 C 
ATOM      5  C   UNL     1      -1.330  13.718  20.121  0.00  0.00    +0.000 C 
ATOM      6  C   UNL     1      -0.066  13.293  20.847  0.00  0.00    +0.000 C 
ATOM      7  N   UNL     1      -0.080  12.076  21.636  0.00  0.00    +0.000 NA
ATOM      8  C   UNL     1      -0.930  12.234  22.818  0.00  0.00    +0.000 C 
ATOM      9  C   UNL     1      -2.434  12.005  22.672  0.00  0.00    +0.000 C 
ENDROOT
BRANCH   7  10
ATOM     10  C   UNL     1      -0.146  10.800  20.904  0.00  0.00    +0.000 C 
ATOM     11  C   UNL     1       0.395  10.896  19.439  0.00  0.00    +0.000 C 
ATOM     12  C   UNL     1       1.059   9.569  19.217  0.00  0.00    +0.000 A 
ATOM     13  C   UNL     1       1.623   9.078  18.050  0.00  0.00    +0.000 A 
ATOM     14  C   UNL     1       2.306   7.856  18.098  0.00  0.00    +0.000 A 
ATOM     15  C   UNL     1       2.400   7.136  19.298  0.00  0.00    +0.000 A 
ATOM     16  C   UNL     1       1.829   7.637  20.466  0.00  0.00    +0.000 A 
ATOM     17  C   UNL     1       1.178   8.860  20.410  0.00  0.00    +0.000 A 
ATOM     18  C   UNL     1       0.681   9.660  21.566  0.00  0.00    +0.000 C 
ENDBRANCH   7  10
BRANCH   1  22
ATOM     19  C   UNL     1      -7.896  14.642  18.712  0.00  0.00    +0.000 C 
ATOM     20  N   UNL     1      -6.996  13.769  19.428  0.00  0.00    +0.000 N 
ATOM     21  C   UNL     1      -6.058  14.147  20.342  0.00  0.00    +0.000 A 
ATOM     22  C   UNL     1      -5.577  12.988  20.932  0.00  0.00    +0.000 A 
ATOM     23  C   UNL     1      -6.182  11.970  20.141  0.00  0.00    +0.000 A 
ATOM     24  N   UNL     1      -7.055  12.443  19.250  0.00  0.00    +0.000 NA
ENDBRANCH   1  22
TORSDOF 2
ENDMDL
MODEL 6
REMARK VINA RESULT:      -6.9      1.035      1.249
REMARK  Name = 
REMARK  3 active torsions:
REMARK  status: ('A' for Active; 'I' for Inactive)
REMARK    1  A    between atoms: C_1  and  N_2
REMARK    2  A    between atoms: C_4  and  C_5
REMARK    3  A    between atoms: N_11  and  C_12
REMARK                            x       y       z     vdW  Elec       q    Type
REMARK                         _______ _______ _______ _____ _____    ______ ____
ROOT
ATOM      1  C   UNL     1       2.522   7.252  18.614  0.00  0.00    +0.000 C 
ATOM      2  O   UNL     1       3.123   7.350  17.547  0.00  0.00    +0.000 OA
ATOM      3  N   UNL     1       1.984   8.424  19.252  0.00  0.00    +0.000 N 
ATOM      4  C   UNL     1       1.212   8.300  20.487  0.00  0.00    +0.000 C 
ATOM      5  C   UNL     1       1.053   9.429  21.501  0.00  0.00    +0.000 C 
ATOM      6  C   UNL     1       0.756  10.862  21.093  0.00  0.00    +0.000 C 
ATOM      7  N   UNL     1       0.323  11.134  19.736  0.00  0.00    +0.000 NA
ATOM      8  C   UNL     1       1.409  10.892  18.785  0.00  0.00    +0.000 C 
ATOM      9  C   UNL     1       1.641   9.466  18.288  0.00  0.00    +0.000 C 
ENDROOT
BRANCH   7  10
ATOM     10  C   UNL     1      -1.033  10.695  19.361  0.00  0.00    +0.000 C 
ATOM     11  C   UNL     1      -2.163  11.620  19.925  0.00  0.00    +0.000 C 
ATOM     12  C   UNL     1      -3.199  11.617  18.841  0.00  0.00    +0.000 A 
ATOM     13  C   UNL     1      -4.457  12.198  18.857  0.00  0.00    +0.000 A 
ATOM     14  C   UNL     1      -5.219  12.181  17.682  0.00  0.00    +0.000 A 
ATOM     15  C   UNL     1      -4.725  11.572  16.519  0.00  0.00    +0.000 A 
ATOM     16  C   UNL     1      -3.460  10.989  16.512  0.00  0.00    +0.000 A 
ATOM     17  C   UNL     1      -2.707  11.035  17.675  0.00  0.00    +0.000 A 
ATOM     18  C   UNL     1      -1.271  10.657  17.824  0.00  0.00    +0.000 C 
ENDBRANCH   7  10
BRANCH   1  22
ATOM     19  C   UNL     1       2.238   3.285  21.663  0.00  0.00    +0.000 C 
ATOM     20  N   UNL     1       2.183   4.155  20.512  0.00  0.00    +0.000 N 
ATOM     21  C   UNL     1       2.229   5.517  20.525  0.00  0.00    +0.000 A 
ATOM     22  C   UNL     1       2.365   5.929  19.208  0.00  0.00    +0.000 A 
ATOM     23  C   UNL     1       2.200   4.712  18.488  0.00  0.00    +0.000 A 
ATOM     24  N   UNL     1       2.113   3.640  19.278  0.00  0.00    +0.000 NA
ENDBRANCH   1  22
TORSDOF 2
ENDMDL
MODEL 7
REMARK VINA RESULT:      -6.9      3.936      6.480
REMARK  Name = 
REMARK  3 active torsions:
REMARK  status: ('A' for Active; 'I' for Inactive)
REMARK    1  A    between atoms: C_1  and  N_2
REMARK    2  A    between atoms: C_4  and  C_5
REMARK    3  A    between atoms: N_11  and  C_12
REMARK                            x       y       z     vdW  Elec       q    Type
REMARK                         _______ _______ _______ _____ _____    ______ ____
ROOT
ATOM      1  C   UNL     1       6.291   4.198  17.557  0.00  0.00    +0.000 C 
ATOM      2  O   UNL     1       7.191   4.595  18.292  0.00  0.00    +0.000 OA
ATOM      3  N   UNL     1       5.109   3.600  18.117  0.00  0.00    +0.000 N 
ATOM      4  C   UNL     1       4.010   3.188  17.247  0.00  0.00    +0.000 C 
ATOM      5  C   UNL     1       2.991   2.115  17.623  0.00  0.00    +0.000 C 
ATOM      6  C   UNL     1       2.342   2.045  18.994  0.00  0.00    +0.000 C 
ATOM      7  N   UNL     1       2.458   3.180  19.889  0.00  0.00    +0.000 NA
ATOM      8  C   UNL     1       3.840   3.343  20.346  0.00  0.00    +0.000 C 
ATOM      9  C   UNL     1       4.818   4.108  19.455  0.00  0.00    +0.000 C 
ENDROOT
BRANCH   7  10
ATOM     10  C   UNL     1       1.700   4.394  19.539  0.00  0.00    +0.000 C 
ATOM     11  C   UNL     1       1.616   5.432  20.707  0.00  0.00    +0.000 C 
ATOM     12  C   UNL     1       1.670   6.759  20.009  0.00  0.00    +0.000 A 
ATOM     13  C   UNL     1       1.535   8.023  20.560  0.00  0.00    +0.000 A 
ATOM     14  C   UNL     1       1.746   9.138  19.740  0.00  0.00    +0.000 A 
ATOM     15  C   UNL     1       2.069   8.978  18.385  0.00  0.00    +0.000 A 
ATOM     16  C   UNL     1       2.202   7.703  17.838  0.00  0.00    +0.000 A 
ATOM     17  C   UNL     1       2.015   6.608  18.668  0.00  0.00    +0.000 A 
ATOM     18  C   UNL     1       2.304   5.181  18.341  0.00  0.00    +0.000 C 
ENDBRANCH   7  10
BRANCH   1  22
ATOM     19  C   UNL     1       6.399   3.618  12.580  0.00  0.00    +0.000 C 
ATOM     20  N   UNL     1       6.477   4.166  13.913  0.00  0.00    +0.000 N 
ATOM     21  C   UNL     1       5.963   3.611  15.048  0.00  0.00    +0.000 A 
ATOM     22  C   UNL     1       6.450   4.351  16.115  0.00  0.00    +0.000 A 
ATOM     23  C   UNL     1       7.096   5.440  15.464  0.00  0.00    +0.000 A 
ATOM     24  N   UNL     1       7.131   5.313  14.135  0.00  0.00    +0.000 NA
ENDBRANCH   1  22
TORSDOF 2
ENDMDL
MODEL 8
REMARK VINA RESULT:      -6.8      3.856      8.265
REMARK  Name = 
REMARK  3 active torsions:
REMARK  status: ('A' for Active; 'I' for Inactive)
REMARK    1  A    between atoms: C_1  and  N_2
REMARK    2  A    between atoms: C_4  and  C_5
REMARK    3  A    between atoms: N_11  and  C_12
REMARK                            x       y       z     vdW  Elec       q    Type
REMARK                         _______ _______ _______ _____ _____    ______ ____
ROOT
ATOM      1  C   UNL     1      -3.704  12.564  20.769  0.00  0.00    +0.000 C 
ATOM      2  O   UNL     1      -4.001  12.539  21.961  0.00  0.00    +0.000 OA
ATOM      3  N   UNL     1      -2.323  12.572  20.367  0.00  0.00    +0.000 N 
ATOM      4  C   UNL     1      -1.970  12.534  18.950  0.00  0.00    +0.000 C 
ATOM      5  C   UNL     1      -0.645  13.052  18.395  0.00  0.00    +0.000 C 
ATOM      6  C   UNL     1       0.691  12.757  19.054  0.00  0.00    +0.000 C 
ATOM      7  N   UNL     1       0.765  11.725  20.070  0.00  0.00    +0.000 NA
ATOM      8  C   UNL     1       0.047  12.133  21.279  0.00  0.00    +0.000 C 
ATOM      9  C   UNL     1      -1.463  11.908  21.343  0.00  0.00    +0.000 C 
ENDROOT
BRANCH   7  10
ATOM     10  C   UNL     1       0.625  10.329  19.622  0.00  0.00    +0.000 C 
ATOM     11  C   UNL     1       1.492   9.990  18.364  0.00  0.00    +0.000 C 
ATOM     12  C   UNL     1       1.923   8.573  18.600  0.00  0.00    +0.000 A 
ATOM     13  C   UNL     1       2.633   7.740  17.749  0.00  0.00    +0.000 A 
ATOM     14  C   UNL     1       3.041   6.488  18.222  0.00  0.00    +0.000 A 
ATOM     15  C   UNL     1       2.722   6.077  19.525  0.00  0.00    +0.000 A 
ATOM     16  C   UNL     1       2.008   6.920  20.374  0.00  0.00    +0.000 A 
ATOM     17  C   UNL     1       1.632   8.168  19.900  0.00  0.00    +0.000 A 
ATOM     18  C   UNL     1       1.047   9.286  20.697  0.00  0.00    +0.000 C 
ENDBRANCH   7  10
BRANCH   1  22
ATOM     19  C   UNL     1      -7.767  13.558  18.008  0.00  0.00    +0.000 C 
ATOM     20  N   UNL     1      -6.532  13.000  18.505  0.00  0.00    +0.000 N 
ATOM     21  C   UNL     1      -5.729  13.538  19.466  0.00  0.00    +0.000 A 
ATOM     22  C   UNL     1      -4.778  12.580  19.783  0.00  0.00    +0.000 A 
ATOM     23  C   UNL     1      -5.015  11.578  18.799  0.00  0.00    +0.000 A 
ATOM     24  N   UNL     1      -6.087  11.824  18.044  0.00  0.00    +0.000 NA
ENDBRANCH   1  22
TORSDOF 2
ENDMDL
MODEL 9
REMARK VINA RESULT:      -6.7      3.484      7.856
REMARK  Name = 
REMARK  3 active torsions:
REMARK  status: ('A' for Active; 'I' for Inactive)
REMARK    1  A    between atoms: C_1  and  N_2
REMARK    2  A    between atoms: C_4  and  C_5
REMARK    3  A    between atoms: N_11  and  C_12
REMARK                            x       y       z     vdW  Elec       q    Type
REMARK                         _______ _______ _______ _____ _____    ______ ____
ROOT
ATOM      1  C   UNL     1       1.795  13.750  19.758  0.00  0.00    +0.000 C 
ATOM      2  O   UNL     1       1.784  14.338  18.681  0.00  0.00    +0.000 OA
ATOM      3  N   UNL     1       1.138  12.478  19.897  0.00  0.00    +0.000 N 
ATOM      4  C   UNL     1       1.208  11.747  21.160  0.00  0.00    +0.000 C 
ATOM      5  C   UNL     1       0.174  10.713  21.596  0.00  0.00    +0.000 C 
ATOM      6  C   UNL     1      -0.373   9.652  20.656  0.00  0.00    +0.000 C 
ATOM      7  N   UNL     1       0.299   9.415  19.393  0.00  0.00    +0.000 NA
ATOM      8  C   UNL     1       0.139  10.560  18.495  0.00  0.00    +0.000 C 
ATOM      9  C   UNL     1       1.099  11.740  18.637  0.00  0.00    +0.000 C 
ENDROOT
BRANCH   7  10
ATOM     10  C   UNL     1       1.617   8.758  19.445  0.00  0.00    +0.000 C 
ATOM     11  C   UNL     1       1.628   7.455  20.312  0.00  0.00    +0.000 C 
ATOM     12  C   UNL     1       2.582   6.553  19.587  0.00  0.00    +0.000 A 
ATOM     13  C   UNL     1       3.040   5.303  19.974  0.00  0.00    +0.000 A 
ATOM     14  C   UNL     1       3.835   4.575  19.081  0.00  0.00    +0.000 A 
ATOM     15  C   UNL     1       4.176   5.108  17.829  0.00  0.00    +0.000 A 
ATOM     16  C   UNL     1       3.712   6.365  17.449  0.00  0.00    +0.000 A 
ATOM     17  C   UNL     1       2.905   7.065  18.333  0.00  0.00    +0.000 A 
ATOM     18  C   UNL     1       2.148   8.319  18.050  0.00  0.00    +0.000 C 
ENDBRANCH   7  10
BRANCH   1  22
ATOM     19  C   UNL     1       5.038  15.084  23.339  0.00  0.00    +0.000 C 
ATOM     20  N   UNL     1       3.902  15.025  22.451  0.00  0.00    +0.000 N 
ATOM     21  C   UNL     1       3.814  14.307  21.295  0.00  0.00    +0.000 A 
ATOM     22  C   UNL     1       2.492  14.366  20.882  0.00  0.00    +0.000 A 
ATOM     23  C   UNL     1       1.930  15.312  21.787  0.00  0.00    +0.000 A 
ATOM     24  N   UNL     1       2.778  15.690  22.747  0.00  0.00    +0.000 NA
ENDBRANCH   1  22
TORSDOF 2
ENDMDL
