MODEL 1
REMARK VINA RESULT:      -5.7      0.000      0.000
REMARK  Name = 
REMARK  3 active torsions:
REMARK  status: ('A' for Active; 'I' for Inactive)
REMARK    1  A    between atoms: C_2  and  C_3
REMARK    2  A    between atoms: C_2  and  C_10
REMARK    3  A    between atoms: C_4  and  C_5
REMARK                            x       y       z     vdW  Elec       q    Type
REMARK                         _______ _______ _______ _____ _____    ______ ____
ROOT
ATOM      1  O   UNL     1       7.844   6.546  16.179  0.00  0.00    +0.000 OA
ATOM      2  C   UNL     1       7.366   6.931  17.240  0.00  0.00    +0.000 C 
ENDROOT
BRANCH   2   3
ATOM      3  C   UNL     1       6.155   6.359  17.822  0.00  0.00    +0.000 A 
ATOM      4  C   UNL     1       6.143   5.479  18.958  0.00  0.00    +0.000 A 
ATOM      5  C   UNL     1       4.877   5.063  19.302  0.00  0.00    +0.000 A 
ATOM      6  S   UNL     1       3.689   5.702  18.254  0.00  0.00    +0.000 S 
ATOM      7  C   UNL     1       4.869   6.543  17.342  0.00  0.00    +0.000 A 
ENDBRANCH   2   3
BRANCH   2   8
ATOM      8  C   UNL     1       8.027   7.957  18.086  0.00  0.00    +0.000 C 
ATOM      9  C   UNL     1       8.079   9.236  17.678  0.00  0.00    +0.000 C 
BRANCH   9  10
ATOM     10  C   UNL     1       8.763  10.294  18.358  0.00  0.00    +0.000 A 
ATOM     11  C   UNL     1       8.898  11.650  17.917  0.00  0.00    +0.000 A 
ATOM     12  C   UNL     1       9.578  12.433  18.823  0.00  0.00    +0.000 A 
ATOM     13  S   UNL     1      10.071  11.544  20.197  0.00  0.00    +0.000 S 
ATOM     14  C   UNL     1       9.365  10.108  19.586  0.00  0.00    +0.000 A 
ENDBRANCH   9  10
ENDBRANCH   2   8
TORSDOF 3
ENDMDL
MODEL 2
REMARK VINA RESULT:      -5.5      5.573      6.640
REMARK  Name = 
REMARK  3 active torsions:
REMARK  status: ('A' for Active; 'I' for Inactive)
REMARK    1  A    between atoms: C_2  and  C_3
REMARK    2  A    between atoms: C_2  and  C_10
REMARK    3  A    between atoms: C_4  and  C_5
REMARK                            x       y       z     vdW  Elec       q    Type
REMARK                         _______ _______ _______ _____ _____    ______ ____
ROOT
ATOM      1  O   UNL     1       0.729   4.184  17.204  0.00  0.00    +0.000 OA
ATOM      2  C   UNL     1       1.766   3.960  17.815  0.00  0.00    +0.000 C 
ENDROOT
BRANCH   2   3
ATOM      3  C   UNL     1       1.809   3.742  19.259  0.00  0.00    +0.000 A 
ATOM      4  C   UNL     1       2.147   4.757  20.218  0.00  0.00    +0.000 A 
ATOM      5  C   UNL     1       2.132   4.295  21.515  0.00  0.00    +0.000 A 
ATOM      6  S   UNL     1       1.738   2.636  21.598  0.00  0.00    +0.000 S 
ATOM      7  C   UNL     1       1.579   2.534  19.896  0.00  0.00    +0.000 A 
ENDBRANCH   2   3
BRANCH   2   8
ATOM      8  C   UNL     1       3.075   3.794  17.132  0.00  0.00    +0.000 C 
ATOM      9  C   UNL     1       4.014   4.749  17.235  0.00  0.00    +0.000 C 
BRANCH   9  10
ATOM     10  C   UNL     1       5.274   4.747  16.554  0.00  0.00    +0.000 A 
ATOM     11  C   UNL     1       6.573   4.665  17.154  0.00  0.00    +0.000 A 
ATOM     12  C   UNL     1       7.583   4.642  16.219  0.00  0.00    +0.000 A 
ATOM     13  S   UNL     1       6.982   4.734  14.621  0.00  0.00    +0.000 S 
ATOM     14  C   UNL     1       5.364   4.795  15.177  0.00  0.00    +0.000 A 
ENDBRANCH   9  10
ENDBRANCH   2   8
TORSDOF 3
ENDMDL
MODEL 3
REMARK VINA RESULT:      -5.5      5.249      7.252
REMARK  Name = 
REMARK  3 active torsions:
REMARK  status: ('A' for Active; 'I' for Inactive)
REMARK    1  A    between atoms: C_2  and  C_3
REMARK    2  A    between atoms: C_2  and  C_10
REMARK    3  A    between atoms: C_4  and  C_5
REMARK                            x       y       z     vdW  Elec       q    Type
REMARK                         _______ _______ _______ _____ _____    ______ ____
ROOT
ATOM      1  O   UNL     1       7.559   4.515  18.702  0.00  0.00    +0.000 OA
ATOM      2  C   UNL     1       6.486   4.638  18.125  0.00  0.00    +0.000 C 
ENDROOT
BRANCH   2   3
ATOM      3  C   UNL     1       6.356   4.615  16.670  0.00  0.00    +0.000 A 
ATOM      4  C   UNL     1       5.126   4.355  15.974  0.00  0.00    +0.000 A 
ATOM      5  C   UNL     1       5.271   4.372  14.605  0.00  0.00    +0.000 A 
ATOM      6  S   UNL     1       6.885   4.674  14.138  0.00  0.00    +0.000 S 
ATOM      7  C   UNL     1       7.392   4.791  15.769  0.00  0.00    +0.000 A 
ENDBRANCH   2   3
BRANCH   2   8
ATOM      8  C   UNL     1       5.195   4.729  18.853  0.00  0.00    +0.000 C 
ATOM      9  C   UNL     1       4.587   3.614  19.290  0.00  0.00    +0.000 C 
BRANCH   9  10
ATOM     10  C   UNL     1       3.302   3.565  19.922  0.00  0.00    +0.000 A 
ATOM     11  C   UNL     1       2.151   4.349  19.583  0.00  0.00    +0.000 A 
ATOM     12  C   UNL     1       1.054   4.031  20.354  0.00  0.00    +0.000 A 
ATOM     13  S   UNL     1       1.403   2.807  21.494  0.00  0.00    +0.000 S 
ATOM     14  C   UNL     1       3.023   2.691  20.953  0.00  0.00    +0.000 A 
ENDBRANCH   9  10
ENDBRANCH   2   8
TORSDOF 3
ENDMDL
MODEL 4
REMARK VINA RESULT:      -5.4      4.898      7.335
REMARK  Name = 
REMARK  3 active torsions:
REMARK  status: ('A' for Active; 'I' for Inactive)
REMARK    1  A    between atoms: C_2  and  C_3
REMARK    2  A    between atoms: C_2  and  C_10
REMARK    3  A    between atoms: C_4  and  C_5
REMARK                            x       y       z     vdW  Elec       q    Type
REMARK                         _______ _______ _______ _____ _____    ______ ____
ROOT
ATOM      1  O   UNL     1       7.514   5.164  19.194  0.00  0.00    +0.000 OA
ATOM      2  C   UNL     1       6.450   5.121  18.589  0.00  0.00    +0.000 C 
ENDROOT
BRANCH   2   3
ATOM      3  C   UNL     1       6.361   5.129  17.130  0.00  0.00    +0.000 A 
ATOM      4  C   UNL     1       5.356   5.837  16.387  0.00  0.00    +0.000 A 
ATOM      5  C   UNL     1       5.479   5.671  15.026  0.00  0.00    +0.000 A 
ATOM      6  S   UNL     1       6.784   4.645  14.623  0.00  0.00    +0.000 S 
ATOM      7  C   UNL     1       7.191   4.428  16.272  0.00  0.00    +0.000 A 
ENDBRANCH   2   3
BRANCH   2   8
ATOM      8  C   UNL     1       5.145   4.963  19.280  0.00  0.00    +0.000 C 
ATOM      9  C   UNL     1       4.582   3.748  19.389  0.00  0.00    +0.000 C 
BRANCH   9  10
ATOM     10  C   UNL     1       3.292   3.481  19.950  0.00  0.00    +0.000 A 
ATOM     11  C   UNL     1       3.010   2.694  21.114  0.00  0.00    +0.000 A 
ATOM     12  C   UNL     1       1.667   2.668  21.418  0.00  0.00    +0.000 A 
ATOM     13  S   UNL     1       0.738   3.571  20.303  0.00  0.00    +0.000 S 
ATOM     14  C   UNL     1       2.135   4.009  19.414  0.00  0.00    +0.000 A 
ENDBRANCH   9  10
ENDBRANCH   2   8
TORSDOF 3
ENDMDL
MODEL 5
REMARK VINA RESULT:      -5.4      2.218      6.691
REMARK  Name = 
REMARK  3 active torsions:
REMARK  status: ('A' for Active; 'I' for Inactive)
REMARK    1  A    between atoms: C_2  and  C_3
REMARK    2  A    between atoms: C_2  and  C_10
REMARK    3  A    between atoms: C_4  and  C_5
REMARK                            x       y       z     vdW  Elec       q    Type
REMARK                         _______ _______ _______ _____ _____    ______ ____
ROOT
ATOM      1  O   UNL     1       7.974  11.635  17.553  0.00  0.00    +0.000 OA
ATOM      2  C   UNL     1       8.887  10.979  18.041  0.00  0.00    +0.000 C 
ENDROOT
BRANCH   2   3
ATOM      3  C   UNL     1      10.147  11.573  18.483  0.00  0.00    +0.000 A 
ATOM      4  C   UNL     1      10.719  11.376  19.786  0.00  0.00    +0.000 A 
ATOM      5  C   UNL     1      11.902  12.057  19.961  0.00  0.00    +0.000 A 
ATOM      6  S   UNL     1      12.330  12.959  18.576  0.00  0.00    +0.000 S 
ATOM      7  C   UNL     1      10.935  12.433  17.736  0.00  0.00    +0.000 A 
ENDBRANCH   2   3
BRANCH   2   8
ATOM      8  C   UNL     1       8.766   9.525  18.318  0.00  0.00    +0.000 C 
ATOM      9  C   UNL     1       7.928   8.768  17.590  0.00  0.00    +0.000 C 
BRANCH   9  10
ATOM     10  C   UNL     1       7.657   7.380  17.819  0.00  0.00    +0.000 A 
ATOM     11  C   UNL     1       8.129   6.584  18.913  0.00  0.00    +0.000 A 
ATOM     12  C   UNL     1       7.653   5.293  18.867  0.00  0.00    +0.000 A 
ATOM     13  S   UNL     1       6.652   5.025  17.508  0.00  0.00    +0.000 S 
ATOM     14  C   UNL     1       6.846   6.643  16.981  0.00  0.00    +0.000 A 
ENDBRANCH   9  10
ENDBRANCH   2   8
TORSDOF 3
ENDMDL
MODEL 6
REMARK VINA RESULT:      -5.4      5.530      6.559
REMARK  Name = 
REMARK  3 active torsions:
REMARK  status: ('A' for Active; 'I' for Inactive)
REMARK    1  A    between atoms: C_2  and  C_3
REMARK    2  A    between atoms: C_2  and  C_10
REMARK    3  A    between atoms: C_4  and  C_5
REMARK                            x       y       z     vdW  Elec       q    Type
REMARK                         _______ _______ _______ _____ _____    ______ ____
ROOT
ATOM      1  O   UNL     1       5.852   4.515  19.171  0.00  0.00    +0.000 OA
ATOM      2  C   UNL     1       5.188   4.383  18.150  0.00  0.00    +0.000 C 
ENDROOT
BRANCH   2   3
ATOM      3  C   UNL     1       3.800   3.924  18.156  0.00  0.00    +0.000 A 
ATOM      4  C   UNL     1       2.681   4.735  17.767  0.00  0.00    +0.000 A 
ATOM      5  C   UNL     1       1.477   4.077  17.877  0.00  0.00    +0.000 A 
ATOM      6  S   UNL     1       1.671   2.488  18.472  0.00  0.00    +0.000 S 
ATOM      7  C   UNL     1       3.369   2.676  18.575  0.00  0.00    +0.000 A 
ENDBRANCH   2   3
BRANCH   2   8
ATOM      8  C   UNL     1       5.700   4.766  16.810  0.00  0.00    +0.000 C 
ATOM      9  C   UNL     1       5.741   3.858  15.820  0.00  0.00    +0.000 C 
BRANCH   9  10
ATOM     10  C   UNL     1       6.294   4.080  14.517  0.00  0.00    +0.000 A 
ATOM     11  C   UNL     1       5.902   3.436  13.299  0.00  0.00    +0.000 A 
ATOM     12  C   UNL     1       6.600   3.905  12.208  0.00  0.00    +0.000 A 
ATOM     13  S   UNL     1       7.738   5.105  12.641  0.00  0.00    +0.000 S 
ATOM     14  C   UNL     1       7.291   5.008  14.291  0.00  0.00    +0.000 A 
ENDBRANCH   9  10
ENDBRANCH   2   8
TORSDOF 3
ENDMDL
MODEL 7
REMARK VINA RESULT:      -5.4      3.762      7.344
REMARK  Name = 
REMARK  3 active torsions:
REMARK  status: ('A' for Active; 'I' for Inactive)
REMARK    1  A    between atoms: C_2  and  C_3
REMARK    2  A    between atoms: C_2  and  C_10
REMARK    3  A    between atoms: C_4  and  C_5
REMARK                            x       y       z     vdW  Elec       q    Type
REMARK                         _______ _______ _______ _____ _____    ______ ____
ROOT
ATOM      1  O   UNL     1       6.329   3.623  15.138  0.00  0.00    +0.000 OA
ATOM      2  C   UNL     1       5.863   4.176  16.127  0.00  0.00    +0.000 C 
ENDROOT
BRANCH   2   3
ATOM      3  C   UNL     1       6.582   5.200  16.880  0.00  0.00    +0.000 A 
ATOM      4  C   UNL     1       7.373   4.935  18.050  0.00  0.00    +0.000 A 
ATOM      5  C   UNL     1       7.935   6.071  18.587  0.00  0.00    +0.000 A 
ATOM      6  S   UNL     1       7.503   7.472  17.711  0.00  0.00    +0.000 S 
ATOM      7  C   UNL     1       6.568   6.558  16.606  0.00  0.00    +0.000 A 
ENDBRANCH   2   3
BRANCH   2   8
ATOM      8  C   UNL     1       4.479   3.925  16.603  0.00  0.00    +0.000 C 
ATOM      9  C   UNL     1       4.231   3.798  17.918  0.00  0.00    +0.000 C 
BRANCH   9  10
ATOM     10  C   UNL     1       2.961   3.467  18.492  0.00  0.00    +0.000 A 
ATOM     11  C   UNL     1       2.029   2.493  18.005  0.00  0.00    +0.000 A 
ATOM     12  C   UNL     1       0.917   2.382  18.811  0.00  0.00    +0.000 A 
ATOM     13  S   UNL     1       0.978   3.453  20.141  0.00  0.00    +0.000 S 
ATOM     14  C   UNL     1       2.500   4.063  19.648  0.00  0.00    +0.000 A 
ENDBRANCH   9  10
ENDBRANCH   2   8
TORSDOF 3
ENDMDL
MODEL 8
REMARK VINA RESULT:      -5.3      5.612      7.475
REMARK  Name = 
REMARK  3 active torsions:
REMARK  status: ('A' for Active; 'I' for Inactive)
REMARK    1  A    between atoms: C_2  and  C_3
REMARK    2  A    between atoms: C_2  and  C_10
REMARK    3  A    between atoms: C_4  and  C_5
REMARK                            x       y       z     vdW  Elec       q    Type
REMARK                         _______ _______ _______ _____ _____    ______ ____
ROOT
ATOM      1  O   UNL     1       7.425   6.038  16.003  0.00  0.00    +0.000 OA
ATOM      2  C   UNL     1       6.775   5.068  15.630  0.00  0.00    +0.000 C 
ENDROOT
BRANCH   2   3
ATOM      3  C   UNL     1       6.766   4.600  14.246  0.00  0.00    +0.000 A 
ATOM      4  C   UNL     1       7.610   5.129  13.210  0.00  0.00    +0.000 A 
ATOM      5  C   UNL     1       7.398   4.532  11.988  0.00  0.00    +0.000 A 
ATOM      6  S   UNL     1       6.170   3.348  12.061  0.00  0.00    +0.000 S 
ATOM      7  C   UNL     1       5.925   3.628  13.732  0.00  0.00    +0.000 A 
ENDBRANCH   2   3
BRANCH   2   8
ATOM      8  C   UNL     1       6.004   4.214  16.569  0.00  0.00    +0.000 C 
ATOM      9  C   UNL     1       4.709   4.477  16.811  0.00  0.00    +0.000 C 
BRANCH   9  10
ATOM     10  C   UNL     1       3.888   3.786  17.759  0.00  0.00    +0.000 A 
ATOM     11  C   UNL     1       4.200   3.523  19.132  0.00  0.00    +0.000 A 
ATOM     12  C   UNL     1       3.179   2.874  19.789  0.00  0.00    +0.000 A 
ATOM     13  S   UNL     1       1.850   2.563  18.760  0.00  0.00    +0.000 S 
ATOM     14  C   UNL     1       2.635   3.306  17.433  0.00  0.00    +0.000 A 
ENDBRANCH   9  10
ENDBRANCH   2   8
TORSDOF 3
ENDMDL
MODEL 9
REMARK VINA RESULT:      -5.3      3.682      7.279
REMARK  Name = 
REMARK  3 active torsions:
REMARK  status: ('A' for Active; 'I' for Inactive)
REMARK    1  A    between atoms: C_2  and  C_3
REMARK    2  A    between atoms: C_2  and  C_10
REMARK    3  A    between atoms: C_4  and  C_5
REMARK                            x       y       z     vdW  Elec       q    Type
REMARK                         _______ _______ _______ _____ _____    ______ ____
ROOT
ATOM      1  O   UNL     1       6.209   3.906  15.129  0.00  0.00    +0.000 OA
ATOM      2  C   UNL     1       5.960   4.222  16.286  0.00  0.00    +0.000 C 
ENDROOT
BRANCH   2   3
ATOM      3  C   UNL     1       6.655   5.301  16.985  0.00  0.00    +0.000 A 
ATOM      4  C   UNL     1       7.347   5.139  18.233  0.00  0.00    +0.000 A 
ATOM      5  C   UNL     1       7.905   6.310  18.694  0.00  0.00    +0.000 A 
ATOM      6  S   UNL     1       7.586   7.623  17.648  0.00  0.00    +0.000 S 
ATOM      7  C   UNL     1       6.706   6.622  16.574  0.00  0.00    +0.000 A 
ENDBRANCH   2   3
BRANCH   2   8
ATOM      8  C   UNL     1       4.859   3.598  17.064  0.00  0.00    +0.000 C 
ATOM      9  C   UNL     1       3.762   4.311  17.370  0.00  0.00    +0.000 C 
BRANCH   9  10
ATOM     10  C   UNL     1       2.679   3.852  18.187  0.00  0.00    +0.000 A 
ATOM     11  C   UNL     1       2.102   4.535  19.307  0.00  0.00    +0.000 A 
ATOM     12  C   UNL     1       1.043   3.845  19.855  0.00  0.00    +0.000 A 
ATOM     13  S   UNL     1       0.746   2.372  19.040  0.00  0.00    +0.000 S 
ATOM     14  C   UNL     1       2.030   2.658  17.944  0.00  0.00    +0.000 A 
ENDBRANCH   9  10
ENDBRANCH   2   8
TORSDOF 3
ENDMDL
