MODEL 1
REMARK VINA RESULT:      -6.3      0.000      0.000
REMARK  Name = 
REMARK  6 active torsions:
REMARK  status: ('A' for Active; 'I' for Inactive)
REMARK    1  A    between atoms: C_1  and  C_2
REMARK    2  A    between atoms: C_2  and  O_3
REMARK    3  A    between atoms: O_3  and  C_4
REMARK    4  A    between atoms: C_9  and  C_10
REMARK    5  A    between atoms: N_12  and  C_13
REMARK    6  A    between atoms: N_16  and  C_17
REMARK                            x       y       z     vdW  Elec       q    Type
REMARK                         _______ _______ _______ _____ _____    ______ ____
ROOT
ATOM      1  C   UNL     1       4.684   3.770  18.531  0.00  0.00    +0.000 C 
ATOM      2  O   UNL     1       5.790   3.740  19.091  0.00  0.00    +0.000 OA
ATOM      3  N   UNL     1       4.556   3.843  17.168  0.00  0.00    +0.000 N 
ATOM      4  H   UNL     1       3.649   3.581  16.786  0.00  0.00    +0.000 HD
ENDROOT
BRANCH   3   5
ATOM      5  C   UNL     1       5.716   3.847  16.277  0.00  0.00    +0.000 C 
ATOM      6  C   UNL     1       6.565   5.107  16.473  0.00  0.00    +0.000 C 
ATOM      7  C   UNL     1       7.621   5.269  15.381  0.00  0.00    +0.000 C 
ATOM      8  N   UNL     1       7.003   5.226  14.055  0.00  0.00    +0.000 NA
ATOM      9  C   UNL     1       7.993   5.524  13.020  0.00  0.00    +0.000 C 
ATOM     10  C   UNL     1       6.384   3.914  13.827  0.00  0.00    +0.000 C 
ATOM     11  C   UNL     1       5.259   3.671  14.828  0.00  0.00    +0.000 C 
ENDBRANCH   3   5
BRANCH   1  17
ATOM     12  C   UNL     1       2.276   4.498  19.145  0.00  0.00    +0.000 A 
ATOM     13  C   UNL     1       1.163   4.313  19.975  0.00  0.00    +0.000 A 
ATOM     14  C   UNL     1       1.205   3.438  21.060  0.00  0.00    +0.000 A 
ATOM     15  C   UNL     1       2.358   2.713  21.305  0.00  0.00    +0.000 A 
ATOM     16  C   UNL     1       3.456   2.842  20.459  0.00  0.00    +0.000 A 
ATOM     17  C   UNL     1       3.432   3.718  19.354  0.00  0.00    +0.000 A 
BRANCH  12  18
ATOM     18  O   UNL     1       2.224   5.437  18.144  0.00  0.00    +0.000 OA
BRANCH  18  20
ATOM     19  C   UNL     1       3.615   7.308  17.652  0.00  0.00    +0.000 C 
ATOM     20  C   UNL     1       2.545   6.774  18.575  0.00  0.00    +0.000 C 
ENDBRANCH  18  20
ENDBRANCH  12  18
ENDBRANCH   1  17
TORSDOF 4
ENDMDL
MODEL 2
REMARK VINA RESULT:      -6.1      1.997      6.589
REMARK  Name = 
REMARK  6 active torsions:
REMARK  status: ('A' for Active; 'I' for Inactive)
REMARK    1  A    between atoms: C_1  and  C_2
REMARK    2  A    between atoms: C_2  and  O_3
REMARK    3  A    between atoms: O_3  and  C_4
REMARK    4  A    between atoms: C_9  and  C_10
REMARK    5  A    between atoms: N_12  and  C_13
REMARK    6  A    between atoms: N_16  and  C_17
REMARK                            x       y       z     vdW  Elec       q    Type
REMARK                         _______ _______ _______ _____ _____    ______ ____
ROOT
ATOM      1  C   UNL     1       4.607   4.821  16.315  0.00  0.00    +0.000 C 
ATOM      2  O   UNL     1       4.378   5.966  16.734  0.00  0.00    +0.000 OA
ATOM      3  N   UNL     1       4.015   3.711  16.859  0.00  0.00    +0.000 N 
ATOM      4  H   UNL     1       4.034   2.867  16.291  0.00  0.00    +0.000 HD
ENDROOT
BRANCH   3   5
ATOM      5  C   UNL     1       3.038   3.803  17.944  0.00  0.00    +0.000 C 
ATOM      6  C   UNL     1       3.705   4.214  19.260  0.00  0.00    +0.000 C 
ATOM      7  C   UNL     1       2.769   4.058  20.457  0.00  0.00    +0.000 C 
ATOM      8  N   UNL     1       2.232   2.697  20.517  0.00  0.00    +0.000 NA
ATOM      9  C   UNL     1       1.451   2.510  21.740  0.00  0.00    +0.000 C 
ATOM     10  C   UNL     1       1.416   2.422  19.327  0.00  0.00    +0.000 C 
ATOM     11  C   UNL     1       2.270   2.486  18.066  0.00  0.00    +0.000 C 
ENDBRANCH   3   5
BRANCH   1  17
ATOM     12  C   UNL     1       6.900   5.047  15.132  0.00  0.00    +0.000 A 
ATOM     13  C   UNL     1       7.679   4.758  14.005  0.00  0.00    +0.000 A 
ATOM     14  C   UNL     1       7.130   4.139  12.883  0.00  0.00    +0.000 A 
ATOM     15  C   UNL     1       5.795   3.774  12.892  0.00  0.00    +0.000 A 
ATOM     16  C   UNL     1       5.017   4.003  14.024  0.00  0.00    +0.000 A 
ATOM     17  C   UNL     1       5.556   4.624  15.170  0.00  0.00    +0.000 A 
BRANCH  12  18
ATOM     18  O   UNL     1       7.457   5.740  16.179  0.00  0.00    +0.000 OA
BRANCH  18  20
ATOM     19  C   UNL     1       7.614   5.871  18.553  0.00  0.00    +0.000 C 
ATOM     20  C   UNL     1       7.672   4.944  17.362  0.00  0.00    +0.000 C 
ENDBRANCH  18  20
ENDBRANCH  12  18
ENDBRANCH   1  17
TORSDOF 4
ENDMDL
MODEL 3
REMARK VINA RESULT:      -6.0      1.431      1.795
REMARK  Name = 
REMARK  6 active torsions:
REMARK  status: ('A' for Active; 'I' for Inactive)
REMARK    1  A    between atoms: C_1  and  C_2
REMARK    2  A    between atoms: C_2  and  O_3
REMARK    3  A    between atoms: O_3  and  C_4
REMARK    4  A    between atoms: C_9  and  C_10
REMARK    5  A    between atoms: N_12  and  C_13
REMARK    6  A    between atoms: N_16  and  C_17
REMARK                            x       y       z     vdW  Elec       q    Type
REMARK                         _______ _______ _______ _____ _____    ______ ____
ROOT
ATOM      1  C   UNL     1       3.003   3.787  17.650  0.00  0.00    +0.000 C 
ATOM      2  O   UNL     1       2.275   3.338  16.752  0.00  0.00    +0.000 OA
ATOM      3  N   UNL     1       4.206   4.387  17.384  0.00  0.00    +0.000 N 
ATOM      4  H   UNL     1       4.595   4.966  18.127  0.00  0.00    +0.000 HD
ENDROOT
BRANCH   3   5
ATOM      5  C   UNL     1       4.696   4.579  16.019  0.00  0.00    +0.000 C 
ATOM      6  C   UNL     1       5.686   3.479  15.624  0.00  0.00    +0.000 C 
ATOM      7  C   UNL     1       6.413   3.798  14.318  0.00  0.00    +0.000 C 
ATOM      8  N   UNL     1       7.054   5.112  14.392  0.00  0.00    +0.000 NA
ATOM      9  C   UNL     1       7.865   5.352  13.198  0.00  0.00    +0.000 C 
ATOM     10  C   UNL     1       6.040   6.161  14.556  0.00  0.00    +0.000 C 
ATOM     11  C   UNL     1       5.290   5.980  15.872  0.00  0.00    +0.000 C 
ENDBRANCH   3   5
BRANCH   1  17
ATOM     12  C   UNL     1       2.700   4.695  20.057  0.00  0.00    +0.000 A 
ATOM     13  C   UNL     1       2.210   4.471  21.349  0.00  0.00    +0.000 A 
ATOM     14  C   UNL     1       1.675   3.237  21.717  0.00  0.00    +0.000 A 
ATOM     15  C   UNL     1       1.596   2.222  20.780  0.00  0.00    +0.000 A 
ATOM     16  C   UNL     1       2.027   2.444  19.474  0.00  0.00    +0.000 A 
ATOM     17  C   UNL     1       2.568   3.686  19.081  0.00  0.00    +0.000 A 
BRANCH  12  18
ATOM     18  O   UNL     1       3.304   5.894  19.761  0.00  0.00    +0.000 OA
BRANCH  18  20
ATOM     19  C   UNL     1       2.587   7.533  18.187  0.00  0.00    +0.000 C 
ATOM     20  C   UNL     1       2.381   6.987  19.580  0.00  0.00    +0.000 C 
ENDBRANCH  18  20
ENDBRANCH  12  18
ENDBRANCH   1  17
TORSDOF 4
ENDMDL
MODEL 4
REMARK VINA RESULT:      -6.0      3.012      6.814
REMARK  Name = 
REMARK  6 active torsions:
REMARK  status: ('A' for Active; 'I' for Inactive)
REMARK    1  A    between atoms: C_1  and  C_2
REMARK    2  A    between atoms: C_2  and  O_3
REMARK    3  A    between atoms: O_3  and  C_4
REMARK    4  A    between atoms: C_9  and  C_10
REMARK    5  A    between atoms: N_12  and  C_13
REMARK    6  A    between atoms: N_16  and  C_17
REMARK                            x       y       z     vdW  Elec       q    Type
REMARK                         _______ _______ _______ _____ _____    ______ ____
ROOT
ATOM      1  C   UNL     1       3.242   6.157  17.797  0.00  0.00    +0.000 C 
ATOM      2  O   UNL     1       2.251   5.414  17.868  0.00  0.00    +0.000 OA
ATOM      3  N   UNL     1       3.174   7.495  18.085  0.00  0.00    +0.000 N 
ATOM      4  H   UNL     1       4.059   7.961  18.275  0.00  0.00    +0.000 HD
ENDROOT
BRANCH   3   5
ATOM      5  C   UNL     1       1.937   8.132  18.539  0.00  0.00    +0.000 C 
ATOM      6  C   UNL     1       1.800   9.548  17.970  0.00  0.00    +0.000 C 
ATOM      7  C   UNL     1       0.667  10.330  18.634  0.00  0.00    +0.000 C 
ATOM      8  N   UNL     1       0.828  10.337  20.088  0.00  0.00    +0.000 NA
ATOM      9  C   UNL     1      -0.174  11.204  20.709  0.00  0.00    +0.000 C 
ATOM     10  C   UNL     1       0.736   8.969  20.615  0.00  0.00    +0.000 C 
ATOM     11  C   UNL     1       1.869   8.108  20.066  0.00  0.00    +0.000 C 
ENDBRANCH   3   5
BRANCH   1  17
ATOM     12  C   UNL     1       5.373   4.734  18.170  0.00  0.00    +0.000 A 
ATOM     13  C   UNL     1       6.576   4.251  17.641  0.00  0.00    +0.000 A 
ATOM     14  C   UNL     1       7.041   4.672  16.395  0.00  0.00    +0.000 A 
ATOM     15  C   UNL     1       6.284   5.559  15.650  0.00  0.00    +0.000 A 
ATOM     16  C   UNL     1       5.058   6.007  16.135  0.00  0.00    +0.000 A 
ATOM     17  C   UNL     1       4.569   5.591  17.391  0.00  0.00    +0.000 A 
BRANCH  12  18
ATOM     18  O   UNL     1       4.997   4.366  19.439  0.00  0.00    +0.000 OA
BRANCH  18  20
ATOM     19  C   UNL     1       3.196   3.021  20.231  0.00  0.00    +0.000 C 
ATOM     20  C   UNL     1       4.542   3.003  19.545  0.00  0.00    +0.000 C 
ENDBRANCH  18  20
ENDBRANCH  12  18
ENDBRANCH   1  17
TORSDOF 4
ENDMDL
MODEL 5
REMARK VINA RESULT:      -5.9      3.012      6.684
REMARK  Name = 
REMARK  6 active torsions:
REMARK  status: ('A' for Active; 'I' for Inactive)
REMARK    1  A    between atoms: C_1  and  C_2
REMARK    2  A    between atoms: C_2  and  O_3
REMARK    3  A    between atoms: O_3  and  C_4
REMARK    4  A    between atoms: C_9  and  C_10
REMARK    5  A    between atoms: N_12  and  C_13
REMARK    6  A    between atoms: N_16  and  C_17
REMARK                            x       y       z     vdW  Elec       q    Type
REMARK                         _______ _______ _______ _____ _____    ______ ____
ROOT
ATOM      1  C   UNL     1       3.657   5.822  17.585  0.00  0.00    +0.000 C 
ATOM      2  O   UNL     1       2.964   4.980  18.175  0.00  0.00    +0.000 OA
ATOM      3  N   UNL     1       3.340   7.155  17.579  0.00  0.00    +0.000 N 
ATOM      4  H   UNL     1       4.090   7.796  17.324  0.00  0.00    +0.000 HD
ENDROOT
BRANCH   3   5
ATOM      5  C   UNL     1       2.185   7.684  18.306  0.00  0.00    +0.000 C 
ATOM      6  C   UNL     1       1.948   9.161  17.975  0.00  0.00    +0.000 C 
ATOM      7  C   UNL     1       0.928   9.807  18.911  0.00  0.00    +0.000 C 
ATOM      8  N   UNL     1       1.317   9.615  20.309  0.00  0.00    +0.000 NA
ATOM      9  C   UNL     1       0.418  10.354  21.195  0.00  0.00    +0.000 C 
ATOM     10  C   UNL     1       1.320   8.184  20.641  0.00  0.00    +0.000 C 
ATOM     11  C   UNL     1       2.360   7.443  19.806  0.00  0.00    +0.000 C 
ENDBRANCH   3   5
BRANCH   1  17
ATOM     12  C   UNL     1       6.133   6.055  16.863  0.00  0.00    +0.000 A 
ATOM     13  C   UNL     1       7.213   5.509  16.157  0.00  0.00    +0.000 A 
ATOM     14  C   UNL     1       7.061   4.368  15.371  0.00  0.00    +0.000 A 
ATOM     15  C   UNL     1       5.829   3.742  15.309  0.00  0.00    +0.000 A 
ATOM     16  C   UNL     1       4.758   4.238  16.047  0.00  0.00    +0.000 A 
ATOM     17  C   UNL     1       4.891   5.388  16.852  0.00  0.00    +0.000 A 
BRANCH  12  18
ATOM     18  O   UNL     1       6.301   7.232  17.551  0.00  0.00    +0.000 OA
BRANCH  18  20
ATOM     19  C   UNL     1       7.964   8.923  17.782  0.00  0.00    +0.000 C 
ATOM     20  C   UNL     1       7.651   7.462  18.001  0.00  0.00    +0.000 C 
ENDBRANCH  18  20
ENDBRANCH  12  18
ENDBRANCH   1  17
TORSDOF 4
ENDMDL
MODEL 6
REMARK VINA RESULT:      -5.9      1.874      6.459
REMARK  Name = 
REMARK  6 active torsions:
REMARK  status: ('A' for Active; 'I' for Inactive)
REMARK    1  A    between atoms: C_1  and  C_2
REMARK    2  A    between atoms: C_2  and  O_3
REMARK    3  A    between atoms: O_3  and  C_4
REMARK    4  A    between atoms: C_9  and  C_10
REMARK    5  A    between atoms: N_12  and  C_13
REMARK    6  A    between atoms: N_16  and  C_17
REMARK                            x       y       z     vdW  Elec       q    Type
REMARK                         _______ _______ _______ _____ _____    ______ ____
ROOT
ATOM      1  C   UNL     1       4.922   4.071  16.915  0.00  0.00    +0.000 C 
ATOM      2  O   UNL     1       3.722   3.777  16.805  0.00  0.00    +0.000 OA
ATOM      3  N   UNL     1       5.533   4.204  18.134  0.00  0.00    +0.000 N 
ATOM      4  H   UNL     1       6.550   4.165  18.135  0.00  0.00    +0.000 HD
ENDROOT
BRANCH   3   5
ATOM      5  C   UNL     1       4.822   3.967  19.391  0.00  0.00    +0.000 C 
ATOM      6  C   UNL     1       4.432   2.494  19.540  0.00  0.00    +0.000 C 
ATOM      7  C   UNL     1       3.464   2.266  20.700  0.00  0.00    +0.000 C 
ATOM      8  N   UNL     1       2.292   3.133  20.572  0.00  0.00    +0.000 NA
ATOM      9  C   UNL     1       1.304   2.813  21.602  0.00  0.00    +0.000 C 
ATOM     10  C   UNL     1       2.694   4.543  20.652  0.00  0.00    +0.000 C 
ATOM     11  C   UNL     1       3.618   4.904  19.493  0.00  0.00    +0.000 C 
ENDBRANCH   3   5
BRANCH   1  17
ATOM     12  C   UNL     1       6.927   5.057  15.607  0.00  0.00    +0.000 A 
ATOM     13  C   UNL     1       7.621   5.135  14.393  0.00  0.00    +0.000 A 
ATOM     14  C   UNL     1       7.123   4.539  13.235  0.00  0.00    +0.000 A 
ATOM     15  C   UNL     1       5.937   3.828  13.291  0.00  0.00    +0.000 A 
ATOM     16  C   UNL     1       5.262   3.692  14.501  0.00  0.00    +0.000 A 
ATOM     17  C   UNL     1       5.751   4.285  15.684  0.00  0.00    +0.000 A 
BRANCH  12  18
ATOM     18  O   UNL     1       7.404   5.736  16.703  0.00  0.00    +0.000 OA
BRANCH  18  20
ATOM     19  C   UNL     1       7.820   7.848  17.725  0.00  0.00    +0.000 C 
ATOM     20  C   UNL     1       6.872   7.069  16.845  0.00  0.00    +0.000 C 
ENDBRANCH  18  20
ENDBRANCH  12  18
ENDBRANCH   1  17
TORSDOF 4
ENDMDL
MODEL 7
REMARK VINA RESULT:      -5.9      2.095      6.562
REMARK  Name = 
REMARK  6 active torsions:
REMARK  status: ('A' for Active; 'I' for Inactive)
REMARK    1  A    between atoms: C_1  and  C_2
REMARK    2  A    between atoms: C_2  and  O_3
REMARK    3  A    between atoms: O_3  and  C_4
REMARK    4  A    between atoms: C_9  and  C_10
REMARK    5  A    between atoms: N_12  and  C_13
REMARK    6  A    between atoms: N_16  and  C_17
REMARK                            x       y       z     vdW  Elec       q    Type
REMARK                         _______ _______ _______ _____ _____    ______ ____
ROOT
ATOM      1  C   UNL     1       4.843   4.015  16.250  0.00  0.00    +0.000 C 
ATOM      2  O   UNL     1       4.182   4.955  16.715  0.00  0.00    +0.000 OA
ATOM      3  N   UNL     1       4.788   2.751  16.778  0.00  0.00    +0.000 N 
ATOM      4  H   UNL     1       5.127   1.998  16.182  0.00  0.00    +0.000 HD
ENDROOT
BRANCH   3   5
ATOM      5  C   UNL     1       3.912   2.414  17.900  0.00  0.00    +0.000 C 
ATOM      6  C   UNL     1       2.446   2.712  17.571  0.00  0.00    +0.000 C 
ATOM      7  C   UNL     1       1.547   2.626  18.803  0.00  0.00    +0.000 C 
ATOM      8  N   UNL     1       2.054   3.488  19.872  0.00  0.00    +0.000 NA
ATOM      9  C   UNL     1       1.117   3.513  20.995  0.00  0.00    +0.000 C 
ATOM     10  C   UNL     1       3.379   3.028  20.307  0.00  0.00    +0.000 C 
ATOM     11  C   UNL     1       4.384   3.135  19.164  0.00  0.00    +0.000 C 
ENDBRANCH   3   5
BRANCH   1  17
ATOM     12  C   UNL     1       6.901   5.035  15.055  0.00  0.00    +0.000 A 
ATOM     13  C   UNL     1       7.658   5.127  13.880  0.00  0.00    +0.000 A 
ATOM     14  C   UNL     1       7.232   4.527  12.695  0.00  0.00    +0.000 A 
ATOM     15  C   UNL     1       6.056   3.798  12.685  0.00  0.00    +0.000 A 
ATOM     16  C   UNL     1       5.319   3.649  13.857  0.00  0.00    +0.000 A 
ATOM     17  C   UNL     1       5.734   4.245  15.066  0.00  0.00    +0.000 A 
BRANCH  12  18
ATOM     18  O   UNL     1       7.308   5.718  16.176  0.00  0.00    +0.000 OA
BRANCH  18  20
ATOM     19  C   UNL     1       7.531   5.703  18.548  0.00  0.00    +0.000 C 
ATOM     20  C   UNL     1       7.637   4.869  17.293  0.00  0.00    +0.000 C 
ENDBRANCH  18  20
ENDBRANCH  12  18
ENDBRANCH   1  17
TORSDOF 4
ENDMDL
MODEL 8
REMARK VINA RESULT:      -5.9      1.897      6.380
REMARK  Name = 
REMARK  6 active torsions:
REMARK  status: ('A' for Active; 'I' for Inactive)
REMARK    1  A    between atoms: C_1  and  C_2
REMARK    2  A    between atoms: C_2  and  O_3
REMARK    3  A    between atoms: O_3  and  C_4
REMARK    4  A    between atoms: C_9  and  C_10
REMARK    5  A    between atoms: N_12  and  C_13
REMARK    6  A    between atoms: N_16  and  C_17
REMARK                            x       y       z     vdW  Elec       q    Type
REMARK                         _______ _______ _______ _____ _____    ______ ____
ROOT
ATOM      1  C   UNL     1       4.519   4.045  16.886  0.00  0.00    +0.000 C 
ATOM      2  O   UNL     1       4.456   2.904  17.368  0.00  0.00    +0.000 OA
ATOM      3  N   UNL     1       3.709   5.064  17.313  0.00  0.00    +0.000 N 
ATOM      4  H   UNL     1       4.011   6.008  17.078  0.00  0.00    +0.000 HD
ENDROOT
BRANCH   3   5
ATOM      5  C   UNL     1       2.742   4.889  18.397  0.00  0.00    +0.000 C 
ATOM      6  C   UNL     1       3.427   4.938  19.767  0.00  0.00    +0.000 C 
ATOM      7  C   UNL     1       2.497   4.493  20.895  0.00  0.00    +0.000 C 
ATOM      8  N   UNL     1       1.937   3.171  20.610  0.00  0.00    +0.000 NA
ATOM      9  C   UNL     1       1.162   2.688  21.753  0.00  0.00    +0.000 C 
ATOM     10  C   UNL     1       1.107   3.224  19.399  0.00  0.00    +0.000 C 
ATOM     11  C   UNL     1       1.952   3.596  18.186  0.00  0.00    +0.000 C 
ENDBRANCH   3   5
BRANCH   1  17
ATOM     12  C   UNL     1       6.670   5.135  15.943  0.00  0.00    +0.000 A 
ATOM     13  C   UNL     1       7.531   5.293  14.849  0.00  0.00    +0.000 A 
ATOM     14  C   UNL     1       7.221   4.756  13.600  0.00  0.00    +0.000 A 
ATOM     15  C   UNL     1       6.057   4.025  13.443  0.00  0.00    +0.000 A 
ATOM     16  C   UNL     1       5.216   3.810  14.532  0.00  0.00    +0.000 A 
ATOM     17  C   UNL     1       5.514   4.341  15.804  0.00  0.00    +0.000 A 
BRANCH  12  18
ATOM     18  O   UNL     1       6.966   5.758  17.131  0.00  0.00    +0.000 OA
BRANCH  18  20
ATOM     19  C   UNL     1       7.797   7.932  17.639  0.00  0.00    +0.000 C 
ATOM     20  C   UNL     1       6.592   7.149  17.175  0.00  0.00    +0.000 C 
ENDBRANCH  18  20
ENDBRANCH  12  18
ENDBRANCH   1  17
TORSDOF 4
ENDMDL
MODEL 9
REMARK VINA RESULT:      -5.9      3.522      6.629
REMARK  Name = 
REMARK  6 active torsions:
REMARK  status: ('A' for Active; 'I' for Inactive)
REMARK    1  A    between atoms: C_1  and  C_2
REMARK    2  A    between atoms: C_2  and  O_3
REMARK    3  A    between atoms: O_3  and  C_4
REMARK    4  A    between atoms: C_9  and  C_10
REMARK    5  A    between atoms: N_12  and  C_13
REMARK    6  A    between atoms: N_16  and  C_17
REMARK                            x       y       z     vdW  Elec       q    Type
REMARK                         _______ _______ _______ _____ _____    ______ ____
ROOT
ATOM      1  C   UNL     1       3.010   6.780  18.466  0.00  0.00    +0.000 C 
ATOM      2  O   UNL     1       3.611   7.566  17.718  0.00  0.00    +0.000 OA
ATOM      3  N   UNL     1       2.130   7.212  19.424  0.00  0.00    +0.000 N 
ATOM      4  H   UNL     1       1.485   6.514  19.790  0.00  0.00    +0.000 HD
ENDROOT
BRANCH   3   5
ATOM      5  C   UNL     1       1.806   8.627  19.603  0.00  0.00    +0.000 C 
ATOM      6  C   UNL     1       1.058   8.865  20.918  0.00  0.00    +0.000 C 
ATOM      7  C   UNL     1       0.474  10.275  21.005  0.00  0.00    +0.000 C 
ATOM      8  N   UNL     1      -0.365  10.557  19.839  0.00  0.00    +0.000 NA
ATOM      9  C   UNL     1      -1.035  11.849  19.994  0.00  0.00    +0.000 C 
ATOM     10  C   UNL     1       0.444  10.531  18.614  0.00  0.00    +0.000 C 
ATOM     11  C   UNL     1       1.029   9.140  18.389  0.00  0.00    +0.000 C 
ENDBRANCH   3   5
BRANCH   1  17
ATOM     12  C   UNL     1       4.410   4.613  18.687  0.00  0.00    +0.000 A 
ATOM     13  C   UNL     1       4.461   3.221  18.538  0.00  0.00    +0.000 A 
ATOM     14  C   UNL     1       3.408   2.515  17.959  0.00  0.00    +0.000 A 
ATOM     15  C   UNL     1       2.274   3.196  17.551  0.00  0.00    +0.000 A 
ATOM     16  C   UNL     1       2.182   4.572  17.742  0.00  0.00    +0.000 A 
ATOM     17  C   UNL     1       3.234   5.304  18.330  0.00  0.00    +0.000 A 
BRANCH  12  18
ATOM     18  O   UNL     1       5.506   5.281  19.178  0.00  0.00    +0.000 OA
BRANCH  18  20
ATOM     19  C   UNL     1       7.148   6.461  17.917  0.00  0.00    +0.000 C 
ATOM     20  C   UNL     1       6.703   5.099  18.396  0.00  0.00    +0.000 C 
ENDBRANCH  18  20
ENDBRANCH  12  18
ENDBRANCH   1  17
TORSDOF 4
ENDMDL
