MODEL 1
REMARK VINA RESULT:      -6.4      0.000      0.000
REMARK  Name = 
REMARK  6 active torsions:
REMARK  status: ('A' for Active; 'I' for Inactive)
REMARK    1  A    between atoms: C_2  and  C_3
REMARK    2  A    between atoms: C_6  and  C_7
REMARK    3  A    between atoms: C_9  and  N_10
REMARK    4  A    between atoms: N_10  and  C_11
REMARK    5  A    between atoms: C_14  and  N_15
REMARK    6  A    between atoms: C_18  and  C_19
REMARK                            x       y       z     vdW  Elec       q    Type
REMARK                         _______ _______ _______ _____ _____    ______ ____
ROOT
ATOM      1  C   UNL     1       2.669   6.289  19.631  0.00  0.00    +0.000 A 
ATOM      2  C   UNL     1       3.074   5.012  20.039  0.00  0.00    +0.000 A 
ATOM      3 CL   UNL     1       2.369   4.294  21.461  0.00  0.00    +0.000 Cl
ATOM      4  C   UNL     1       4.048   4.307  19.306  0.00  0.00    +0.000 A 
ATOM      5  C   UNL     1       4.626   4.867  18.128  0.00  0.00    +0.000 A 
ATOM      6  C   UNL     1       4.177   6.146  17.707  0.00  0.00    +0.000 A 
ATOM      7  C   UNL     1       3.220   6.852  18.470  0.00  0.00    +0.000 A 
ATOM      8 CL   UNL     1       2.732   8.458  17.989  0.00  0.00    +0.000 Cl
ENDROOT
BRANCH   1  10
ATOM      9  N   UNL     1       0.919   7.620  21.011  0.00  0.00    +0.000 NA
ATOM     10  C   UNL     1       1.699   7.024  20.395  0.00  0.00    +0.000 C 
ENDBRANCH   1  10
BRANCH   4  11
ATOM     11  C   UNL     1       4.450   2.993  19.742  0.00  0.00    +0.000 C 
ATOM     12  N   UNL     1       4.798   1.966  20.146  0.00  0.00    +0.000 NA
ENDBRANCH   4  11
BRANCH   5  13
ATOM     13  N   UNL     1       5.681   4.164  17.479  0.00  0.00    +0.000 N 
ATOM     14  H   UNL     1       5.856   3.220  17.838  0.00  0.00    +0.000 HD
BRANCH  13  15
ATOM     15  C   UNL     1       6.091   4.159  16.127  0.00  0.00    +0.000 A 
ATOM     16  C   UNL     1       5.226   3.615  15.171  0.00  0.00    +0.000 A 
ATOM     17  C   UNL     1       5.546   3.656  13.811  0.00  0.00    +0.000 A 
ATOM     18  C   UNL     1       6.706   4.295  13.377  0.00  0.00    +0.000 A 
ATOM     19  C   UNL     1       7.601   4.777  14.334  0.00  0.00    +0.000 A 
ATOM     20  C   UNL     1       7.283   4.740  15.695  0.00  0.00    +0.000 A 
BRANCH  18  21
ATOM     21  N   UNL     1       7.073   4.262  12.029  0.00  0.00    +0.000 N 
ATOM     22  H   UNL     1       6.308   4.035  11.400  0.00  0.00    +0.000 HD
ATOM     23  H   UNL     1       7.585   5.086  11.728  0.00  0.00    +0.000 HD
ENDBRANCH  18  21
ENDBRANCH  13  15
ENDBRANCH   5  13
BRANCH   6  24
ATOM     24  C   UNL     1       4.663   6.774  16.505  0.00  0.00    +0.000 C 
ATOM     25  N   UNL     1       4.973   7.236  15.486  0.00  0.00    +0.000 NA
ENDBRANCH   6  24
TORSDOF 6
ENDMDL
MODEL 2
REMARK VINA RESULT:      -6.3      5.889      9.028
REMARK  Name = 
REMARK  6 active torsions:
REMARK  status: ('A' for Active; 'I' for Inactive)
REMARK    1  A    between atoms: C_2  and  C_3
REMARK    2  A    between atoms: C_6  and  C_7
REMARK    3  A    between atoms: C_9  and  N_10
REMARK    4  A    between atoms: N_10  and  C_11
REMARK    5  A    between atoms: C_14  and  N_15
REMARK    6  A    between atoms: C_18  and  C_19
REMARK                            x       y       z     vdW  Elec       q    Type
REMARK                         _______ _______ _______ _____ _____    ______ ____
ROOT
ATOM      1  C   UNL     1      -3.469  12.632  20.067  0.00  0.00    +0.000 A 
ATOM      2  C   UNL     1      -3.475  11.851  18.904  0.00  0.00    +0.000 A 
ATOM      3 CL   UNL     1      -4.982  11.507  18.101  0.00  0.00    +0.000 Cl
ATOM      4  C   UNL     1      -2.269  11.343  18.383  0.00  0.00    +0.000 A 
ATOM      5  C   UNL     1      -1.022  11.626  19.013  0.00  0.00    +0.000 A 
ATOM      6  C   UNL     1      -1.029  12.450  20.169  0.00  0.00    +0.000 A 
ATOM      7  C   UNL     1      -2.250  12.928  20.695  0.00  0.00    +0.000 A 
ATOM      8 CL   UNL     1      -2.257  13.874  22.163  0.00  0.00    +0.000 Cl
ENDROOT
BRANCH   1  10
ATOM      9  N   UNL     1      -5.692  13.526  21.066  0.00  0.00    +0.000 NA
ATOM     10  C   UNL     1      -4.700  13.124  20.619  0.00  0.00    +0.000 C 
ENDBRANCH   1  10
BRANCH   4  11
ATOM     11  C   UNL     1      -2.297  10.543  17.184  0.00  0.00    +0.000 C 
ATOM     12  N   UNL     1      -2.382   9.884  16.237  0.00  0.00    +0.000 NA
ENDBRANCH   4  11
BRANCH   5  13
ATOM     13  N   UNL     1       0.159  11.005  18.512  0.00  0.00    +0.000 N 
ATOM     14  H   UNL     1       0.905  11.653  18.240  0.00  0.00    +0.000 HD
BRANCH  13  15
ATOM     15  C   UNL     1       0.792   9.797  18.878  0.00  0.00    +0.000 A 
ATOM     16  C   UNL     1       1.528   9.110  17.907  0.00  0.00    +0.000 A 
ATOM     17  C   UNL     1       2.240   7.951  18.234  0.00  0.00    +0.000 A 
ATOM     18  C   UNL     1       2.277   7.494  19.550  0.00  0.00    +0.000 A 
ATOM     19  C   UNL     1       1.489   8.139  20.504  0.00  0.00    +0.000 A 
ATOM     20  C   UNL     1       0.779   9.299  20.181  0.00  0.00    +0.000 A 
BRANCH  18  21
ATOM     21  N   UNL     1       2.914   6.290  19.865  0.00  0.00    +0.000 N 
ATOM     22  H   UNL     1       2.804   5.570  19.158  0.00  0.00    +0.000 HD
ATOM     23  H   UNL     1       3.882   6.406  20.148  0.00  0.00    +0.000 HD
ENDBRANCH  18  21
ENDBRANCH  13  15
ENDBRANCH   5  13
BRANCH   6  24
ATOM     24  C   UNL     1       0.183  12.834  20.847  0.00  0.00    +0.000 C 
ATOM     25  N   UNL     1       1.156  13.051  21.442  0.00  0.00    +0.000 NA
ENDBRANCH   6  24
TORSDOF 6
ENDMDL
MODEL 3
REMARK VINA RESULT:      -6.2      5.744      8.838
REMARK  Name = 
REMARK  6 active torsions:
REMARK  status: ('A' for Active; 'I' for Inactive)
REMARK    1  A    between atoms: C_2  and  C_3
REMARK    2  A    between atoms: C_6  and  C_7
REMARK    3  A    between atoms: C_9  and  N_10
REMARK    4  A    between atoms: N_10  and  C_11
REMARK    5  A    between atoms: C_14  and  N_15
REMARK    6  A    between atoms: C_18  and  C_19
REMARK                            x       y       z     vdW  Elec       q    Type
REMARK                         _______ _______ _______ _____ _____    ______ ____
ROOT
ATOM      1  C   UNL     1      -3.254  12.511  19.962  0.00  0.00    +0.000 A 
ATOM      2  C   UNL     1      -3.290  11.750  18.787  0.00  0.00    +0.000 A 
ATOM      3 CL   UNL     1      -4.818  11.423  18.016  0.00  0.00    +0.000 Cl
ATOM      4  C   UNL     1      -2.100  11.247  18.227  0.00  0.00    +0.000 A 
ATOM      5  C   UNL     1      -0.836  11.516  18.830  0.00  0.00    +0.000 A 
ATOM      6  C   UNL     1      -0.812  12.321  20.000  0.00  0.00    +0.000 A 
ATOM      7  C   UNL     1      -2.018  12.793  20.564  0.00  0.00    +0.000 A 
ATOM      8 CL   UNL     1      -1.985  13.715  22.047  0.00  0.00    +0.000 Cl
ENDROOT
BRANCH   1  10
ATOM      9  N   UNL     1      -5.447  13.393  21.032  0.00  0.00    +0.000 NA
ATOM     10  C   UNL     1      -4.469  12.998  20.552  0.00  0.00    +0.000 C 
ENDBRANCH   1  10
BRANCH   4  11
ATOM     11  C   UNL     1      -2.160  10.467  17.016  0.00  0.00    +0.000 C 
ATOM     12  N   UNL     1      -2.161   9.801  16.070  0.00  0.00    +0.000 NA
ENDBRANCH   4  11
BRANCH   5  13
ATOM     13  N   UNL     1       0.329  10.900  18.289  0.00  0.00    +0.000 N 
ATOM     14  H   UNL     1       1.023  11.550  17.908  0.00  0.00    +0.000 HD
BRANCH  13  15
ATOM     15  C   UNL     1       1.041   9.752  18.702  0.00  0.00    +0.000 A 
ATOM     16  C   UNL     1       0.864   9.295  20.013  0.00  0.00    +0.000 A 
ATOM     17  C   UNL     1       1.482   8.119  20.451  0.00  0.00    +0.000 A 
ATOM     18  C   UNL     1       2.238   7.349  19.569  0.00  0.00    +0.000 A 
ATOM     19  C   UNL     1       2.470   7.840  18.284  0.00  0.00    +0.000 A 
ATOM     20  C   UNL     1       1.852   9.013  17.841  0.00  0.00    +0.000 A 
BRANCH  18  21
ATOM     21  N   UNL     1       2.928   6.221  20.025  0.00  0.00    +0.000 N 
ATOM     22  H   UNL     1       3.893   6.176  19.712  0.00  0.00    +0.000 HD
ATOM     23  H   UNL     1       2.841   6.070  21.025  0.00  0.00    +0.000 HD
ENDBRANCH  18  21
ENDBRANCH  13  15
ENDBRANCH   5  13
BRANCH   6  24
ATOM     24  C   UNL     1       0.418  12.690  20.654  0.00  0.00    +0.000 C 
ATOM     25  N   UNL     1       1.412  13.069  21.117  0.00  0.00    +0.000 NA
ENDBRANCH   6  24
TORSDOF 6
ENDMDL
MODEL 4
REMARK VINA RESULT:      -6.2      5.939      8.987
REMARK  Name = 
REMARK  6 active torsions:
REMARK  status: ('A' for Active; 'I' for Inactive)
REMARK    1  A    between atoms: C_2  and  C_3
REMARK    2  A    between atoms: C_6  and  C_7
REMARK    3  A    between atoms: C_9  and  N_10
REMARK    4  A    between atoms: N_10  and  C_11
REMARK    5  A    between atoms: C_14  and  N_15
REMARK    6  A    between atoms: C_18  and  C_19
REMARK                            x       y       z     vdW  Elec       q    Type
REMARK                         _______ _______ _______ _____ _____    ______ ____
ROOT
ATOM      1  C   UNL     1      -3.785  12.456  19.715  0.00  0.00    +0.000 A 
ATOM      2  C   UNL     1      -2.649  12.774  20.470  0.00  0.00    +0.000 A 
ATOM      3 CL   UNL     1      -2.805  13.768  21.892  0.00  0.00    +0.000 Cl
ATOM      4  C   UNL     1      -1.382  12.296  20.084  0.00  0.00    +0.000 A 
ATOM      5  C   UNL     1      -1.232  11.466  18.933  0.00  0.00    +0.000 A 
ATOM      6  C   UNL     1      -2.398  11.122  18.201  0.00  0.00    +0.000 A 
ATOM      7  C   UNL     1      -3.657  11.634  18.585  0.00  0.00    +0.000 A 
ATOM      8 CL   UNL     1      -5.075  11.271  17.633  0.00  0.00    +0.000 Cl
ENDROOT
BRANCH   1  10
ATOM      9  N   UNL     1      -6.113  13.387  20.385  0.00  0.00    +0.000 NA
ATOM     10  C   UNL     1      -5.073  12.970  20.088  0.00  0.00    +0.000 C 
ENDBRANCH   1  10
BRANCH   4  11
ATOM     11  C   UNL     1      -0.225  12.632  20.875  0.00  0.00    +0.000 C 
ATOM     12  N   UNL     1       0.730  12.844  21.493  0.00  0.00    +0.000 NA
ENDBRANCH   4  11
BRANCH   5  13
ATOM     13  N   UNL     1       0.080  11.092  18.522  0.00  0.00    +0.000 N 
ATOM     14  H   UNL     1       0.742  11.868  18.433  0.00  0.00    +0.000 HD
BRANCH  13  15
ATOM     15  C   UNL     1       0.848   9.944  18.820  0.00  0.00    +0.000 A 
ATOM     16  C   UNL     1       0.794   9.427  20.119  0.00  0.00    +0.000 A 
ATOM     17  C   UNL     1       1.470   8.248  20.449  0.00  0.00    +0.000 A 
ATOM     18  C   UNL     1       2.162   7.534  19.471  0.00  0.00    +0.000 A 
ATOM     19  C   UNL     1       2.271   8.085  18.194  0.00  0.00    +0.000 A 
ATOM     20  C   UNL     1       1.594   9.261  17.860  0.00  0.00    +0.000 A 
BRANCH  18  21
ATOM     21  N   UNL     1       2.910   6.404  19.815  0.00  0.00    +0.000 N 
ATOM     22  H   UNL     1       3.329   6.454  20.739  0.00  0.00    +0.000 HD
ATOM     23  H   UNL     1       2.417   5.530  19.663  0.00  0.00    +0.000 HD
ENDBRANCH  18  21
ENDBRANCH  13  15
ENDBRANCH   5  13
BRANCH   6  24
ATOM     24  C   UNL     1      -2.357  10.249  17.055  0.00  0.00    +0.000 C 
ATOM     25  N   UNL     1      -2.222   9.565  16.127  0.00  0.00    +0.000 NA
ENDBRANCH   6  24
TORSDOF 6
ENDMDL
MODEL 5
REMARK VINA RESULT:      -6.1      5.995      9.086
REMARK  Name = 
REMARK  6 active torsions:
REMARK  status: ('A' for Active; 'I' for Inactive)
REMARK    1  A    between atoms: C_2  and  C_3
REMARK    2  A    between atoms: C_6  and  C_7
REMARK    3  A    between atoms: C_9  and  N_10
REMARK    4  A    between atoms: N_10  and  C_11
REMARK    5  A    between atoms: C_14  and  N_15
REMARK    6  A    between atoms: C_18  and  C_19
REMARK                            x       y       z     vdW  Elec       q    Type
REMARK                         _______ _______ _______ _____ _____    ______ ____
ROOT
ATOM      1  C   UNL     1      -3.825  12.610  19.792  0.00  0.00    +0.000 A 
ATOM      2  C   UNL     1      -2.719  12.888  20.605  0.00  0.00    +0.000 A 
ATOM      3 CL   UNL     1      -2.910  13.900  22.009  0.00  0.00    +0.000 Cl
ATOM      4  C   UNL     1      -1.454  12.354  20.292  0.00  0.00    +0.000 A 
ATOM      5  C   UNL     1      -1.276  11.508  19.158  0.00  0.00    +0.000 A 
ATOM      6  C   UNL     1      -2.414  11.205  18.366  0.00  0.00    +0.000 A 
ATOM      7  C   UNL     1      -3.670  11.773  18.677  0.00  0.00    +0.000 A 
ATOM      8 CL   UNL     1      -5.048  11.459  17.650  0.00  0.00    +0.000 Cl
ENDROOT
BRANCH   1  10
ATOM      9  N   UNL     1      -6.145  13.641  20.326  0.00  0.00    +0.000 NA
ATOM     10  C   UNL     1      -5.109  13.180  20.090  0.00  0.00    +0.000 C 
ENDBRANCH   1  10
BRANCH   4  11
ATOM     11  C   UNL     1      -0.329  12.650  21.144  0.00  0.00    +0.000 C 
ATOM     12  N   UNL     1       0.613  12.889  21.772  0.00  0.00    +0.000 NA
ENDBRANCH   4  11
BRANCH   5  13
ATOM     13  N   UNL     1       0.040  11.076  18.821  0.00  0.00    +0.000 N 
ATOM     14  H   UNL     1       0.754  11.810  18.847  0.00  0.00    +0.000 HD
BRANCH  13  15
ATOM     15  C   UNL     1       0.707   9.859  19.086  0.00  0.00    +0.000 A 
ATOM     16  C   UNL     1       1.424   9.254  18.047  0.00  0.00    +0.000 A 
ATOM     17  C   UNL     1       2.168   8.092  18.273  0.00  0.00    +0.000 A 
ATOM     18  C   UNL     1       2.255   7.548  19.554  0.00  0.00    +0.000 A 
ATOM     19  C   UNL     1       1.486   8.111  20.573  0.00  0.00    +0.000 A 
ATOM     20  C   UNL     1       0.744   9.275  20.352  0.00  0.00    +0.000 A 
BRANCH  18  21
ATOM     21  N   UNL     1       2.924   6.339  19.767  0.00  0.00    +0.000 N 
ATOM     22  H   UNL     1       2.911   6.027  20.733  0.00  0.00    +0.000 HD
ATOM     23  H   UNL     1       2.649   5.605  19.122  0.00  0.00    +0.000 HD
ENDBRANCH  18  21
ENDBRANCH  13  15
ENDBRANCH   5  13
BRANCH   6  24
ATOM     24  C   UNL     1      -2.347  10.321  17.229  0.00  0.00    +0.000 C 
ATOM     25  N   UNL     1      -2.396   9.595  16.325  0.00  0.00    +0.000 NA
ENDBRANCH   6  24
TORSDOF 6
ENDMDL
MODEL 6
REMARK VINA RESULT:      -6.1      0.153      1.034
REMARK  Name = 
REMARK  6 active torsions:
REMARK  status: ('A' for Active; 'I' for Inactive)
REMARK    1  A    between atoms: C_2  and  C_3
REMARK    2  A    between atoms: C_6  and  C_7
REMARK    3  A    between atoms: C_9  and  N_10
REMARK    4  A    between atoms: N_10  and  C_11
REMARK    5  A    between atoms: C_14  and  N_15
REMARK    6  A    between atoms: C_18  and  C_19
REMARK                            x       y       z     vdW  Elec       q    Type
REMARK                         _______ _______ _______ _____ _____    ______ ____
ROOT
ATOM      1  C   UNL     1       2.609   6.244  19.702  0.00  0.00    +0.000 A 
ATOM      2  C   UNL     1       3.031   4.956  20.053  0.00  0.00    +0.000 A 
ATOM      3 CL   UNL     1       2.382   4.191  21.477  0.00  0.00    +0.000 Cl
ATOM      4  C   UNL     1       3.979   4.278  19.262  0.00  0.00    +0.000 A 
ATOM      5  C   UNL     1       4.511   4.876  18.083  0.00  0.00    +0.000 A 
ATOM      6  C   UNL     1       4.045   6.167  17.719  0.00  0.00    +0.000 A 
ATOM      7  C   UNL     1       3.116   6.845  18.540  0.00  0.00    +0.000 A 
ATOM      8 CL   UNL     1       2.608   8.465  18.129  0.00  0.00    +0.000 Cl
ENDROOT
BRANCH   1  10
ATOM      9  N   UNL     1       0.906   7.517  21.190  0.00  0.00    +0.000 NA
ATOM     10  C   UNL     1       1.668   6.951  20.525  0.00  0.00    +0.000 C 
ENDBRANCH   1  10
BRANCH   4  11
ATOM     11  C   UNL     1       4.399   2.951  19.640  0.00  0.00    +0.000 C 
ATOM     12  N   UNL     1       4.761   1.913  20.000  0.00  0.00    +0.000 NA
ENDBRANCH   4  11
BRANCH   5  13
ATOM     13  N   UNL     1       5.543   4.197  17.372  0.00  0.00    +0.000 N 
ATOM     14  H   UNL     1       5.739   3.247  17.700  0.00  0.00    +0.000 HD
BRANCH  13  15
ATOM     15  C   UNL     1       5.895   4.229  16.005  0.00  0.00    +0.000 A 
ATOM     16  C   UNL     1       7.148   4.746  15.652  0.00  0.00    +0.000 A 
ATOM     17  C   UNL     1       7.580   4.728  14.322  0.00  0.00    +0.000 A 
ATOM     18  C   UNL     1       6.794   4.140  13.332  0.00  0.00    +0.000 A 
ATOM     19  C   UNL     1       5.519   3.688  13.672  0.00  0.00    +0.000 A 
ATOM     20  C   UNL     1       5.084   3.700  15.001  0.00  0.00    +0.000 A 
BRANCH  18  21
ATOM     21  N   UNL     1       7.183   4.199  11.990  0.00  0.00    +0.000 N 
ATOM     22  H   UNL     1       8.069   4.671  11.839  0.00  0.00    +0.000 HD
ATOM     23  H   UNL     1       7.140   3.302  11.517  0.00  0.00    +0.000 HD
ENDBRANCH  18  21
ENDBRANCH  13  15
ENDBRANCH   5  13
BRANCH   6  24
ATOM     24  C   UNL     1       4.484   6.835  16.520  0.00  0.00    +0.000 C 
ATOM     25  N   UNL     1       4.885   7.283  15.528  0.00  0.00    +0.000 NA
ENDBRANCH   6  24
TORSDOF 6
ENDMDL
MODEL 7
REMARK VINA RESULT:      -6.0      6.406      9.721
REMARK  Name = 
REMARK  6 active torsions:
REMARK  status: ('A' for Active; 'I' for Inactive)
REMARK    1  A    between atoms: C_2  and  C_3
REMARK    2  A    between atoms: C_6  and  C_7
REMARK    3  A    between atoms: C_9  and  N_10
REMARK    4  A    between atoms: N_10  and  C_11
REMARK    5  A    between atoms: C_14  and  N_15
REMARK    6  A    between atoms: C_18  and  C_19
REMARK                            x       y       z     vdW  Elec       q    Type
REMARK                         _______ _______ _______ _____ _____    ______ ____
ROOT
ATOM      1  C   UNL     1      -4.540  12.414  19.782  0.00  0.00    +0.000 A 
ATOM      2  C   UNL     1      -4.227  11.779  18.573  0.00  0.00    +0.000 A 
ATOM      3 CL   UNL     1      -5.502  11.348  17.467  0.00  0.00    +0.000 Cl
ATOM      4  C   UNL     1      -2.888  11.487  18.248  0.00  0.00    +0.000 A 
ATOM      5  C   UNL     1      -1.826  11.846  19.130  0.00  0.00    +0.000 A 
ATOM      6  C   UNL     1      -2.156  12.522  20.333  0.00  0.00    +0.000 A 
ATOM      7  C   UNL     1      -3.507  12.782  20.657  0.00  0.00    +0.000 A 
ATOM      8 CL   UNL     1      -3.910  13.543  22.176  0.00  0.00    +0.000 Cl
ENDROOT
BRANCH   1  10
ATOM      9  N   UNL     1      -7.011  12.904  20.405  0.00  0.00    +0.000 NA
ATOM     10  C   UNL     1      -5.907  12.684  20.129  0.00  0.00    +0.000 C 
ENDBRANCH   1  10
BRANCH   4  11
ATOM     11  C   UNL     1      -2.587  10.835  16.998  0.00  0.00    +0.000 C 
ATOM     12  N   UNL     1      -2.405  10.332  15.973  0.00  0.00    +0.000 NA
ENDBRANCH   4  11
BRANCH   5  13
ATOM     13  N   UNL     1      -0.499  11.437  18.810  0.00  0.00    +0.000 N 
ATOM     14  H   UNL     1       0.189  12.196  18.774  0.00  0.00    +0.000 HD
BRANCH  13  15
ATOM     15  C   UNL     1       0.214  10.267  19.154  0.00  0.00    +0.000 A 
ATOM     16  C   UNL     1       0.999   9.653  18.172  0.00  0.00    +0.000 A 
ATOM     17  C   UNL     1       1.787   8.539  18.478  0.00  0.00    +0.000 A 
ATOM     18  C   UNL     1       1.850   8.057  19.785  0.00  0.00    +0.000 A 
ATOM     19  C   UNL     1       1.016   8.626  20.748  0.00  0.00    +0.000 A 
ATOM     20  C   UNL     1       0.230   9.742  20.446  0.00  0.00    +0.000 A 
BRANCH  18  21
ATOM     21  N   UNL     1       2.566   6.893  20.077  0.00  0.00    +0.000 N 
ATOM     22  H   UNL     1       3.554   6.950  19.849  0.00  0.00    +0.000 HD
ATOM     23  H   UNL     1       2.409   6.546  21.018  0.00  0.00    +0.000 HD
ENDBRANCH  18  21
ENDBRANCH  13  15
ENDBRANCH   5  13
BRANCH   6  24
ATOM     24  C   UNL     1      -1.152  12.970  21.265  0.00  0.00    +0.000 C 
ATOM     25  N   UNL     1      -0.399  13.419  22.026  0.00  0.00    +0.000 NA
ENDBRANCH   6  24
TORSDOF 6
ENDMDL
MODEL 8
REMARK VINA RESULT:      -5.9      7.992     11.319
REMARK  Name = 
REMARK  6 active torsions:
REMARK  status: ('A' for Active; 'I' for Inactive)
REMARK    1  A    between atoms: C_2  and  C_3
REMARK    2  A    between atoms: C_6  and  C_7
REMARK    3  A    between atoms: C_9  and  N_10
REMARK    4  A    between atoms: N_10  and  C_11
REMARK    5  A    between atoms: C_14  and  N_15
REMARK    6  A    between atoms: C_18  and  C_19
REMARK                            x       y       z     vdW  Elec       q    Type
REMARK                         _______ _______ _______ _____ _____    ______ ____
ROOT
ATOM      1  C   UNL     1      -5.767  12.664  22.451  0.00  0.00    +0.000 A 
ATOM      2  C   UNL     1      -4.456  12.851  22.908  0.00  0.00    +0.000 A 
ATOM      3 CL   UNL     1      -4.142  12.953  24.619  0.00  0.00    +0.000 Cl
ATOM      4  C   UNL     1      -3.392  12.958  21.992  0.00  0.00    +0.000 A 
ATOM      5  C   UNL     1      -3.621  12.860  20.588  0.00  0.00    +0.000 A 
ATOM      6  C   UNL     1      -4.950  12.633  20.143  0.00  0.00    +0.000 A 
ATOM      7  C   UNL     1      -6.010  12.557  21.074  0.00  0.00    +0.000 A 
ATOM      8 CL   UNL     1      -7.652  12.358  20.513  0.00  0.00    +0.000 Cl
ENDROOT
BRANCH   1  10
ATOM      9  N   UNL     1      -7.738  12.522  24.134  0.00  0.00    +0.000 NA
ATOM     10  C   UNL     1      -6.858  12.588  23.382  0.00  0.00    +0.000 C 
ENDBRANCH   1  10
BRANCH   4  11
ATOM     11  C   UNL     1      -2.050  13.147  22.483  0.00  0.00    +0.000 C 
ATOM     12  N   UNL     1      -0.987  13.365  22.885  0.00  0.00    +0.000 NA
ENDBRANCH   4  11
BRANCH   5  13
ATOM     13  N   UNL     1      -2.532  13.078  19.696  0.00  0.00    +0.000 N 
ATOM     14  H   UNL     1      -2.026  13.957  19.840  0.00  0.00    +0.000 HD
BRANCH  13  15
ATOM     15  C   UNL     1      -1.606  12.171  19.132  0.00  0.00    +0.000 A 
ATOM     16  C   UNL     1      -0.243  12.375  19.376  0.00  0.00    +0.000 A 
ATOM     17  C   UNL     1       0.711  11.465  18.910  0.00  0.00    +0.000 A 
ATOM     18  C   UNL     1       0.315  10.306  18.244  0.00  0.00    +0.000 A 
ATOM     19  C   UNL     1      -1.037  10.138  17.942  0.00  0.00    +0.000 A 
ATOM     20  C   UNL     1      -1.994  11.043  18.410  0.00  0.00    +0.000 A 
BRANCH  18  21
ATOM     21  N   UNL     1       1.268   9.439  17.700  0.00  0.00    +0.000 N 
ATOM     22  H   UNL     1       0.906   8.839  16.965  0.00  0.00    +0.000 HD
ATOM     23  H   UNL     1       2.128   9.904  17.428  0.00  0.00    +0.000 HD
ENDBRANCH  18  21
ENDBRANCH  13  15
ENDBRANCH   5  13
BRANCH   6  24
ATOM     24  C   UNL     1      -5.277  12.469  18.749  0.00  0.00    +0.000 C 
ATOM     25  N   UNL     1      -5.481  12.422  17.607  0.00  0.00    +0.000 NA
ENDBRANCH   6  24
TORSDOF 6
ENDMDL
MODEL 9
REMARK VINA RESULT:      -5.9      5.781      8.890
REMARK  Name = 
REMARK  6 active torsions:
REMARK  status: ('A' for Active; 'I' for Inactive)
REMARK    1  A    between atoms: C_2  and  C_3
REMARK    2  A    between atoms: C_6  and  C_7
REMARK    3  A    between atoms: C_9  and  N_10
REMARK    4  A    between atoms: N_10  and  C_11
REMARK    5  A    between atoms: C_14  and  N_15
REMARK    6  A    between atoms: C_18  and  C_19
REMARK                            x       y       z     vdW  Elec       q    Type
REMARK                         _______ _______ _______ _____ _____    ______ ____
ROOT
ATOM      1  C   UNL     1      -2.777  13.197  20.436  0.00  0.00    +0.000 A 
ATOM      2  C   UNL     1      -1.462  13.378  20.883  0.00  0.00    +0.000 A 
ATOM      3 CL   UNL     1      -1.122  14.563  22.114  0.00  0.00    +0.000 Cl
ATOM      4  C   UNL     1      -0.414  12.608  20.342  0.00  0.00    +0.000 A 
ATOM      5  C   UNL     1      -0.670  11.619  19.347  0.00  0.00    +0.000 A 
ATOM      6  C   UNL     1      -2.013  11.422  18.932  0.00  0.00    +0.000 A 
ATOM      7  C   UNL     1      -3.048  12.223  19.463  0.00  0.00    +0.000 A 
ATOM      8 CL   UNL     1      -4.686  12.028  18.889  0.00  0.00    +0.000 Cl
ENDROOT
BRANCH   1  10
ATOM      9  N   UNL     1      -4.702  14.652  21.392  0.00  0.00    +0.000 NA
ATOM     10  C   UNL     1      -3.842  14.004  20.963  0.00  0.00    +0.000 C 
ENDBRANCH   1  10
BRANCH   4  11
ATOM     11  C   UNL     1       0.932  12.809  20.818  0.00  0.00    +0.000 C 
ATOM     12  N   UNL     1       2.026  12.907  21.180  0.00  0.00    +0.000 NA
ENDBRANCH   4  11
BRANCH   5  13
ATOM     13  N   UNL     1       0.432  10.939  18.754  0.00  0.00    +0.000 N 
ATOM     14  H   UNL     1       1.203  11.544  18.455  0.00  0.00    +0.000 HD
BRANCH  13  15
ATOM     15  C   UNL     1       1.002   9.679  19.044  0.00  0.00    +0.000 A 
ATOM     16  C   UNL     1       1.689   9.009  18.026  0.00  0.00    +0.000 A 
ATOM     17  C   UNL     1       2.340   7.797  18.279  0.00  0.00    +0.000 A 
ATOM     18  C   UNL     1       2.366   7.266  19.567  0.00  0.00    +0.000 A 
ATOM     19  C   UNL     1       1.624   7.898  20.565  0.00  0.00    +0.000 A 
ATOM     20  C   UNL     1       0.975   9.111  20.317  0.00  0.00    +0.000 A 
BRANCH  18  21
ATOM     21  N   UNL     1       2.939   6.013  19.806  0.00  0.00    +0.000 N 
ATOM     22  H   UNL     1       2.644   5.295  19.152  0.00  0.00    +0.000 HD
ATOM     23  H   UNL     1       3.948   6.044  19.913  0.00  0.00    +0.000 HD
ENDBRANCH  18  21
ENDBRANCH  13  15
ENDBRANCH   5  13
BRANCH   6  24
ATOM     24  C   UNL     1      -2.381  10.414  17.969  0.00  0.00    +0.000 C 
ATOM     25  N   UNL     1      -2.768   9.595  17.244  0.00  0.00    +0.000 NA
ENDBRANCH   6  24
TORSDOF 6
ENDMDL
