MODEL 1
REMARK VINA RESULT:      -7.1      0.000      0.000
REMARK  Name = 
REMARK  4 active torsions:
REMARK  status: ('A' for Active; 'I' for Inactive)
REMARK    1  A    between atoms: C_1  and  C_2
REMARK    2  A    between atoms: C_10  and  C_11
REMARK    3  A    between atoms: C_11  and  S_12
REMARK    4  A    between atoms: S_12  and  C_13
REMARK                            x       y       z     vdW  Elec       q    Type
REMARK                         _______ _______ _______ _____ _____    ______ ____
ROOT
ATOM      1  C   UNL     1      -1.201  17.132  21.422  0.00  0.00    +0.000 C 
ATOM      2  C   UNL     1      -2.111  17.570  22.563  0.00  0.00    +0.000 C 
ATOM      3  C   UNL     1      -1.256  17.849  23.822  0.00  0.00    +0.000 C 
ATOM      4  O   UNL     1      -2.047  18.374  24.901  0.00  0.00    +0.000 OA
ATOM      5  C   UNL     1      -3.071  17.440  25.260  0.00  0.00    +0.000 C 
ATOM      6  C   UNL     1      -4.018  17.169  24.084  0.00  0.00    +0.000 C 
ATOM      7  N   UNL     1      -3.248  16.676  22.923  0.00  0.00    +0.000 N 
ATOM      8  C   UNL     1      -3.584  15.491  22.306  0.00  0.00    +0.000 A 
ATOM      9  C   UNL     1      -4.885  15.005  22.335  0.00  0.00    +0.000 A 
ATOM     10  C   UNL     1      -5.161  13.775  21.769  0.00  0.00    +0.000 A 
ATOM     11  N   UNL     1      -4.224  13.139  21.056  0.00  0.00    +0.000 NA
ATOM     12  C   UNL     1      -2.979  13.641  21.059  0.00  0.00    +0.000 A 
ATOM     13  N   UNL     1      -1.995  12.866  20.386  0.00  0.00    +0.000 N 
ATOM     14  C   UNL     1      -0.633  12.816  20.649  0.00  0.00    +0.000 A 
ATOM     15  N   UNL     1      -0.026  13.539  21.606  0.00  0.00    +0.000 N 
ATOM     16  N   UNL     1      -0.035  11.902  19.923  0.00  0.00    +0.000 NA
ATOM     17  C   UNL     1      -1.009  11.345  19.127  0.00  0.00    +0.000 A 
ATOM     18  C   UNL     1      -0.957  10.327  18.159  0.00  0.00    +0.000 A 
ATOM     19 CL   UNL     1       0.563   9.595  17.895  0.00  0.00    +0.000 Cl
ATOM     20  C   UNL     1      -2.098   9.939  17.454  0.00  0.00    +0.000 A 
ATOM     21  C   UNL     1      -3.313  10.568  17.706  0.00  0.00    +0.000 A 
ATOM     22  C   UNL     1      -3.409  11.575  18.669  0.00  0.00    +0.000 A 
ATOM     23  C   UNL     1      -2.248  11.933  19.383  0.00  0.00    +0.000 A 
ATOM     24  N   UNL     1      -2.625  14.762  21.714  0.00  0.00    +0.000 NA
ATOM     25  H   UNL     1      -0.574  14.066  22.283  0.00  0.00    +0.000 HD
ATOM     26  H   UNL     1       0.882  13.221  21.929  0.00  0.00    +0.000 HD
ENDROOT
BRANCH  10  27
ATOM     27  C   UNL     1      -6.435  13.033  22.036  0.00  0.00    +0.000 C 
ATOM     28  C   UNL     1      -7.655  13.314  21.178  0.00  0.00    +0.000 C 
ATOM     29  C   UNL     1      -6.936  12.001  21.050  0.00  0.00    +0.000 C 
BRANCH  27  30
ATOM     30  S   UNL     1      -6.851  12.676  23.775  0.00  0.00    +0.000 S 
ATOM     31  C   UNL     1      -5.279  12.438  24.557  0.00  0.00    +0.000 C 
ATOM     32  O   UNL     1      -7.462  13.860  24.352  0.00  0.00    +0.000 OA
ATOM     33  O   UNL     1      -7.555  11.410  23.768  0.00  0.00    +0.000 OA
ENDBRANCH  27  30
ENDBRANCH  10  27
TORSDOF 2
ENDMDL
MODEL 2
REMARK VINA RESULT:      -7.0      8.378     12.050
REMARK  Name = 
REMARK  4 active torsions:
REMARK  status: ('A' for Active; 'I' for Inactive)
REMARK    1  A    between atoms: C_1  and  C_2
REMARK    2  A    between atoms: C_10  and  C_11
REMARK    3  A    between atoms: C_11  and  S_12
REMARK    4  A    between atoms: S_12  and  C_13
REMARK                            x       y       z     vdW  Elec       q    Type
REMARK                         _______ _______ _______ _____ _____    ______ ____
ROOT
ATOM      1  C   UNL     1       6.554   7.853  17.688  0.00  0.00    +0.000 C 
ATOM      2  C   UNL     1       6.903   6.444  17.225  0.00  0.00    +0.000 C 
ATOM      3  C   UNL     1       7.152   6.455  15.697  0.00  0.00    +0.000 C 
ATOM      4  O   UNL     1       7.595   5.175  15.218  0.00  0.00    +0.000 OA
ATOM      5  C   UNL     1       6.609   4.177  15.497  0.00  0.00    +0.000 C 
ATOM      6  C   UNL     1       6.360   4.043  17.005  0.00  0.00    +0.000 C 
ATOM      7  N   UNL     1       5.952   5.349  17.564  0.00  0.00    +0.000 N 
ATOM      8  C   UNL     1       4.786   5.471  18.288  0.00  0.00    +0.000 A 
ATOM      9  C   UNL     1       4.252   4.396  18.986  0.00  0.00    +0.000 A 
ATOM     10  C   UNL     1       3.041   4.545  19.635  0.00  0.00    +0.000 A 
ATOM     11  N   UNL     1       2.475   5.753  19.731  0.00  0.00    +0.000 NA
ATOM     12  C   UNL     1       3.022   6.763  19.037  0.00  0.00    +0.000 A 
ATOM     13  N   UNL     1       2.316   7.998  19.077  0.00  0.00    +0.000 N 
ATOM     14  C   UNL     1       2.303   8.995  18.111  0.00  0.00    +0.000 A 
ATOM     15  N   UNL     1       3.001   8.939  16.964  0.00  0.00    +0.000 N 
ATOM     16  N   UNL     1       1.447   9.944  18.409  0.00  0.00    +0.000 NA
ATOM     17  C   UNL     1       0.894   9.595  19.619  0.00  0.00    +0.000 A 
ATOM     18  C   UNL     1      -0.074  10.226  20.421  0.00  0.00    +0.000 A 
ATOM     19 CL   UNL     1      -0.736  11.682  19.823  0.00  0.00    +0.000 Cl
ATOM     20  C   UNL     1      -0.469   9.679  21.643  0.00  0.00    +0.000 A 
ATOM     21  C   UNL     1       0.103   8.490  22.085  0.00  0.00    +0.000 A 
ATOM     22  C   UNL     1       1.058   7.827  21.312  0.00  0.00    +0.000 A 
ATOM     23  C   UNL     1       1.424   8.387  20.072  0.00  0.00    +0.000 A 
ATOM     24  N   UNL     1       4.122   6.638  18.273  0.00  0.00    +0.000 NA
ATOM     25  H   UNL     1       3.474   8.081  16.686  0.00  0.00    +0.000 HD
ATOM     26  H   UNL     1       2.702   9.539  16.202  0.00  0.00    +0.000 HD
ENDROOT
BRANCH  10  27
ATOM     27  C   UNL     1       2.241   3.376  20.125  0.00  0.00    +0.000 C 
ATOM     28  C   UNL     1       2.552   2.778  21.485  0.00  0.00    +0.000 C 
ATOM     29  C   UNL     1       1.276   3.544  21.279  0.00  0.00    +0.000 C 
BRANCH  27  30
ATOM     30  S   UNL     1       1.734   2.130  18.895  0.00  0.00    +0.000 S 
ATOM     31  C   UNL     1       2.129   2.874  17.335  0.00  0.00    +0.000 C 
ATOM     32  O   UNL     1       2.576   0.958  19.056  0.00  0.00    +0.000 OA
ATOM     33  O   UNL     1       0.293   2.025  19.000  0.00  0.00    +0.000 OA
ENDBRANCH  27  30
ENDBRANCH  10  27
TORSDOF 2
ENDMDL
MODEL 3
REMARK VINA RESULT:      -6.9      2.826      5.115
REMARK  Name = 
REMARK  4 active torsions:
REMARK  status: ('A' for Active; 'I' for Inactive)
REMARK    1  A    between atoms: C_1  and  C_2
REMARK    2  A    between atoms: C_10  and  C_11
REMARK    3  A    between atoms: C_11  and  S_12
REMARK    4  A    between atoms: S_12  and  C_13
REMARK                            x       y       z     vdW  Elec       q    Type
REMARK                         _______ _______ _______ _____ _____    ______ ____
ROOT
ATOM      1  C   UNL     1      -5.795  11.260  17.810  0.00  0.00    +0.000 C 
ATOM      2  C   UNL     1      -6.481  12.552  18.236  0.00  0.00    +0.000 C 
ATOM      3  C   UNL     1      -6.743  13.427  16.986  0.00  0.00    +0.000 C 
ATOM      4  O   UNL     1      -7.489  14.612  17.310  0.00  0.00    +0.000 OA
ATOM      5  C   UNL     1      -6.768  15.403  18.260  0.00  0.00    +0.000 C 
ATOM      6  C   UNL     1      -6.535  14.634  19.567  0.00  0.00    +0.000 C 
ATOM      7  N   UNL     1      -5.816  13.374  19.286  0.00  0.00    +0.000 N 
ATOM      8  C   UNL     1      -4.644  13.071  19.943  0.00  0.00    +0.000 A 
ATOM      9  C   UNL     1      -4.373  13.575  21.209  0.00  0.00    +0.000 A 
ATOM     10  C   UNL     1      -3.152  13.306  21.798  0.00  0.00    +0.000 A 
ATOM     11  N   UNL     1      -2.310  12.435  21.230  0.00  0.00    +0.000 NA
ATOM     12  C   UNL     1      -2.608  11.976  20.004  0.00  0.00    +0.000 A 
ATOM     13  N   UNL     1      -1.625  11.148  19.395  0.00  0.00    +0.000 N 
ATOM     14  C   UNL     1      -1.388  10.976  18.038  0.00  0.00    +0.000 A 
ATOM     15  N   UNL     1      -2.097  11.581  17.070  0.00  0.00    +0.000 N 
ATOM     16  N   UNL     1      -0.324  10.239  17.824  0.00  0.00    +0.000 NA
ATOM     17  C   UNL     1       0.148   9.877  19.065  0.00  0.00    +0.000 A 
ATOM     18  C   UNL     1       1.251   9.097  19.454  0.00  0.00    +0.000 A 
ATOM     19 CL   UNL     1       2.235   8.480  18.203  0.00  0.00    +0.000 Cl
ATOM     20  C   UNL     1       1.522   8.848  20.801  0.00  0.00    +0.000 A 
ATOM     21  C   UNL     1       0.688   9.375  21.782  0.00  0.00    +0.000 A 
ATOM     22  C   UNL     1      -0.411  10.164  21.437  0.00  0.00    +0.000 A 
ATOM     23  C   UNL     1      -0.651  10.420  20.072  0.00  0.00    +0.000 A 
ATOM     24  N   UNL     1      -3.719  12.319  19.325  0.00  0.00    +0.000 NA
ATOM     25  H   UNL     1      -2.767  12.312  17.297  0.00  0.00    +0.000 HD
ATOM     26  H   UNL     1      -1.674  11.646  16.149  0.00  0.00    +0.000 HD
ENDROOT
BRANCH  10  27
ATOM     27  C   UNL     1      -2.650  14.062  22.990  0.00  0.00    +0.000 C 
ATOM     28  C   UNL     1      -1.184  13.967  23.370  0.00  0.00    +0.000 C 
ATOM     29  C   UNL     1      -1.729  15.249  22.807  0.00  0.00    +0.000 C 
BRANCH  27  30
ATOM     30  S   UNL     1      -3.756  14.184  24.435  0.00  0.00    +0.000 S 
ATOM     31  C   UNL     1      -4.299  12.519  24.707  0.00  0.00    +0.000 C 
ATOM     32  O   UNL     1      -2.965  14.589  25.583  0.00  0.00    +0.000 OA
ATOM     33  O   UNL     1      -4.893  14.972  24.005  0.00  0.00    +0.000 OA
ENDBRANCH  27  30
ENDBRANCH  10  27
TORSDOF 2
ENDMDL
MODEL 4
REMARK VINA RESULT:      -6.9      3.212      5.371
REMARK  Name = 
REMARK  4 active torsions:
REMARK  status: ('A' for Active; 'I' for Inactive)
REMARK    1  A    between atoms: C_1  and  C_2
REMARK    2  A    between atoms: C_10  and  C_11
REMARK    3  A    between atoms: C_11  and  S_12
REMARK    4  A    between atoms: S_12  and  C_13
REMARK                            x       y       z     vdW  Elec       q    Type
REMARK                         _______ _______ _______ _____ _____    ______ ____
ROOT
ATOM      1  C   UNL     1      -7.202  12.205  21.992  0.00  0.00    +0.000 C 
ATOM      2  C   UNL     1      -6.838  13.297  22.990  0.00  0.00    +0.000 C 
ATOM      3  C   UNL     1      -7.886  14.434  22.909  0.00  0.00    +0.000 C 
ATOM      4  O   UNL     1      -7.658  15.443  23.907  0.00  0.00    +0.000 OA
ATOM      5  C   UNL     1      -6.362  16.023  23.733  0.00  0.00    +0.000 C 
ATOM      6  C   UNL     1      -5.254  14.972  23.881  0.00  0.00    +0.000 C 
ATOM      7  N   UNL     1      -5.469  13.878  22.911  0.00  0.00    +0.000 N 
ATOM      8  C   UNL     1      -4.471  13.507  22.035  0.00  0.00    +0.000 A 
ATOM      9  C   UNL     1      -3.131  13.698  22.343  0.00  0.00    +0.000 A 
ATOM     10  C   UNL     1      -2.168  13.382  21.403  0.00  0.00    +0.000 A 
ATOM     11  N   UNL     1      -2.513  12.744  20.279  0.00  0.00    +0.000 NA
ATOM     12  C   UNL     1      -3.819  12.584  20.018  0.00  0.00    +0.000 A 
ATOM     13  N   UNL     1      -4.135  12.008  18.757  0.00  0.00    +0.000 N 
ATOM     14  C   UNL     1      -5.288  12.198  18.006  0.00  0.00    +0.000 A 
ATOM     15  N   UNL     1      -6.317  12.971  18.392  0.00  0.00    +0.000 N 
ATOM     16  N   UNL     1      -5.200  11.617  16.833  0.00  0.00    +0.000 NA
ATOM     17  C   UNL     1      -3.974  10.993  16.804  0.00  0.00    +0.000 A 
ATOM     18  C   UNL     1      -3.339  10.224  15.813  0.00  0.00    +0.000 A 
ATOM     19 CL   UNL     1      -4.186  10.012  14.346  0.00  0.00    +0.000 Cl
ATOM     20  C   UNL     1      -2.077   9.668  16.026  0.00  0.00    +0.000 A 
ATOM     21  C   UNL     1      -1.429   9.871  17.241  0.00  0.00    +0.000 A 
ATOM     22  C   UNL     1      -2.020  10.639  18.246  0.00  0.00    +0.000 A 
ATOM     23  C   UNL     1      -3.286  11.208  17.998  0.00  0.00    +0.000 A 
ATOM     24  N   UNL     1      -4.803  13.003  20.836  0.00  0.00    +0.000 NA
ATOM     25  H   UNL     1      -6.236  13.572  19.210  0.00  0.00    +0.000 HD
ATOM     26  H   UNL     1      -6.957  13.294  17.674  0.00  0.00    +0.000 HD
ENDROOT
BRANCH  10  27
ATOM     27  C   UNL     1      -0.750  13.852  21.514  0.00  0.00    +0.000 C 
ATOM     28  C   UNL     1      -0.432  15.321  21.305  0.00  0.00    +0.000 C 
ATOM     29  C   UNL     1      -0.324  14.721  22.678  0.00  0.00    +0.000 C 
BRANCH  27  30
ATOM     30  S   UNL     1       0.554  12.743  20.887  0.00  0.00    +0.000 S 
ATOM     31  C   UNL     1       0.113  11.150  21.526  0.00  0.00    +0.000 C 
ATOM     32  O   UNL     1       0.451  12.687  19.440  0.00  0.00    +0.000 OA
ATOM     33  O   UNL     1       1.784  13.167  21.524  0.00  0.00    +0.000 OA
ENDBRANCH  27  30
ENDBRANCH  10  27
TORSDOF 2
ENDMDL
MODEL 5
REMARK VINA RESULT:      -6.8      3.084      5.260
REMARK  Name = 
REMARK  4 active torsions:
REMARK  status: ('A' for Active; 'I' for Inactive)
REMARK    1  A    between atoms: C_1  and  C_2
REMARK    2  A    between atoms: C_10  and  C_11
REMARK    3  A    between atoms: C_11  and  S_12
REMARK    4  A    between atoms: S_12  and  C_13
REMARK                            x       y       z     vdW  Elec       q    Type
REMARK                         _______ _______ _______ _____ _____    ______ ____
ROOT
ATOM      1  C   UNL     1      -5.725  11.506  17.544  0.00  0.00    +0.000 C 
ATOM      2  C   UNL     1      -6.463  12.739  18.048  0.00  0.00    +0.000 C 
ATOM      3  C   UNL     1      -6.636  13.743  16.882  0.00  0.00    +0.000 C 
ATOM      4  O   UNL     1      -7.425  14.881  17.268  0.00  0.00    +0.000 OA
ATOM      5  C   UNL     1      -6.797  15.569  18.355  0.00  0.00    +0.000 C 
ATOM      6  C   UNL     1      -6.661  14.664  19.586  0.00  0.00    +0.000 C 
ATOM      7  N   UNL     1      -5.901  13.446  19.232  0.00  0.00    +0.000 N 
ATOM      8  C   UNL     1      -4.782  13.082  19.949  0.00  0.00    +0.000 A 
ATOM      9  C   UNL     1      -4.625  13.447  21.279  0.00  0.00    +0.000 A 
ATOM     10  C   UNL     1      -3.452  13.124  21.936  0.00  0.00    +0.000 A 
ATOM     11  N   UNL     1      -2.553  12.326  21.350  0.00  0.00    +0.000 NA
ATOM     12  C   UNL     1      -2.742  12.001  20.062  0.00  0.00    +0.000 A 
ATOM     13  N   UNL     1      -1.699  11.251  19.451  0.00  0.00    +0.000 N 
ATOM     14  C   UNL     1      -1.348  11.229  18.108  0.00  0.00    +0.000 A 
ATOM     15  N   UNL     1      -1.984  11.931  17.154  0.00  0.00    +0.000 N 
ATOM     16  N   UNL     1      -0.258  10.527  17.905  0.00  0.00    +0.000 NA
ATOM     17  C   UNL     1       0.116  10.035  19.135  0.00  0.00    +0.000 A 
ATOM     18  C   UNL     1       1.195   9.225  19.528  0.00  0.00    +0.000 A 
ATOM     19 CL   UNL     1       2.289   8.754  18.305  0.00  0.00    +0.000 Cl
ATOM     20  C   UNL     1       1.358   8.833  20.859  0.00  0.00    +0.000 A 
ATOM     21  C   UNL     1       0.438   9.244  21.818  0.00  0.00    +0.000 A 
ATOM     22  C   UNL     1      -0.642  10.058  21.469  0.00  0.00    +0.000 A 
ATOM     23  C   UNL     1      -0.772  10.460  20.124  0.00  0.00    +0.000 A 
ATOM     24  N   UNL     1      -3.797  12.408  19.333  0.00  0.00    +0.000 NA
ATOM     25  H   UNL     1      -2.682  12.629  17.403  0.00  0.00    +0.000 HD
ATOM     26  H   UNL     1      -1.487  12.099  16.285  0.00  0.00    +0.000 HD
ENDROOT
BRANCH  10  27
ATOM     27  C   UNL     1      -3.062  13.749  23.241  0.00  0.00    +0.000 C 
ATOM     28  C   UNL     1      -4.088  14.552  24.019  0.00  0.00    +0.000 C 
ATOM     29  C   UNL     1      -3.631  13.219  24.539  0.00  0.00    +0.000 C 
BRANCH  27  30
ATOM     30  S   UNL     1      -1.373  14.421  23.379  0.00  0.00    +0.000 S 
ATOM     31  C   UNL     1      -1.350  15.214  24.964  0.00  0.00    +0.000 C 
ATOM     32  O   UNL     1      -0.440  13.310  23.421  0.00  0.00    +0.000 OA
ATOM     33  O   UNL     1      -1.262  15.441  22.355  0.00  0.00    +0.000 OA
ENDBRANCH  27  30
ENDBRANCH  10  27
TORSDOF 2
ENDMDL
MODEL 6
REMARK VINA RESULT:      -6.7      2.859      5.429
REMARK  Name = 
REMARK  4 active torsions:
REMARK  status: ('A' for Active; 'I' for Inactive)
REMARK    1  A    between atoms: C_1  and  C_2
REMARK    2  A    between atoms: C_10  and  C_11
REMARK    3  A    between atoms: C_11  and  S_12
REMARK    4  A    between atoms: S_12  and  C_13
REMARK                            x       y       z     vdW  Elec       q    Type
REMARK                         _______ _______ _______ _____ _____    ______ ____
ROOT
ATOM      1  C   UNL     1      -6.103  11.171  18.025  0.00  0.00    +0.000 C 
ATOM      2  C   UNL     1      -6.789  12.474  18.415  0.00  0.00    +0.000 C 
ATOM      3  C   UNL     1      -7.166  13.257  17.133  0.00  0.00    +0.000 C 
ATOM      4  O   UNL     1      -7.916  14.445  17.433  0.00  0.00    +0.000 OA
ATOM      5  C   UNL     1      -7.148  15.313  18.272  0.00  0.00    +0.000 C 
ATOM      6  C   UNL     1      -6.801  14.640  19.606  0.00  0.00    +0.000 C 
ATOM      7  N   UNL     1      -6.071  13.379  19.356  0.00  0.00    +0.000 N 
ATOM      8  C   UNL     1      -4.847  13.146  19.942  0.00  0.00    +0.000 A 
ATOM      9  C   UNL     1      -4.498  13.740  21.148  0.00  0.00    +0.000 A 
ATOM     10  C   UNL     1      -3.231  13.538  21.661  0.00  0.00    +0.000 A 
ATOM     11  N   UNL     1      -2.410  12.648  21.091  0.00  0.00    +0.000 NA
ATOM     12  C   UNL     1      -2.785  12.101  19.924  0.00  0.00    +0.000 A 
ATOM     13  N   UNL     1      -1.828  11.254  19.299  0.00  0.00    +0.000 N 
ATOM     14  C   UNL     1      -1.686  10.996  17.942  0.00  0.00    +0.000 A 
ATOM     15  N   UNL     1      -2.479  11.519  16.992  0.00  0.00    +0.000 N 
ATOM     16  N   UNL     1      -0.622  10.268  17.699  0.00  0.00    +0.000 NA
ATOM     17  C   UNL     1      -0.051  10.001  18.922  0.00  0.00    +0.000 A 
ATOM     18  C   UNL     1       1.098   9.274  19.278  0.00  0.00    +0.000 A 
ATOM     19 CL   UNL     1       2.004   8.593  18.001  0.00  0.00    +0.000 Cl
ATOM     20  C   UNL     1       1.473   9.122  20.615  0.00  0.00    +0.000 A 
ATOM     21  C   UNL     1       0.699   9.696  21.618  0.00  0.00    +0.000 A 
ATOM     22  C   UNL     1      -0.443  10.436  21.305  0.00  0.00    +0.000 A 
ATOM     23  C   UNL     1      -0.788  10.594  19.947  0.00  0.00    +0.000 A 
ATOM     24  N   UNL     1      -3.950  12.374  19.308  0.00  0.00    +0.000 NA
ATOM     25  H   UNL     1      -3.150  12.250  17.220  0.00  0.00    +0.000 HD
ATOM     26  H   UNL     1      -2.126  11.531  16.040  0.00  0.00    +0.000 HD
ENDROOT
BRANCH  10  27
ATOM     27  C   UNL     1      -2.663  14.383  22.760  0.00  0.00    +0.000 C 
ATOM     28  C   UNL     1      -3.045  14.090  24.199  0.00  0.00    +0.000 C 
ATOM     29  C   UNL     1      -1.651  13.800  23.723  0.00  0.00    +0.000 C 
BRANCH  27  30
ATOM     30  S   UNL     1      -2.445  16.162  22.426  0.00  0.00    +0.000 S 
ATOM     31  C   UNL     1      -1.889  16.222  20.744  0.00  0.00    +0.000 C 
ATOM     32  O   UNL     1      -3.747  16.802  22.488  0.00  0.00    +0.000 OA
ATOM     33  O   UNL     1      -1.363  16.602  23.282  0.00  0.00    +0.000 OA
ENDBRANCH  27  30
ENDBRANCH  10  27
TORSDOF 2
ENDMDL
MODEL 7
REMARK VINA RESULT:      -6.6      9.016     11.263
REMARK  Name = 
REMARK  4 active torsions:
REMARK  status: ('A' for Active; 'I' for Inactive)
REMARK    1  A    between atoms: C_1  and  C_2
REMARK    2  A    between atoms: C_10  and  C_11
REMARK    3  A    between atoms: C_11  and  S_12
REMARK    4  A    between atoms: S_12  and  C_13
REMARK                            x       y       z     vdW  Elec       q    Type
REMARK                         _______ _______ _______ _____ _____    ______ ____
ROOT
ATOM      1  C   UNL     1       4.015  14.863  18.243  0.00  0.00    +0.000 C 
ATOM      2  C   UNL     1       3.198  15.395  19.413  0.00  0.00    +0.000 C 
ATOM      3  C   UNL     1       2.773  16.854  19.120  0.00  0.00    +0.000 C 
ATOM      4  O   UNL     1       1.905  17.374  20.139  0.00  0.00    +0.000 OA
ATOM      5  C   UNL     1       2.568  17.354  21.407  0.00  0.00    +0.000 C 
ATOM      6  C   UNL     1       2.953  15.926  21.815  0.00  0.00    +0.000 C 
ATOM      7  N   UNL     1       3.806  15.320  20.772  0.00  0.00    +0.000 N 
ATOM      8  C   UNL     1       5.036  14.787  21.090  0.00  0.00    +0.000 A 
ATOM      9  C   UNL     1       5.302  14.289  22.359  0.00  0.00    +0.000 A 
ATOM     10  C   UNL     1       6.573  13.834  22.656  0.00  0.00    +0.000 A 
ATOM     11  N   UNL     1       7.487  13.717  21.686  0.00  0.00    +0.000 NA
ATOM     12  C   UNL     1       7.190  14.215  20.475  0.00  0.00    +0.000 A 
ATOM     13  N   UNL     1       8.237  14.174  19.513  0.00  0.00    +0.000 N 
ATOM     14  C   UNL     1       8.430  15.030  18.437  0.00  0.00    +0.000 A 
ATOM     15  N   UNL     1       7.608  16.048  18.131  0.00  0.00    +0.000 N 
ATOM     16  N   UNL     1       9.564  14.786  17.825  0.00  0.00    +0.000 NA
ATOM     17  C   UNL     1      10.134  13.720  18.482  0.00  0.00    +0.000 A 
ATOM     18  C   UNL     1      11.341  13.030  18.272  0.00  0.00    +0.000 A 
ATOM     19 CL   UNL     1      12.333  13.587  17.000  0.00  0.00    +0.000 Cl
ATOM     20  C   UNL     1      11.702  11.945  19.074  0.00  0.00    +0.000 A 
ATOM     21  C   UNL     1      10.857  11.531  20.098  0.00  0.00    +0.000 A 
ATOM     22  C   UNL     1       9.655  12.198  20.346  0.00  0.00    +0.000 A 
ATOM     23  C   UNL     1       9.323  13.304  19.538  0.00  0.00    +0.000 A 
ATOM     24  N   UNL     1       6.016  14.799  20.172  0.00  0.00    +0.000 NA
ATOM     25  H   UNL     1       6.865  16.325  18.770  0.00  0.00    +0.000 HD
ATOM     26  H   UNL     1       7.977  16.788  17.543  0.00  0.00    +0.000 HD
ENDROOT
BRANCH  10  27
ATOM     27  C   UNL     1       7.034  13.594  24.061  0.00  0.00    +0.000 C 
ATOM     28  C   UNL     1       8.246  14.342  24.586  0.00  0.00    +0.000 C 
ATOM     29  C   UNL     1       6.877  14.673  25.109  0.00  0.00    +0.000 C 
BRANCH  27  30
ATOM     30  S   UNL     1       6.909  11.893  24.707  0.00  0.00    +0.000 S 
ATOM     31  C   UNL     1       7.152  12.074  26.453  0.00  0.00    +0.000 C 
ATOM     32  O   UNL     1       5.553  11.421  24.491  0.00  0.00    +0.000 OA
ATOM     33  O   UNL     1       8.039  11.171  24.159  0.00  0.00    +0.000 OA
ENDBRANCH  27  30
ENDBRANCH  10  27
TORSDOF 2
ENDMDL
MODEL 8
REMARK VINA RESULT:      -6.5      4.406      6.871
REMARK  Name = 
REMARK  4 active torsions:
REMARK  status: ('A' for Active; 'I' for Inactive)
REMARK    1  A    between atoms: C_1  and  C_2
REMARK    2  A    between atoms: C_10  and  C_11
REMARK    3  A    between atoms: C_11  and  S_12
REMARK    4  A    between atoms: S_12  and  C_13
REMARK                            x       y       z     vdW  Elec       q    Type
REMARK                         _______ _______ _______ _____ _____    ______ ____
ROOT
ATOM      1  C   UNL     1       1.956  16.809  21.514  0.00  0.00    +0.000 C 
ATOM      2  C   UNL     1       2.873  16.232  20.443  0.00  0.00    +0.000 C 
ATOM      3  C   UNL     1       2.968  17.227  19.261  0.00  0.00    +0.000 C 
ATOM      4  O   UNL     1       3.908  16.788  18.266  0.00  0.00    +0.000 OA
ATOM      5  C   UNL     1       3.512  15.516  17.743  0.00  0.00    +0.000 C 
ATOM      6  C   UNL     1       3.471  14.447  18.841  0.00  0.00    +0.000 C 
ATOM      7  N   UNL     1       2.557  14.872  19.922  0.00  0.00    +0.000 N 
ATOM      8  C   UNL     1       1.525  14.057  20.332  0.00  0.00    +0.000 A 
ATOM      9  C   UNL     1       1.598  12.677  20.201  0.00  0.00    +0.000 A 
ATOM     10  C   UNL     1       0.508  11.904  20.556  0.00  0.00    +0.000 A 
ATOM     11  N   UNL     1      -0.538  12.464  21.174  0.00  0.00    +0.000 NA
ATOM     12  C   UNL     1      -0.570  13.802  21.276  0.00  0.00    +0.000 A 
ATOM     13  N   UNL     1      -1.756  14.354  21.834  0.00  0.00    +0.000 N 
ATOM     14  C   UNL     1      -2.299  15.609  21.592  0.00  0.00    +0.000 A 
ATOM     15  N   UNL     1      -1.745  16.522  20.776  0.00  0.00    +0.000 N 
ATOM     16  N   UNL     1      -3.467  15.749  22.172  0.00  0.00    +0.000 NA
ATOM     17  C   UNL     1      -3.703  14.575  22.848  0.00  0.00    +0.000 A 
ATOM     18  C   UNL     1      -4.786  14.154  23.641  0.00  0.00    +0.000 A 
ATOM     19 CL   UNL     1      -6.084  15.248  23.811  0.00  0.00    +0.000 Cl
ATOM     20  C   UNL     1      -4.789  12.898  24.252  0.00  0.00    +0.000 A 
ATOM     21  C   UNL     1      -3.705  12.044  24.082  0.00  0.00    +0.000 A 
ATOM     22  C   UNL     1      -2.616  12.420  23.293  0.00  0.00    +0.000 A 
ATOM     23  C   UNL     1      -2.646  13.683  22.668  0.00  0.00    +0.000 A 
ATOM     24  N   UNL     1       0.403  14.611  20.818  0.00  0.00    +0.000 NA
ATOM     25  H   UNL     1      -0.955  16.275  20.182  0.00  0.00    +0.000 HD
ATOM     26  H   UNL     1      -2.344  17.261  20.422  0.00  0.00    +0.000 HD
ENDROOT
BRANCH  10  27
ATOM     27  C   UNL     1       0.372  10.469  20.149  0.00  0.00    +0.000 C 
ATOM     28  C   UNL     1      -0.712  10.072  19.163  0.00  0.00    +0.000 C 
ATOM     29  C   UNL     1       0.730  10.038  18.743  0.00  0.00    +0.000 C 
BRANCH  27  30
ATOM     30  S   UNL     1       0.677   9.201  21.424  0.00  0.00    +0.000 S 
ATOM     31  C   UNL     1       1.613   7.954  20.581  0.00  0.00    +0.000 C 
ATOM     32  O   UNL     1       1.526   9.780  22.450  0.00  0.00    +0.000 OA
ATOM     33  O   UNL     1      -0.620   8.651  21.761  0.00  0.00    +0.000 OA
ENDBRANCH  27  30
ENDBRANCH  10  27
TORSDOF 2
ENDMDL
MODEL 9
REMARK VINA RESULT:      -6.5      9.228     12.219
REMARK  Name = 
REMARK  4 active torsions:
REMARK  status: ('A' for Active; 'I' for Inactive)
REMARK    1  A    between atoms: C_1  and  C_2
REMARK    2  A    between atoms: C_10  and  C_11
REMARK    3  A    between atoms: C_11  and  S_12
REMARK    4  A    between atoms: S_12  and  C_13
REMARK                            x       y       z     vdW  Elec       q    Type
REMARK                         _______ _______ _______ _____ _____    ______ ____
ROOT
ATOM      1  C   UNL     1      10.003  15.364  17.955  0.00  0.00    +0.000 C 
ATOM      2  C   UNL     1      10.853  14.236  18.526  0.00  0.00    +0.000 C 
ATOM      3  C   UNL     1      11.146  13.202  17.413  0.00  0.00    +0.000 C 
ATOM      4  O   UNL     1      12.038  12.169  17.863  0.00  0.00    +0.000 OA
ATOM      5  C   UNL     1      11.463  11.472  18.973  0.00  0.00    +0.000 C 
ATOM      6  C   UNL     1      11.215  12.415  20.158  0.00  0.00    +0.000 C 
ATOM      7  N   UNL     1      10.343  13.531  19.736  0.00  0.00    +0.000 N 
ATOM      8  C   UNL     1       9.181  13.814  20.420  0.00  0.00    +0.000 A 
ATOM      9  C   UNL     1       9.037  13.497  21.764  0.00  0.00    +0.000 A 
ATOM     10  C   UNL     1       7.827  13.729  22.390  0.00  0.00    +0.000 A 
ATOM     11  N   UNL     1       6.863  14.405  21.754  0.00  0.00    +0.000 NA
ATOM     12  C   UNL     1       7.040  14.687  20.454  0.00  0.00    +0.000 A 
ATOM     13  N   UNL     1       5.938  15.299  19.795  0.00  0.00    +0.000 N 
ATOM     14  C   UNL     1       5.611  15.222  18.448  0.00  0.00    +0.000 A 
ATOM     15  N   UNL     1       6.331  14.545  17.538  0.00  0.00    +0.000 N 
ATOM     16  N   UNL     1       4.460  15.801  18.198  0.00  0.00    +0.000 NA
ATOM     17  C   UNL     1       4.017  16.308  19.397  0.00  0.00    +0.000 A 
ATOM     18  C   UNL     1       2.854  17.022  19.738  0.00  0.00    +0.000 A 
ATOM     19 CL   UNL     1       1.741  17.323  18.479  0.00  0.00    +0.000 Cl
ATOM     20  C   UNL     1       2.630  17.457  21.045  0.00  0.00    +0.000 A 
ATOM     21  C   UNL     1       3.570  17.187  22.035  0.00  0.00    +0.000 A 
ATOM     22  C   UNL     1       4.731  16.470  21.739  0.00  0.00    +0.000 A 
ATOM     23  C   UNL     1       4.925  16.022  20.417  0.00  0.00    +0.000 A 
ATOM     24  N   UNL     1       8.144  14.355  19.760  0.00  0.00    +0.000 NA
ATOM     25  H   UNL     1       7.091  13.933  17.828  0.00  0.00    +0.000 HD
ATOM     26  H   UNL     1       5.869  14.287  16.671  0.00  0.00    +0.000 HD
ENDROOT
BRANCH  10  27
ATOM     27  C   UNL     1       7.479  13.130  23.718  0.00  0.00    +0.000 C 
ATOM     28  C   UNL     1       7.140  11.653  23.803  0.00  0.00    +0.000 C 
ATOM     29  C   UNL     1       8.427  12.159  24.387  0.00  0.00    +0.000 C 
BRANCH  27  30
ATOM     30  S   UNL     1       6.510  14.154  24.874  0.00  0.00    +0.000 S 
ATOM     31  C   UNL     1       6.938  13.525  26.474  0.00  0.00    +0.000 C 
ATOM     32  O   UNL     1       6.991  15.521  24.788  0.00  0.00    +0.000 OA
ATOM     33  O   UNL     1       5.118  13.842  24.617  0.00  0.00    +0.000 OA
ENDBRANCH  27  30
ENDBRANCH  10  27
TORSDOF 2
ENDMDL
