MODEL 1
REMARK VINA RESULT:      -7.3      0.000      0.000
REMARK  Name = 
REMARK  7 active torsions:
REMARK  status: ('A' for Active; 'I' for Inactive)
REMARK    1  A    between atoms: N_1  and  C_2
REMARK    2  A    between atoms: C_2  and  C_3
REMARK    3  A    between atoms: C_6  and  O_7
REMARK    4  A    between atoms: O_7  and  C_8
REMARK    5  A    between atoms: C_8  and  C_9
REMARK    6  A    between atoms: C_13  and  O_14
REMARK    7  A    between atoms: O_14  and  C_15
REMARK                            x       y       z     vdW  Elec       q    Type
REMARK                         _______ _______ _______ _____ _____    ______ ____
ROOT
ATOM      1  C   UNL     1       4.032   7.376  17.778  0.00  0.00    +0.000 C 
ENDROOT
BRANCH   1   2
ATOM      2  C   UNL     1       5.148   6.424  17.401  0.00  0.00    +0.000 A 
ATOM      3  C   UNL     1       6.012   5.850  18.341  0.00  0.00    +0.000 A 
ATOM      4  C   UNL     1       7.051   5.017  17.919  0.00  0.00    +0.000 A 
ATOM      5  C   UNL     1       7.249   4.784  16.557  0.00  0.00    +0.000 A 
ATOM      6  C   UNL     1       6.417   5.377  15.606  0.00  0.00    +0.000 A 
ATOM      7  C   UNL     1       5.344   6.151  16.036  0.00  0.00    +0.000 A 
BRANCH   6   8
ATOM      8  O   UNL     1       6.729   5.094  14.311  0.00  0.00    +0.000 OA
BRANCH   8   9
ATOM      9  C   UNL     1       6.124   3.980  13.667  0.00  0.00    +0.000 C 
ATOM     10  F   UNL     1       4.884   4.213  13.184  0.00  0.00    +0.000 F 
ATOM     11  F   UNL     1       6.903   3.610  12.626  0.00  0.00    +0.000 F 
ATOM     12  F   UNL     1       6.060   2.945  14.534  0.00  0.00    +0.000 F 
ENDBRANCH   8   9
ENDBRANCH   6   8
ENDBRANCH   1   2
BRANCH   1  13
ATOM     13  O   UNL     1       2.737   6.841  17.510  0.00  0.00    +0.000 OA
BRANCH  13  17
ATOM     14  C   UNL     1       1.631   3.866  20.234  0.00  0.00    +0.000 A 
ATOM     15  C   UNL     1       2.067   5.133  20.646  0.00  0.00    +0.000 A 
ATOM     16  C   UNL     1       2.421   6.104  19.707  0.00  0.00    +0.000 A 
ATOM     17  C   UNL     1       2.363   5.819  18.344  0.00  0.00    +0.000 A 
ATOM     18  C   UNL     1       1.909   4.568  17.924  0.00  0.00    +0.000 A 
ATOM     19  C   UNL     1       1.549   3.597  18.863  0.00  0.00    +0.000 A 
BRANCH  14  20
ATOM     20  C   UNL     1       1.270   2.807  21.247  0.00  0.00    +0.000 C 
BRANCH  20  21
ATOM     21  N   UNL     1       2.359   2.572  22.186  0.00  0.00    +0.000 NA
ATOM     22  H   UNL     1       2.131   3.013  23.075  0.00  0.00    +0.000 HD
ATOM     23  H   UNL     1       3.197   3.035  21.840  0.00  0.00    +0.000 HD
ENDBRANCH  20  21
ENDBRANCH  14  20
ENDBRANCH  13  17
ENDBRANCH   1  13
TORSDOF 7
ENDMDL
MODEL 2
REMARK VINA RESULT:      -7.1      0.727      1.043
REMARK  Name = 
REMARK  7 active torsions:
REMARK  status: ('A' for Active; 'I' for Inactive)
REMARK    1  A    between atoms: N_1  and  C_2
REMARK    2  A    between atoms: C_2  and  C_3
REMARK    3  A    between atoms: C_6  and  O_7
REMARK    4  A    between atoms: O_7  and  C_8
REMARK    5  A    between atoms: C_8  and  C_9
REMARK    6  A    between atoms: C_13  and  O_14
REMARK    7  A    between atoms: O_14  and  C_15
REMARK                            x       y       z     vdW  Elec       q    Type
REMARK                         _______ _______ _______ _____ _____    ______ ____
ROOT
ATOM      1  C   UNL     1       4.123   7.228  17.472  0.00  0.00    +0.000 C 
ENDROOT
BRANCH   1   2
ATOM      2  C   UNL     1       5.252   6.234  17.293  0.00  0.00    +0.000 A 
ATOM      3  C   UNL     1       6.419   6.255  18.066  0.00  0.00    +0.000 A 
ATOM      4  C   UNL     1       7.441   5.337  17.815  0.00  0.00    +0.000 A 
ATOM      5  C   UNL     1       7.313   4.418  16.771  0.00  0.00    +0.000 A 
ATOM      6  C   UNL     1       6.170   4.406  15.970  0.00  0.00    +0.000 A 
ATOM      7  C   UNL     1       5.128   5.280  16.267  0.00  0.00    +0.000 A 
BRANCH   6   8
ATOM      8  O   UNL     1       6.177   3.483  14.970  0.00  0.00    +0.000 OA
BRANCH   8   9
ATOM      9  C   UNL     1       6.191   3.911  13.614  0.00  0.00    +0.000 C 
ATOM     10  F   UNL     1       6.710   3.017  12.745  0.00  0.00    +0.000 F 
ATOM     11  F   UNL     1       4.920   4.162  13.230  0.00  0.00    +0.000 F 
ATOM     12  F   UNL     1       6.893   5.062  13.518  0.00  0.00    +0.000 F 
ENDBRANCH   8   9
ENDBRANCH   6   8
ENDBRANCH   1   2
BRANCH   1  13
ATOM     13  O   UNL     1       2.837   6.643  17.277  0.00  0.00    +0.000 OA
BRANCH  13  17
ATOM     14  C   UNL     1       1.795   3.999  20.346  0.00  0.00    +0.000 A 
ATOM     15  C   UNL     1       2.234   5.306  20.601  0.00  0.00    +0.000 A 
ATOM     16  C   UNL     1       2.566   6.164  19.550  0.00  0.00    +0.000 A 
ATOM     17  C   UNL     1       2.482   5.723  18.230  0.00  0.00    +0.000 A 
ATOM     18  C   UNL     1       2.025   4.432  17.965  0.00  0.00    +0.000 A 
ATOM     19  C   UNL     1       1.687   3.574  19.017  0.00  0.00    +0.000 A 
BRANCH  14  20
ATOM     20  C   UNL     1       1.457   3.063  21.481  0.00  0.00    +0.000 C 
BRANCH  20  21
ATOM     21  N   UNL     1       2.647   2.398  21.997  0.00  0.00    +0.000 NA
ATOM     22  H   UNL     1       3.466   2.759  21.511  0.00  0.00    +0.000 HD
ATOM     23  H   UNL     1       2.592   1.406  21.775  0.00  0.00    +0.000 HD
ENDBRANCH  20  21
ENDBRANCH  14  20
ENDBRANCH  13  17
ENDBRANCH   1  13
TORSDOF 7
ENDMDL
MODEL 3
REMARK VINA RESULT:      -7.1      0.692      1.302
REMARK  Name = 
REMARK  7 active torsions:
REMARK  status: ('A' for Active; 'I' for Inactive)
REMARK    1  A    between atoms: N_1  and  C_2
REMARK    2  A    between atoms: C_2  and  C_3
REMARK    3  A    between atoms: C_6  and  O_7
REMARK    4  A    between atoms: O_7  and  C_8
REMARK    5  A    between atoms: C_8  and  C_9
REMARK    6  A    between atoms: C_13  and  O_14
REMARK    7  A    between atoms: O_14  and  C_15
REMARK                            x       y       z     vdW  Elec       q    Type
REMARK                         _______ _______ _______ _____ _____    ______ ____
ROOT
ATOM      1  C   UNL     1       4.234   7.293  17.529  0.00  0.00    +0.000 C 
ENDROOT
BRANCH   1   2
ATOM      2  C   UNL     1       5.359   6.287  17.403  0.00  0.00    +0.000 A 
ATOM      3  C   UNL     1       6.462   6.261  18.265  0.00  0.00    +0.000 A 
ATOM      4  C   UNL     1       7.487   5.335  18.062  0.00  0.00    +0.000 A 
ATOM      5  C   UNL     1       7.429   4.456  16.978  0.00  0.00    +0.000 A 
ATOM      6  C   UNL     1       6.353   4.492  16.091  0.00  0.00    +0.000 A 
ATOM      7  C   UNL     1       5.303   5.372  16.337  0.00  0.00    +0.000 A 
BRANCH   6   8
ATOM      8  O   UNL     1       6.426   3.604  15.062  0.00  0.00    +0.000 OA
BRANCH   8   9
ATOM      9  C   UNL     1       6.227   4.053  13.727  0.00  0.00    +0.000 C 
ATOM     10  F   UNL     1       4.963   4.436  13.444  0.00  0.00    +0.000 F 
ATOM     11  F   UNL     1       7.033   5.115  13.507  0.00  0.00    +0.000 F 
ATOM     12  F   UNL     1       6.582   3.070  12.870  0.00  0.00    +0.000 F 
ENDBRANCH   8   9
ENDBRANCH   6   8
ENDBRANCH   1   2
BRANCH   1  13
ATOM     13  O   UNL     1       2.950   6.719  17.290  0.00  0.00    +0.000 OA
BRANCH  13  17
ATOM     14  C   UNL     1       1.608   3.897  20.070  0.00  0.00    +0.000 A 
ATOM     15  C   UNL     1       1.445   3.723  18.688  0.00  0.00    +0.000 A 
ATOM     16  C   UNL     1       1.913   4.683  17.789  0.00  0.00    +0.000 A 
ATOM     17  C   UNL     1       2.534   5.840  18.257  0.00  0.00    +0.000 A 
ATOM     18  C   UNL     1       2.720   6.013  19.629  0.00  0.00    +0.000 A 
ATOM     19  C   UNL     1       2.256   5.049  20.530  0.00  0.00    +0.000 A 
BRANCH  14  20
ATOM     20  C   UNL     1       1.082   2.872  21.045  0.00  0.00    +0.000 C 
BRANCH  20  21
ATOM     21  N   UNL     1       2.018   2.644  22.138  0.00  0.00    +0.000 NA
ATOM     22  H   UNL     1       2.352   3.543  22.481  0.00  0.00    +0.000 HD
ATOM     23  H   UNL     1       2.832   2.151  21.777  0.00  0.00    +0.000 HD
ENDBRANCH  20  21
ENDBRANCH  14  20
ENDBRANCH  13  17
ENDBRANCH   1  13
TORSDOF 7
ENDMDL
MODEL 4
REMARK VINA RESULT:      -6.9      6.100      8.024
REMARK  Name = 
REMARK  7 active torsions:
REMARK  status: ('A' for Active; 'I' for Inactive)
REMARK    1  A    between atoms: N_1  and  C_2
REMARK    2  A    between atoms: C_2  and  C_3
REMARK    3  A    between atoms: C_6  and  O_7
REMARK    4  A    between atoms: O_7  and  C_8
REMARK    5  A    between atoms: C_8  and  C_9
REMARK    6  A    between atoms: C_13  and  O_14
REMARK    7  A    between atoms: O_14  and  C_15
REMARK                            x       y       z     vdW  Elec       q    Type
REMARK                         _______ _______ _______ _____ _____    ______ ____
ROOT
ATOM      1  C   UNL     1       7.933   9.114  17.791  0.00  0.00    +0.000 C 
ENDROOT
BRANCH   1   2
ATOM      2  C   UNL     1       7.581   7.645  17.904  0.00  0.00    +0.000 A 
ATOM      3  C   UNL     1       8.184   6.784  18.830  0.00  0.00    +0.000 A 
ATOM      4  C   UNL     1       7.845   5.429  18.848  0.00  0.00    +0.000 A 
ATOM      5  C   UNL     1       6.931   4.926  17.920  0.00  0.00    +0.000 A 
ATOM      6  C   UNL     1       6.347   5.765  16.970  0.00  0.00    +0.000 A 
ATOM      7  C   UNL     1       6.638   7.125  17.000  0.00  0.00    +0.000 A 
BRANCH   6   8
ATOM      8  O   UNL     1       5.494   5.150  16.106  0.00  0.00    +0.000 OA
BRANCH   8   9
ATOM      9  C   UNL     1       6.013   4.408  15.010  0.00  0.00    +0.000 C 
ATOM     10  F   UNL     1       6.136   3.082  15.234  0.00  0.00    +0.000 F 
ATOM     11  F   UNL     1       5.185   4.566  13.953  0.00  0.00    +0.000 F 
ATOM     12  F   UNL     1       7.225   4.902  14.672  0.00  0.00    +0.000 F 
ENDBRANCH   8   9
ENDBRANCH   6   8
ENDBRANCH   1   2
BRANCH   1  13
ATOM     13  O   UNL     1       8.925   9.518  18.732  0.00  0.00    +0.000 OA
BRANCH  13  17
ATOM     14  C   UNL     1      10.242  13.419  17.995  0.00  0.00    +0.000 A 
ATOM     15  C   UNL     1       8.989  12.959  17.568  0.00  0.00    +0.000 A 
ATOM     16  C   UNL     1       8.579  11.652  17.839  0.00  0.00    +0.000 A 
ATOM     17  C   UNL     1       9.423  10.779  18.524  0.00  0.00    +0.000 A 
ATOM     18  C   UNL     1      10.663  11.234  18.972  0.00  0.00    +0.000 A 
ATOM     19  C   UNL     1      11.072  12.545  18.706  0.00  0.00    +0.000 A 
BRANCH  14  20
ATOM     20  C   UNL     1      10.696  14.824  17.683  0.00  0.00    +0.000 C 
BRANCH  20  21
ATOM     21  N   UNL     1      11.153  14.945  16.304  0.00  0.00    +0.000 NA
ATOM     22  H   UNL     1      11.777  14.168  16.093  0.00  0.00    +0.000 HD
ATOM     23  H   UNL     1      11.708  15.794  16.215  0.00  0.00    +0.000 HD
ENDBRANCH  20  21
ENDBRANCH  14  20
ENDBRANCH  13  17
ENDBRANCH   1  13
TORSDOF 7
ENDMDL
MODEL 5
REMARK VINA RESULT:      -6.8      3.043      3.840
REMARK  Name = 
REMARK  7 active torsions:
REMARK  status: ('A' for Active; 'I' for Inactive)
REMARK    1  A    between atoms: N_1  and  C_2
REMARK    2  A    between atoms: C_2  and  C_3
REMARK    3  A    between atoms: C_6  and  O_7
REMARK    4  A    between atoms: O_7  and  C_8
REMARK    5  A    between atoms: C_8  and  C_9
REMARK    6  A    between atoms: C_13  and  O_14
REMARK    7  A    between atoms: O_14  and  C_15
REMARK                            x       y       z     vdW  Elec       q    Type
REMARK                         _______ _______ _______ _____ _____    ______ ____
ROOT
ATOM      1  C   UNL     1       3.135   5.218  18.388  0.00  0.00    +0.000 C 
ENDROOT
BRANCH   1   2
ATOM      2  C   UNL     1       4.565   4.977  17.950  0.00  0.00    +0.000 A 
ATOM      3  C   UNL     1       5.671   5.497  18.633  0.00  0.00    +0.000 A 
ATOM      4  C   UNL     1       6.961   5.275  18.146  0.00  0.00    +0.000 A 
ATOM      5  C   UNL     1       7.146   4.564  16.958  0.00  0.00    +0.000 A 
ATOM      6  C   UNL     1       6.051   4.068  16.248  0.00  0.00    +0.000 A 
ATOM      7  C   UNL     1       4.774   4.235  16.774  0.00  0.00    +0.000 A 
BRANCH   6   8
ATOM      8  O   UNL     1       6.361   3.416  15.095  0.00  0.00    +0.000 OA
BRANCH   8   9
ATOM      9  C   UNL     1       6.249   4.093  13.850  0.00  0.00    +0.000 C 
ATOM     10  F   UNL     1       7.036   5.184  13.728  0.00  0.00    +0.000 F 
ATOM     11  F   UNL     1       6.588   3.235  12.862  0.00  0.00    +0.000 F 
ATOM     12  F   UNL     1       4.964   4.466  13.660  0.00  0.00    +0.000 F 
ENDBRANCH   8   9
ENDBRANCH   6   8
ENDBRANCH   1   2
BRANCH   1  13
ATOM     13  O   UNL     1       3.041   6.091  19.512  0.00  0.00    +0.000 OA
BRANCH  13  17
ATOM     14  C   UNL     1       0.975   9.688  18.976  0.00  0.00    +0.000 A 
ATOM     15  C   UNL     1       1.004   9.017  20.207  0.00  0.00    +0.000 A 
ATOM     16  C   UNL     1       1.711   7.822  20.351  0.00  0.00    +0.000 A 
ATOM     17  C   UNL     1       2.384   7.268  19.263  0.00  0.00    +0.000 A 
ATOM     18  C   UNL     1       2.380   7.939  18.039  0.00  0.00    +0.000 A 
ATOM     19  C   UNL     1       1.677   9.139  17.896  0.00  0.00    +0.000 A 
BRANCH  14  20
ATOM     20  C   UNL     1       0.193  10.968  18.811  0.00  0.00    +0.000 C 
BRANCH  20  21
ATOM     21  N   UNL     1      -0.754  10.878  17.707  0.00  0.00    +0.000 NA
ATOM     22  H   UNL     1      -1.471  10.193  17.940  0.00  0.00    +0.000 HD
ATOM     23  H   UNL     1      -0.269  10.521  16.886  0.00  0.00    +0.000 HD
ENDBRANCH  20  21
ENDBRANCH  14  20
ENDBRANCH  13  17
ENDBRANCH   1  13
TORSDOF 7
ENDMDL
MODEL 6
REMARK VINA RESULT:      -6.8      3.621      6.526
REMARK  Name = 
REMARK  7 active torsions:
REMARK  status: ('A' for Active; 'I' for Inactive)
REMARK    1  A    between atoms: N_1  and  C_2
REMARK    2  A    between atoms: C_2  and  C_3
REMARK    3  A    between atoms: C_6  and  O_7
REMARK    4  A    between atoms: O_7  and  C_8
REMARK    5  A    between atoms: C_8  and  C_9
REMARK    6  A    between atoms: C_13  and  O_14
REMARK    7  A    between atoms: O_14  and  C_15
REMARK                            x       y       z     vdW  Elec       q    Type
REMARK                         _______ _______ _______ _____ _____    ______ ____
ROOT
ATOM      1  C   UNL     1       6.986   5.239  16.743  0.00  0.00    +0.000 C 
ENDROOT
BRANCH   1   2
ATOM      2  C   UNL     1       5.583   5.440  17.276  0.00  0.00    +0.000 A 
ATOM      3  C   UNL     1       4.950   6.689  17.310  0.00  0.00    +0.000 A 
ATOM      4  C   UNL     1       3.672   6.810  17.859  0.00  0.00    +0.000 A 
ATOM      5  C   UNL     1       3.038   5.692  18.407  0.00  0.00    +0.000 A 
ATOM      6  C   UNL     1       3.671   4.447  18.411  0.00  0.00    +0.000 A 
ATOM      7  C   UNL     1       4.916   4.320  17.803  0.00  0.00    +0.000 A 
BRANCH   6   8
ATOM      8  O   UNL     1       2.962   3.444  18.997  0.00  0.00    +0.000 OA
BRANCH   8   9
ATOM      9  C   UNL     1       2.470   2.372  18.203  0.00  0.00    +0.000 C 
ATOM     10  F   UNL     1       1.288   1.863  18.613  0.00  0.00    +0.000 F 
ATOM     11  F   UNL     1       2.304   2.815  16.937  0.00  0.00    +0.000 F 
ATOM     12  F   UNL     1       3.384   1.376  18.184  0.00  0.00    +0.000 F 
ENDBRANCH   8   9
ENDBRANCH   6   8
ENDBRANCH   1   2
BRANCH   1  13
ATOM     13  O   UNL     1       7.181   5.834  15.461  0.00  0.00    +0.000 OA
BRANCH  13  17
ATOM     14  C   UNL     1       5.969   3.316  12.349  0.00  0.00    +0.000 A 
ATOM     15  C   UNL     1       5.208   3.486  13.514  0.00  0.00    +0.000 A 
ATOM     16  C   UNL     1       5.641   4.341  14.530  0.00  0.00    +0.000 A 
ATOM     17  C   UNL     1       6.849   5.025  14.405  0.00  0.00    +0.000 A 
ATOM     18  C   UNL     1       7.602   4.880  13.240  0.00  0.00    +0.000 A 
ATOM     19  C   UNL     1       7.167   4.028  12.220  0.00  0.00    +0.000 A 
BRANCH  14  20
ATOM     20  C   UNL     1       5.515   2.374  11.261  0.00  0.00    +0.000 C 
BRANCH  20  21
ATOM     21  N   UNL     1       6.234   1.107  11.316  0.00  0.00    +0.000 NA
ATOM     22  H   UNL     1       6.368   0.761  10.367  0.00  0.00    +0.000 HD
ATOM     23  H   UNL     1       5.654   0.421  11.795  0.00  0.00    +0.000 HD
ENDBRANCH  20  21
ENDBRANCH  14  20
ENDBRANCH  13  17
ENDBRANCH   1  13
TORSDOF 7
ENDMDL
MODEL 7
REMARK VINA RESULT:      -6.8      2.175      2.903
REMARK  Name = 
REMARK  7 active torsions:
REMARK  status: ('A' for Active; 'I' for Inactive)
REMARK    1  A    between atoms: N_1  and  C_2
REMARK    2  A    between atoms: C_2  and  C_3
REMARK    3  A    between atoms: C_6  and  O_7
REMARK    4  A    between atoms: O_7  and  C_8
REMARK    5  A    between atoms: C_8  and  C_9
REMARK    6  A    between atoms: C_13  and  O_14
REMARK    7  A    between atoms: O_14  and  C_15
REMARK                            x       y       z     vdW  Elec       q    Type
REMARK                         _______ _______ _______ _____ _____    ______ ____
ROOT
ATOM      1  C   UNL     1       4.091   3.533  18.886  0.00  0.00    +0.000 C 
ENDROOT
BRANCH   1   2
ATOM      2  C   UNL     1       5.360   4.277  18.526  0.00  0.00    +0.000 A 
ATOM      3  C   UNL     1       5.989   5.178  19.394  0.00  0.00    +0.000 A 
ATOM      4  C   UNL     1       7.131   5.866  18.979  0.00  0.00    +0.000 A 
ATOM      5  C   UNL     1       7.626   5.682  17.686  0.00  0.00    +0.000 A 
ATOM      6  C   UNL     1       6.990   4.814  16.798  0.00  0.00    +0.000 A 
ATOM      7  C   UNL     1       5.892   4.081  17.240  0.00  0.00    +0.000 A 
BRANCH   6   8
ATOM      8  O   UNL     1       7.553   4.741  15.561  0.00  0.00    +0.000 OA
BRANCH   8   9
ATOM      9  C   UNL     1       6.724   4.778  14.406  0.00  0.00    +0.000 C 
ATOM     10  F   UNL     1       5.639   5.575  14.516  0.00  0.00    +0.000 F 
ATOM     11  F   UNL     1       7.458   5.232  13.366  0.00  0.00    +0.000 F 
ATOM     12  F   UNL     1       6.311   3.525  14.115  0.00  0.00    +0.000 F 
ENDBRANCH   8   9
ENDBRANCH   6   8
ENDBRANCH   1   2
BRANCH   1  13
ATOM     13  O   UNL     1       2.928   4.099  18.283  0.00  0.00    +0.000 OA
BRANCH  13  17
ATOM     14  C   UNL     1       1.748   7.702  20.048  0.00  0.00    +0.000 A 
ATOM     15  C   UNL     1       1.636   6.472  20.711  0.00  0.00    +0.000 A 
ATOM     16  C   UNL     1       2.047   5.290  20.093  0.00  0.00    +0.000 A 
ATOM     17  C   UNL     1       2.559   5.316  18.797  0.00  0.00    +0.000 A 
ATOM     18  C   UNL     1       2.696   6.537  18.137  0.00  0.00    +0.000 A 
ATOM     19  C   UNL     1       2.289   7.723  18.757  0.00  0.00    +0.000 A 
BRANCH  14  20
ATOM     20  C   UNL     1       1.282   8.979  20.705  0.00  0.00    +0.000 C 
BRANCH  20  21
ATOM     21  N   UNL     1       0.278   8.718  21.729  0.00  0.00    +0.000 NA
ATOM     22  H   UNL     1       0.648   8.999  22.635  0.00  0.00    +0.000 HD
ATOM     23  H   UNL     1       0.115   7.714  21.782  0.00  0.00    +0.000 HD
ENDBRANCH  20  21
ENDBRANCH  14  20
ENDBRANCH  13  17
ENDBRANCH   1  13
TORSDOF 7
ENDMDL
MODEL 8
REMARK VINA RESULT:      -6.7      1.252      1.372
REMARK  Name = 
REMARK  7 active torsions:
REMARK  status: ('A' for Active; 'I' for Inactive)
REMARK    1  A    between atoms: N_1  and  C_2
REMARK    2  A    between atoms: C_2  and  C_3
REMARK    3  A    between atoms: C_6  and  O_7
REMARK    4  A    between atoms: O_7  and  C_8
REMARK    5  A    between atoms: C_8  and  C_9
REMARK    6  A    between atoms: C_13  and  O_14
REMARK    7  A    between atoms: O_14  and  C_15
REMARK                            x       y       z     vdW  Elec       q    Type
REMARK                         _______ _______ _______ _____ _____    ______ ____
ROOT
ATOM      1  C   UNL     1       4.153   7.370  17.113  0.00  0.00    +0.000 C 
ENDROOT
BRANCH   1   2
ATOM      2  C   UNL     1       5.272   6.353  17.034  0.00  0.00    +0.000 A 
ATOM      3  C   UNL     1       6.390   6.380  17.876  0.00  0.00    +0.000 A 
ATOM      4  C   UNL     1       7.409   5.438  17.716  0.00  0.00    +0.000 A 
ATOM      5  C   UNL     1       7.328   4.489  16.695  0.00  0.00    +0.000 A 
ATOM      6  C   UNL     1       6.236   4.470  15.826  0.00  0.00    +0.000 A 
ATOM      7  C   UNL     1       5.194   5.369  16.032  0.00  0.00    +0.000 A 
BRANCH   6   8
ATOM      8  O   UNL     1       6.287   3.515  14.857  0.00  0.00    +0.000 OA
BRANCH   8   9
ATOM      9  C   UNL     1       6.213   3.894  13.489  0.00  0.00    +0.000 C 
ATOM     10  F   UNL     1       6.927   4.996  13.170  0.00  0.00    +0.000 F 
ATOM     11  F   UNL     1       6.680   2.875  12.735  0.00  0.00    +0.000 F 
ATOM     12  F   UNL     1       4.921   4.107  13.155  0.00  0.00    +0.000 F 
ENDBRANCH   8   9
ENDBRANCH   6   8
ENDBRANCH   1   2
BRANCH   1  13
ATOM     13  O   UNL     1       3.480   7.355  18.370  0.00  0.00    +0.000 OA
BRANCH  13  17
ATOM     14  C   UNL     1       1.630   3.771  19.478  0.00  0.00    +0.000 A 
ATOM     15  C   UNL     1       2.389   4.532  20.379  0.00  0.00    +0.000 A 
ATOM     16  C   UNL     1       2.986   5.727  19.976  0.00  0.00    +0.000 A 
ATOM     17  C   UNL     1       2.850   6.172  18.661  0.00  0.00    +0.000 A 
ATOM     18  C   UNL     1       2.079   5.433  17.763  0.00  0.00    +0.000 A 
ATOM     19  C   UNL     1       1.476   4.238  18.168  0.00  0.00    +0.000 A 
BRANCH  14  20
ATOM     20  C   UNL     1       1.004   2.466  19.906  0.00  0.00    +0.000 C 
BRANCH  20  21
ATOM     21  N   UNL     1       0.482   1.724  18.765  0.00  0.00    +0.000 NA
ATOM     22  H   UNL     1       1.190   1.702  18.033  0.00  0.00    +0.000 HD
ATOM     23  H   UNL     1      -0.315   2.227  18.383  0.00  0.00    +0.000 HD
ENDBRANCH  20  21
ENDBRANCH  14  20
ENDBRANCH  13  17
ENDBRANCH   1  13
TORSDOF 7
ENDMDL
MODEL 9
REMARK VINA RESULT:      -6.7      2.918      3.869
REMARK  Name = 
REMARK  7 active torsions:
REMARK  status: ('A' for Active; 'I' for Inactive)
REMARK    1  A    between atoms: N_1  and  C_2
REMARK    2  A    between atoms: C_2  and  C_3
REMARK    3  A    between atoms: C_6  and  O_7
REMARK    4  A    between atoms: O_7  and  C_8
REMARK    5  A    between atoms: C_8  and  C_9
REMARK    6  A    between atoms: C_13  and  O_14
REMARK    7  A    between atoms: O_14  and  C_15
REMARK                            x       y       z     vdW  Elec       q    Type
REMARK                         _______ _______ _______ _____ _____    ______ ____
ROOT
ATOM      1  C   UNL     1       3.380   4.927  18.499  0.00  0.00    +0.000 C 
ENDROOT
BRANCH   1   2
ATOM      2  C   UNL     1       4.884   4.962  18.331  0.00  0.00    +0.000 A 
ATOM      3  C   UNL     1       5.760   5.328  19.361  0.00  0.00    +0.000 A 
ATOM      4  C   UNL     1       7.135   5.385  19.123  0.00  0.00    +0.000 A 
ATOM      5  C   UNL     1       7.634   5.110  17.848  0.00  0.00    +0.000 A 
ATOM      6  C   UNL     1       6.771   4.777  16.803  0.00  0.00    +0.000 A 
ATOM      7  C   UNL     1       5.409   4.657  17.064  0.00  0.00    +0.000 A 
BRANCH   6   8
ATOM      8  O   UNL     1       7.377   4.558  15.604  0.00  0.00    +0.000 OA
BRANCH   8   9
ATOM      9  C   UNL     1       6.674   4.829  14.398  0.00  0.00    +0.000 C 
ATOM     10  F   UNL     1       5.931   3.800  13.935  0.00  0.00    +0.000 F 
ATOM     11  F   UNL     1       5.838   5.869  14.613  0.00  0.00    +0.000 F 
ATOM     12  F   UNL     1       7.556   5.189  13.440  0.00  0.00    +0.000 F 
ENDBRANCH   8   9
ENDBRANCH   6   8
ENDBRANCH   1   2
BRANCH   1  13
ATOM     13  O   UNL     1       2.942   5.564  19.698  0.00  0.00    +0.000 OA
BRANCH  13  17
ATOM     14  C   UNL     1       1.317   9.335  18.902  0.00  0.00    +0.000 A 
ATOM     15  C   UNL     1       1.917   8.552  17.905  0.00  0.00    +0.000 A 
ATOM     16  C   UNL     1       2.442   7.294  18.207  0.00  0.00    +0.000 A 
ATOM     17  C   UNL     1       2.393   6.807  19.512  0.00  0.00    +0.000 A 
ATOM     18  C   UNL     1       1.779   7.568  20.506  0.00  0.00    +0.000 A 
ATOM     19  C   UNL     1       1.248   8.826  20.205  0.00  0.00    +0.000 A 
BRANCH  14  20
ATOM     20  C   UNL     1       0.770  10.705  18.584  0.00  0.00    +0.000 C 
BRANCH  20  21
ATOM     21  N   UNL     1      -0.485  10.622  17.847  0.00  0.00    +0.000 NA
ATOM     22  H   UNL     1      -0.283  10.396  16.874  0.00  0.00    +0.000 HD
ATOM     23  H   UNL     1      -0.927  11.539  17.846  0.00  0.00    +0.000 HD
ENDBRANCH  20  21
ENDBRANCH  14  20
ENDBRANCH  13  17
ENDBRANCH   1  13
TORSDOF 7
ENDMDL
