MODEL 1
REMARK VINA RESULT:      -7.6      0.000      0.000
REMARK  Name = 
REMARK  6 active torsions:
REMARK  status: ('A' for Active; 'I' for Inactive)
REMARK    1  A    between atoms: C_1  and  O_2
REMARK    2  A    between atoms: O_2  and  C_3
REMARK    3  A    between atoms: C_12  and  C_14
REMARK    4  A    between atoms: C_17  and  C_18
REMARK    5  A    between atoms: C_29  and  O_30
REMARK    6  A    between atoms: O_30  and  C_31
REMARK                            x       y       z     vdW  Elec       q    Type
REMARK                         _______ _______ _______ _____ _____    ______ ____
ROOT
ATOM      1  C   UNL     1       2.898   3.583  20.476  0.00  0.00    +0.000 A 
ATOM      2  C   UNL     1       2.328   4.849  20.671  0.00  0.00    +0.000 A 
ATOM      3  C   UNL     1       2.565   5.901  19.801  0.00  0.00    +0.000 A 
ATOM      4  N   UNL     1       1.956   7.067  20.027  0.00  0.00    +0.000 NA
ATOM      5  C   UNL     1       2.158   8.080  19.174  0.00  0.00    +0.000 A 
ATOM      6  N   UNL     1       1.517   9.268  19.415  0.00  0.00    +0.000 N 
ATOM      7  C   UNL     1       1.660  10.414  18.513  0.00  0.00    +0.000 C 
ATOM      8  C   UNL     1       0.285  10.900  18.007  0.00  0.00    +0.000 C 
ATOM      9  N   UNL     1      -0.689  11.036  19.104  0.00  0.00    +0.000 N 
ATOM     10  C   UNL     1      -1.432  12.210  19.201  0.00  0.00    +0.000 C 
ATOM     11  O   UNL     1      -1.339  13.112  18.367  0.00  0.00    +0.000 OA
ATOM     12  C   UNL     1      -0.836   9.793  19.879  0.00  0.00    +0.000 C 
ATOM     13  C   UNL     1       0.521   9.383  20.482  0.00  0.00    +0.000 C 
ATOM     14  N   UNL     1       2.964   7.974  18.111  0.00  0.00    +0.000 NA
ATOM     15  C   UNL     1       3.582   6.805  17.901  0.00  0.00    +0.000 A 
ATOM     16  N   UNL     1       4.395   6.761  16.757  0.00  0.00    +0.000 N 
ATOM     17  C   UNL     1       3.415   5.692  18.723  0.00  0.00    +0.000 A 
ATOM     18  C   UNL     1       4.028   4.427  18.530  0.00  0.00    +0.000 A 
ATOM     19  C   UNL     1       3.777   3.374  19.407  0.00  0.00    +0.000 A 
ATOM     20  H   UNL     1       4.384   7.690  16.353  0.00  0.00    +0.000 HD
ATOM     21  H   UNL     1       5.336   6.464  16.985  0.00  0.00    +0.000 HD
ENDROOT
BRANCH  10  22
ATOM     22  C   UNL     1      -2.396  12.431  20.316  0.00  0.00    +0.000 A 
ATOM     23  C   UNL     1      -2.000  12.563  21.651  0.00  0.00    +0.000 A 
ATOM     24  C   UNL     1      -2.955  12.699  22.665  0.00  0.00    +0.000 A 
ATOM     25  C   UNL     1      -4.313  12.797  22.345  0.00  0.00    +0.000 A 
ATOM     26  C   UNL     1      -4.708  12.772  21.003  0.00  0.00    +0.000 A 
ATOM     27  C   UNL     1      -3.754  12.586  19.996  0.00  0.00    +0.000 A 
BRANCH  25  28
ATOM     28  C   UNL     1      -5.291  12.936  23.384  0.00  0.00    +0.000 C 
ATOM     29  N   UNL     1      -6.082  13.027  24.230  0.00  0.00    +0.000 NA
ENDBRANCH  25  28
ENDBRANCH  10  22
BRANCH   1  31
ATOM     30  C   UNL     1       1.342   2.504  21.890  0.00  0.00    +0.000 C 
ATOM     31  O   UNL     1       2.650   2.525  21.323  0.00  0.00    +0.000 OA
ENDBRANCH   1  31
BRANCH  19  32
ATOM     32  O   UNL     1       4.328   2.122  19.290  0.00  0.00    +0.000 OA
ATOM     33  C   UNL     1       3.773   1.253  18.309  0.00  0.00    +0.000 C 
ENDBRANCH  19  32
TORSDOF 4
ENDMDL
MODEL 2
REMARK VINA RESULT:      -6.5      2.907      4.328
REMARK  Name = 
REMARK  6 active torsions:
REMARK  status: ('A' for Active; 'I' for Inactive)
REMARK    1  A    between atoms: C_1  and  O_2
REMARK    2  A    between atoms: O_2  and  C_3
REMARK    3  A    between atoms: C_12  and  C_14
REMARK    4  A    between atoms: C_17  and  C_18
REMARK    5  A    between atoms: C_29  and  O_30
REMARK    6  A    between atoms: O_30  and  C_31
REMARK                            x       y       z     vdW  Elec       q    Type
REMARK                         _______ _______ _______ _____ _____    ______ ____
ROOT
ATOM      1  C   UNL     1       4.917   6.390  17.142  0.00  0.00    +0.000 A 
ATOM      2  C   UNL     1       3.944   7.300  17.577  0.00  0.00    +0.000 A 
ATOM      3  C   UNL     1       3.148   7.048  18.684  0.00  0.00    +0.000 A 
ATOM      4  N   UNL     1       2.271   7.978  19.066  0.00  0.00    +0.000 NA
ATOM      5  C   UNL     1       1.518   7.753  20.151  0.00  0.00    +0.000 A 
ATOM      6  N   UNL     1       0.629   8.723  20.536  0.00  0.00    +0.000 N 
ATOM      7  C   UNL     1      -0.208   8.567  21.729  0.00  0.00    +0.000 C 
ATOM      8  C   UNL     1      -0.006   9.744  22.708  0.00  0.00    +0.000 C 
ATOM      9  N   UNL     1      -0.062  11.046  22.024  0.00  0.00    +0.000 N 
ATOM     10  C   UNL     1      -0.863  12.053  22.558  0.00  0.00    +0.000 C 
ATOM     11  O   UNL     1      -1.483  11.903  23.612  0.00  0.00    +0.000 OA
ATOM     12  C   UNL     1       0.896  11.135  20.909  0.00  0.00    +0.000 C 
ATOM     13  C   UNL     1       0.607  10.029  19.875  0.00  0.00    +0.000 C 
ATOM     14  N   UNL     1       1.600   6.621  20.859  0.00  0.00    +0.000 NA
ATOM     15  C   UNL     1       2.472   5.687  20.460  0.00  0.00    +0.000 A 
ATOM     16  N   UNL     1       2.518   4.535  21.262  0.00  0.00    +0.000 N 
ATOM     17  C   UNL     1       3.310   5.843  19.356  0.00  0.00    +0.000 A 
ATOM     18  C   UNL     1       4.266   4.897  18.908  0.00  0.00    +0.000 A 
ATOM     19  C   UNL     1       5.065   5.163  17.799  0.00  0.00    +0.000 A 
ATOM     20  H   UNL     1       1.800   4.641  21.969  0.00  0.00    +0.000 HD
ATOM     21  H   UNL     1       2.379   3.697  20.711  0.00  0.00    +0.000 HD
ENDROOT
BRANCH  10  22
ATOM     22  C   UNL     1      -1.004  13.375  21.884  0.00  0.00    +0.000 A 
ATOM     23  C   UNL     1      -1.830  13.582  20.775  0.00  0.00    +0.000 A 
ATOM     24  C   UNL     1      -1.868  14.830  20.142  0.00  0.00    +0.000 A 
ATOM     25  C   UNL     1      -1.150  15.909  20.667  0.00  0.00    +0.000 A 
ATOM     26  C   UNL     1      -0.406  15.736  21.838  0.00  0.00    +0.000 A 
ATOM     27  C   UNL     1      -0.330  14.475  22.440  0.00  0.00    +0.000 A 
BRANCH  25  28
ATOM     28  C   UNL     1      -1.190  17.187  20.017  0.00  0.00    +0.000 C 
ATOM     29  N   UNL     1      -1.237  18.213  19.475  0.00  0.00    +0.000 NA
ENDBRANCH  25  28
ENDBRANCH  10  22
BRANCH   1  31
ATOM     30  C   UNL     1       5.398   5.910  14.878  0.00  0.00    +0.000 C 
ATOM     31  O   UNL     1       5.727   6.642  16.057  0.00  0.00    +0.000 OA
ENDBRANCH   1  31
BRANCH  19  32
ATOM     32  O   UNL     1       6.012   4.302  17.302  0.00  0.00    +0.000 OA
ATOM     33  C   UNL     1       7.352   4.473  17.754  0.00  0.00    +0.000 C 
ENDBRANCH  19  32
TORSDOF 4
ENDMDL
MODEL 3
REMARK VINA RESULT:      -6.4      2.683     10.589
REMARK  Name = 
REMARK  6 active torsions:
REMARK  status: ('A' for Active; 'I' for Inactive)
REMARK    1  A    between atoms: C_1  and  O_2
REMARK    2  A    between atoms: O_2  and  C_3
REMARK    3  A    between atoms: C_12  and  C_14
REMARK    4  A    between atoms: C_17  and  C_18
REMARK    5  A    between atoms: C_29  and  O_30
REMARK    6  A    between atoms: O_30  and  C_31
REMARK                            x       y       z     vdW  Elec       q    Type
REMARK                         _______ _______ _______ _____ _____    ______ ____
ROOT
ATOM      1  C   UNL     1      -0.594  12.535  19.316  0.00  0.00    +0.000 A 
ATOM      2  C   UNL     1       0.373  11.560  19.038  0.00  0.00    +0.000 A 
ATOM      3  C   UNL     1       0.495  10.411  19.803  0.00  0.00    +0.000 A 
ATOM      4  N   UNL     1       1.412   9.505  19.455  0.00  0.00    +0.000 NA
ATOM      5  C   UNL     1       1.517   8.379  20.174  0.00  0.00    +0.000 A 
ATOM      6  N   UNL     1       2.457   7.455  19.796  0.00  0.00    +0.000 N 
ATOM      7  C   UNL     1       2.613   6.184  20.510  0.00  0.00    +0.000 C 
ATOM      8  C   UNL     1       2.471   4.984  19.549  0.00  0.00    +0.000 C 
ATOM      9  N   UNL     1       3.271   5.161  18.325  0.00  0.00    +0.000 N 
ATOM     10  C   UNL     1       4.089   4.117  17.901  0.00  0.00    +0.000 C 
ATOM     11  O   UNL     1       4.122   3.034  18.487  0.00  0.00    +0.000 OA
ATOM     12  C   UNL     1       2.956   6.419  17.627  0.00  0.00    +0.000 C 
ATOM     13  C   UNL     1       3.219   7.619  18.557  0.00  0.00    +0.000 C 
ATOM     14  N   UNL     1       0.748   8.134  21.241  0.00  0.00    +0.000 NA
ATOM     15  C   UNL     1      -0.159   9.055  21.591  0.00  0.00    +0.000 A 
ATOM     16  N   UNL     1      -0.943   8.722  22.707  0.00  0.00    +0.000 N 
ATOM     17  C   UNL     1      -0.352  10.245  20.891  0.00  0.00    +0.000 A 
ATOM     18  C   UNL     1      -1.313  11.239  21.207  0.00  0.00    +0.000 A 
ATOM     19  C   UNL     1      -1.433  12.387  20.427  0.00  0.00    +0.000 A 
ATOM     20  H   UNL     1      -0.591   7.838  23.059  0.00  0.00    +0.000 HD
ATOM     21  H   UNL     1      -0.905   9.446  23.414  0.00  0.00    +0.000 HD
ENDROOT
BRANCH  10  22
ATOM     22  C   UNL     1       4.962   4.251  16.700  0.00  0.00    +0.000 A 
ATOM     23  C   UNL     1       6.326   4.549  16.779  0.00  0.00    +0.000 A 
ATOM     24  C   UNL     1       7.081   4.732  15.614  0.00  0.00    +0.000 A 
ATOM     25  C   UNL     1       6.500   4.529  14.358  0.00  0.00    +0.000 A 
ATOM     26  C   UNL     1       5.162   4.127  14.275  0.00  0.00    +0.000 A 
ATOM     27  C   UNL     1       4.398   3.994  15.440  0.00  0.00    +0.000 A 
BRANCH  25  28
ATOM     28  C   UNL     1       7.274   4.716  13.166  0.00  0.00    +0.000 C 
ATOM     29  N   UNL     1       7.882   4.861  12.187  0.00  0.00    +0.000 NA
ENDBRANCH  25  28
ENDBRANCH  10  22
BRANCH   1  31
ATOM     30  C   UNL     1       0.205  14.703  18.821  0.00  0.00    +0.000 C 
ATOM     31  O   UNL     1      -0.738  13.669  18.548  0.00  0.00    +0.000 OA
ENDBRANCH   1  31
BRANCH  19  32
ATOM     32  O   UNL     1      -2.335  13.394  20.664  0.00  0.00    +0.000 OA
ATOM     33  C   UNL     1      -2.374  13.940  21.978  0.00  0.00    +0.000 C 
ENDBRANCH  19  32
TORSDOF 4
ENDMDL
MODEL 4
REMARK VINA RESULT:      -6.4      5.942     10.642
REMARK  Name = 
REMARK  6 active torsions:
REMARK  status: ('A' for Active; 'I' for Inactive)
REMARK    1  A    between atoms: C_1  and  O_2
REMARK    2  A    between atoms: O_2  and  C_3
REMARK    3  A    between atoms: C_12  and  C_14
REMARK    4  A    between atoms: C_17  and  C_18
REMARK    5  A    between atoms: C_29  and  O_30
REMARK    6  A    between atoms: O_30  and  C_31
REMARK                            x       y       z     vdW  Elec       q    Type
REMARK                         _______ _______ _______ _____ _____    ______ ____
ROOT
ATOM      1  C   UNL     1      -1.278  11.490  22.780  0.00  0.00    +0.000 A 
ATOM      2  C   UNL     1      -0.192  11.918  22.003  0.00  0.00    +0.000 A 
ATOM      3  C   UNL     1      -0.098  13.217  21.529  0.00  0.00    +0.000 A 
ATOM      4  N   UNL     1       0.984  13.566  20.831  0.00  0.00    +0.000 NA
ATOM      5  C   UNL     1       1.096  14.827  20.393  0.00  0.00    +0.000 A 
ATOM      6  N   UNL     1       2.219  15.171  19.686  0.00  0.00    +0.000 N 
ATOM      7  C   UNL     1       2.431  16.538  19.200  0.00  0.00    +0.000 C 
ATOM      8  C   UNL     1       3.771  17.110  19.713  0.00  0.00    +0.000 C 
ATOM      9  N   UNL     1       4.881  16.160  19.530  0.00  0.00    +0.000 N 
ATOM     10  C   UNL     1       6.064  16.613  18.949  0.00  0.00    +0.000 C 
ATOM     11  O   UNL     1       6.226  17.793  18.635  0.00  0.00    +0.000 OA
ATOM     12  C   UNL     1       4.609  14.853  20.151  0.00  0.00    +0.000 C 
ATOM     13  C   UNL     1       3.335  14.235  19.543  0.00  0.00    +0.000 C 
ATOM     14  N   UNL     1       0.153  15.750  20.615  0.00  0.00    +0.000 NA
ATOM     15  C   UNL     1      -0.936  15.387  21.304  0.00  0.00    +0.000 A 
ATOM     16  N   UNL     1      -1.873  16.411  21.516  0.00  0.00    +0.000 N 
ATOM     17  C   UNL     1      -1.127  14.104  21.815  0.00  0.00    +0.000 A 
ATOM     18  C   UNL     1      -2.250  13.677  22.570  0.00  0.00    +0.000 A 
ATOM     19  C   UNL     1      -2.332  12.371  23.048  0.00  0.00    +0.000 A 
ATOM     20  H   UNL     1      -1.532  17.228  21.024  0.00  0.00    +0.000 HD
ATOM     21  H   UNL     1      -2.795  16.140  21.195  0.00  0.00    +0.000 HD
ENDROOT
BRANCH  10  22
ATOM     22  C   UNL     1       7.206  15.690  18.689  0.00  0.00    +0.000 A 
ATOM     23  C   UNL     1       8.456  15.835  19.298  0.00  0.00    +0.000 A 
ATOM     24  C   UNL     1       9.512  14.980  18.961  0.00  0.00    +0.000 A 
ATOM     25  C   UNL     1       9.303  13.914  18.080  0.00  0.00    +0.000 A 
ATOM     26  C   UNL     1       8.027  13.700  17.549  0.00  0.00    +0.000 A 
ATOM     27  C   UNL     1       6.986  14.587  17.849  0.00  0.00    +0.000 A 
BRANCH  25  28
ATOM     28  C   UNL     1      10.385  13.039  17.736  0.00  0.00    +0.000 C 
ATOM     29  N   UNL     1      11.246  12.314  17.450  0.00  0.00    +0.000 NA
ENDBRANCH  25  28
ENDBRANCH  10  22
BRANCH   1  31
ATOM     30  C   UNL     1      -0.132   9.501  23.341  0.00  0.00    +0.000 C 
ATOM     31  O   UNL     1      -1.369  10.208  23.274  0.00  0.00    +0.000 OA
ENDBRANCH   1  31
BRANCH  19  32
ATOM     32  O   UNL     1      -3.381  11.880  23.785  0.00  0.00    +0.000 OA
ATOM     33  C   UNL     1      -4.356  12.815  24.234  0.00  0.00    +0.000 C 
ENDBRANCH  19  32
TORSDOF 4
ENDMDL
MODEL 5
REMARK VINA RESULT:      -6.4      2.944      4.443
REMARK  Name = 
REMARK  6 active torsions:
REMARK  status: ('A' for Active; 'I' for Inactive)
REMARK    1  A    between atoms: C_1  and  O_2
REMARK    2  A    between atoms: O_2  and  C_3
REMARK    3  A    between atoms: C_12  and  C_14
REMARK    4  A    between atoms: C_17  and  C_18
REMARK    5  A    between atoms: C_29  and  O_30
REMARK    6  A    between atoms: O_30  and  C_31
REMARK                            x       y       z     vdW  Elec       q    Type
REMARK                         _______ _______ _______ _____ _____    ______ ____
ROOT
ATOM      1  C   UNL     1       5.030   6.285  17.012  0.00  0.00    +0.000 A 
ATOM      2  C   UNL     1       4.076   7.272  17.294  0.00  0.00    +0.000 A 
ATOM      3  C   UNL     1       3.236   7.187  18.393  0.00  0.00    +0.000 A 
ATOM      4  N   UNL     1       2.380   8.184  18.623  0.00  0.00    +0.000 NA
ATOM      5  C   UNL     1       1.584   8.122  19.699  0.00  0.00    +0.000 A 
ATOM      6  N   UNL     1       0.717   9.159  19.925  0.00  0.00    +0.000 N 
ATOM      7  C   UNL     1      -0.163   9.182  21.097  0.00  0.00    +0.000 C 
ATOM      8  C   UNL     1       0.048  10.467  21.927  0.00  0.00    +0.000 C 
ATOM      9  N   UNL     1       0.060  11.673  21.082  0.00  0.00    +0.000 N 
ATOM     10  C   UNL     1      -0.723  12.763  21.456  0.00  0.00    +0.000 C 
ATOM     11  O   UNL     1      -1.381  12.767  22.497  0.00  0.00    +0.000 OA
ATOM     12  C   UNL     1       1.057  11.590  20.001  0.00  0.00    +0.000 C 
ATOM     13  C   UNL     1       0.763  10.371  19.106  0.00  0.00    +0.000 C 
ATOM     14  N   UNL     1       1.604   7.087  20.546  0.00  0.00    +0.000 NA
ATOM     15  C   UNL     1       2.456   6.084  20.300  0.00  0.00    +0.000 A 
ATOM     16  N   UNL     1       2.435   5.042  21.242  0.00  0.00    +0.000 N 
ATOM     17  C   UNL     1       3.334   6.073  19.217  0.00  0.00    +0.000 A 
ATOM     18  C   UNL     1       4.270   5.048  18.927  0.00  0.00    +0.000 A 
ATOM     19  C   UNL     1       5.114   5.147  17.823  0.00  0.00    +0.000 A 
ATOM     20  H   UNL     1       1.698   5.259  21.903  0.00  0.00    +0.000 HD
ATOM     21  H   UNL     1       2.285   4.146  20.796  0.00  0.00    +0.000 HD
ENDROOT
BRANCH  10  22
ATOM     22  C   UNL     1      -0.795  13.993  20.617  0.00  0.00    +0.000 A 
ATOM     23  C   UNL     1      -0.122  14.125  19.398  0.00  0.00    +0.000 A 
ATOM     24  C   UNL     1      -0.171  15.330  18.688  0.00  0.00    +0.000 A 
ATOM     25  C   UNL     1      -0.968  16.385  19.143  0.00  0.00    +0.000 A 
ATOM     26  C   UNL     1      -1.728  16.221  20.306  0.00  0.00    +0.000 A 
ATOM     27  C   UNL     1      -1.638  15.033  21.040  0.00  0.00    +0.000 A 
BRANCH  25  28
ATOM     28  C   UNL     1      -1.018  17.619  18.414  0.00  0.00    +0.000 C 
ATOM     29  N   UNL     1      -1.051  18.629  17.843  0.00  0.00    +0.000 NA
ENDBRANCH  25  28
ENDBRANCH  10  22
BRANCH   1  31
ATOM     30  C   UNL     1       5.465   5.652  14.777  0.00  0.00    +0.000 C 
ATOM     31  O   UNL     1       5.884   6.372  15.935  0.00  0.00    +0.000 OA
ENDBRANCH   1  31
BRANCH  19  32
ATOM     32  O   UNL     1       6.047   4.202  17.474  0.00  0.00    +0.000 OA
ATOM     33  C   UNL     1       7.411   4.495  17.755  0.00  0.00    +0.000 C 
ENDBRANCH  19  32
TORSDOF 4
ENDMDL
MODEL 6
REMARK VINA RESULT:      -6.3      2.910      4.201
REMARK  Name = 
REMARK  6 active torsions:
REMARK  status: ('A' for Active; 'I' for Inactive)
REMARK    1  A    between atoms: C_1  and  O_2
REMARK    2  A    between atoms: O_2  and  C_3
REMARK    3  A    between atoms: C_12  and  C_14
REMARK    4  A    between atoms: C_17  and  C_18
REMARK    5  A    between atoms: C_29  and  O_30
REMARK    6  A    between atoms: O_30  and  C_31
REMARK                            x       y       z     vdW  Elec       q    Type
REMARK                         _______ _______ _______ _____ _____    ______ ____
ROOT
ATOM      1  C   UNL     1       4.930   6.354  17.326  0.00  0.00    +0.000 A 
ATOM      2  C   UNL     1       3.973   7.288  17.747  0.00  0.00    +0.000 A 
ATOM      3  C   UNL     1       3.097   7.021  18.787  0.00  0.00    +0.000 A 
ATOM      4  N   UNL     1       2.241   7.973  19.162  0.00  0.00    +0.000 NA
ATOM      5  C   UNL     1       1.409   7.733  20.184  0.00  0.00    +0.000 A 
ATOM      6  N   UNL     1       0.543   8.726  20.563  0.00  0.00    +0.000 N 
ATOM      7  C   UNL     1      -0.376   8.553  21.692  0.00  0.00    +0.000 C 
ATOM      8  C   UNL     1      -0.184   9.668  22.742  0.00  0.00    +0.000 C 
ATOM      9  N   UNL     1      -0.135  11.004  22.125  0.00  0.00    +0.000 N 
ATOM     10  C   UNL     1      -0.922  12.021  22.659  0.00  0.00    +0.000 C 
ATOM     11  O   UNL     1      -1.615  11.850  23.664  0.00  0.00    +0.000 OA
ATOM     12  C   UNL     1       0.896  11.100  21.078  0.00  0.00    +0.000 C 
ATOM     13  C   UNL     1       0.624  10.062  19.972  0.00  0.00    +0.000 C 
ATOM     14  N   UNL     1       1.392   6.564  20.836  0.00  0.00    +0.000 NA
ATOM     15  C   UNL     1       2.245   5.610  20.444  0.00  0.00    +0.000 A 
ATOM     16  N   UNL     1       2.186   4.419  21.185  0.00  0.00    +0.000 N 
ATOM     17  C   UNL     1       3.159   5.779  19.404  0.00  0.00    +0.000 A 
ATOM     18  C   UNL     1       4.097   4.809  18.967  0.00  0.00    +0.000 A 
ATOM     19  C   UNL     1       4.979   5.090  17.926  0.00  0.00    +0.000 A 
ATOM     20  H   UNL     1       1.428   4.525  21.850  0.00  0.00    +0.000 HD
ATOM     21  H   UNL     1       2.044   3.617  20.583  0.00  0.00    +0.000 HD
ENDROOT
BRANCH  10  22
ATOM     22  C   UNL     1      -0.958  13.381  22.049  0.00  0.00    +0.000 A 
ATOM     23  C   UNL     1      -0.021  14.375  22.349  0.00  0.00    +0.000 A 
ATOM     24  C   UNL     1      -0.145  15.656  21.798  0.00  0.00    +0.000 A 
ATOM     25  C   UNL     1      -1.155  15.929  20.870  0.00  0.00    +0.000 A 
ATOM     26  C   UNL     1      -2.031  14.909  20.485  0.00  0.00    +0.000 A 
ATOM     27  C   UNL     1      -1.935  13.643  21.076  0.00  0.00    +0.000 A 
BRANCH  25  28
ATOM     28  C   UNL     1      -1.281  17.241  20.306  0.00  0.00    +0.000 C 
ATOM     29  N   UNL     1      -1.369  18.312  19.865  0.00  0.00    +0.000 NA
ENDBRANCH  25  28
ENDBRANCH  10  22
BRANCH   1  31
ATOM     30  C   UNL     1       7.096   7.092  16.735  0.00  0.00    +0.000 C 
ATOM     31  O   UNL     1       5.820   6.619  16.309  0.00  0.00    +0.000 OA
ENDBRANCH   1  31
BRANCH  19  32
ATOM     32  O   UNL     1       5.915   4.209  17.445  0.00  0.00    +0.000 OA
ATOM     33  C   UNL     1       5.664   3.617  16.175  0.00  0.00    +0.000 C 
ENDBRANCH  19  32
TORSDOF 4
ENDMDL
MODEL 7
REMARK VINA RESULT:      -6.2      3.165      4.886
REMARK  Name = 
REMARK  6 active torsions:
REMARK  status: ('A' for Active; 'I' for Inactive)
REMARK    1  A    between atoms: C_1  and  O_2
REMARK    2  A    between atoms: O_2  and  C_3
REMARK    3  A    between atoms: C_12  and  C_14
REMARK    4  A    between atoms: C_17  and  C_18
REMARK    5  A    between atoms: C_29  and  O_30
REMARK    6  A    between atoms: O_30  and  C_31
REMARK                            x       y       z     vdW  Elec       q    Type
REMARK                         _______ _______ _______ _____ _____    ______ ____
ROOT
ATOM      1  C   UNL     1       4.380   5.516  17.024  0.00  0.00    +0.000 A 
ATOM      2  C   UNL     1       3.671   6.701  17.268  0.00  0.00    +0.000 A 
ATOM      3  C   UNL     1       2.891   6.868  18.401  0.00  0.00    +0.000 A 
ATOM      4  N   UNL     1       2.278   8.038  18.589  0.00  0.00    +0.000 NA
ATOM      5  C   UNL     1       1.544   8.217  19.695  0.00  0.00    +0.000 A 
ATOM      6  N   UNL     1       0.930   9.429  19.877  0.00  0.00    +0.000 N 
ATOM      7  C   UNL     1       0.135   9.714  21.076  0.00  0.00    +0.000 C 
ATOM      8  C   UNL     1       0.656  10.973  21.802  0.00  0.00    +0.000 C 
ATOM      9  N   UNL     1       0.880  12.093  20.872  0.00  0.00    +0.000 N 
ATOM     10  C   UNL     1       0.366  13.347  21.193  0.00  0.00    +0.000 C 
ATOM     11  O   UNL     1      -0.221  13.559  22.255  0.00  0.00    +0.000 OA
ATOM     12  C   UNL     1       1.780  11.730  19.764  0.00  0.00    +0.000 C 
ATOM     13  C   UNL     1       1.189  10.548  18.970  0.00  0.00    +0.000 C 
ATOM     14  N   UNL     1       1.387   7.258  20.614  0.00  0.00    +0.000 NA
ATOM     15  C   UNL     1       1.993   6.081  20.411  0.00  0.00    +0.000 A 
ATOM     16  N   UNL     1       1.801   5.130  21.425  0.00  0.00    +0.000 N 
ATOM     17  C   UNL     1       2.792   5.814  19.300  0.00  0.00    +0.000 A 
ATOM     18  C   UNL     1       3.474   4.595  19.050  0.00  0.00    +0.000 A 
ATOM     19  C   UNL     1       4.262   4.441  17.912  0.00  0.00    +0.000 A 
ATOM     20  H   UNL     1       1.161   5.542  22.095  0.00  0.00    +0.000 HD
ATOM     21  H   UNL     1       1.441   4.261  21.051  0.00  0.00    +0.000 HD
ENDROOT
BRANCH  10  22
ATOM     22  C   UNL     1       0.513  14.509  20.270  0.00  0.00    +0.000 A 
ATOM     23  C   UNL     1      -0.527  14.976  19.461  0.00  0.00    +0.000 A 
ATOM     24  C   UNL     1      -0.310  16.027  18.563  0.00  0.00    +0.000 A 
ATOM     25  C   UNL     1       0.925  16.682  18.529  0.00  0.00    +0.000 A 
ATOM     26  C   UNL     1       1.937  16.288  19.411  0.00  0.00    +0.000 A 
ATOM     27  C   UNL     1       1.733  15.204  20.273  0.00  0.00    +0.000 A 
BRANCH  25  28
ATOM     28  C   UNL     1       1.146  17.759  17.609  0.00  0.00    +0.000 C 
ATOM     29  N   UNL     1       1.348  18.631  16.869  0.00  0.00    +0.000 NA
ENDBRANCH  25  28
ENDBRANCH  10  22
BRANCH   1  31
ATOM     30  C   UNL     1       6.544   5.709  16.095  0.00  0.00    +0.000 C 
ATOM     31  O   UNL     1       5.176   5.350  15.913  0.00  0.00    +0.000 OA
ENDBRANCH   1  31
BRANCH  19  32
ATOM     32  O   UNL     1       4.953   3.297  17.599  0.00  0.00    +0.000 OA
ATOM     33  C   UNL     1       4.273   2.057  17.762  0.00  0.00    +0.000 C 
ENDBRANCH  19  32
TORSDOF 4
ENDMDL
MODEL 8
REMARK VINA RESULT:      -6.1      2.636     10.533
REMARK  Name = 
REMARK  6 active torsions:
REMARK  status: ('A' for Active; 'I' for Inactive)
REMARK    1  A    between atoms: C_1  and  O_2
REMARK    2  A    between atoms: O_2  and  C_3
REMARK    3  A    between atoms: C_12  and  C_14
REMARK    4  A    between atoms: C_17  and  C_18
REMARK    5  A    between atoms: C_29  and  O_30
REMARK    6  A    between atoms: O_30  and  C_31
REMARK                            x       y       z     vdW  Elec       q    Type
REMARK                         _______ _______ _______ _____ _____    ______ ____
ROOT
ATOM      1  C   UNL     1      -0.744  12.827  19.688  0.00  0.00    +0.000 A 
ATOM      2  C   UNL     1       0.205  11.843  19.380  0.00  0.00    +0.000 A 
ATOM      3  C   UNL     1       0.315  10.674  20.117  0.00  0.00    +0.000 A 
ATOM      4  N   UNL     1       1.213   9.763  19.741  0.00  0.00    +0.000 NA
ATOM      5  C   UNL     1       1.306   8.619  20.432  0.00  0.00    +0.000 A 
ATOM      6  N   UNL     1       2.228   7.688  20.026  0.00  0.00    +0.000 N 
ATOM      7  C   UNL     1       2.369   6.399  20.709  0.00  0.00    +0.000 C 
ATOM      8  C   UNL     1       2.200   5.224  19.721  0.00  0.00    +0.000 C 
ATOM      9  N   UNL     1       2.993   5.417  18.495  0.00  0.00    +0.000 N 
ATOM     10  C   UNL     1       3.791   4.370  18.040  0.00  0.00    +0.000 C 
ATOM     11  O   UNL     1       3.811   3.273  18.600  0.00  0.00    +0.000 OA
ATOM     12  C   UNL     1       2.694   6.696  17.829  0.00  0.00    +0.000 C 
ATOM     13  C   UNL     1       2.983   7.869  18.785  0.00  0.00    +0.000 C 
ATOM     14  N   UNL     1       0.541   8.361  21.499  0.00  0.00    +0.000 NA
ATOM     15  C   UNL     1      -0.348   9.287  21.878  0.00  0.00    +0.000 A 
ATOM     16  N   UNL     1      -1.129   8.941  22.992  0.00  0.00    +0.000 N 
ATOM     17  C   UNL     1      -0.527  10.497  21.207  0.00  0.00    +0.000 A 
ATOM     18  C   UNL     1      -1.469  11.498  21.554  0.00  0.00    +0.000 A 
ATOM     19  C   UNL     1      -1.576  12.666  20.802  0.00  0.00    +0.000 A 
ATOM     20  H   UNL     1      -0.790   8.044  23.320  0.00  0.00    +0.000 HD
ATOM     21  H   UNL     1      -1.074   9.648  23.715  0.00  0.00    +0.000 HD
ENDROOT
BRANCH  10  22
ATOM     22  C   UNL     1       4.657   4.518  16.835  0.00  0.00    +0.000 A 
ATOM     23  C   UNL     1       4.351   3.937  15.601  0.00  0.00    +0.000 A 
ATOM     24  C   UNL     1       5.238   4.053  14.523  0.00  0.00    +0.000 A 
ATOM     25  C   UNL     1       6.396   4.828  14.643  0.00  0.00    +0.000 A 
ATOM     26  C   UNL     1       6.654   5.499  15.843  0.00  0.00    +0.000 A 
ATOM     27  C   UNL     1       5.791   5.340  16.934  0.00  0.00    +0.000 A 
BRANCH  25  28
ATOM     28  C   UNL     1       7.303   4.946  13.539  0.00  0.00    +0.000 C 
ATOM     29  N   UNL     1       8.020   5.037  12.630  0.00  0.00    +0.000 NA
ENDBRANCH  25  28
ENDBRANCH  10  22
BRANCH   1  31
ATOM     30  C   UNL     1       0.271  14.830  18.951  0.00  0.00    +0.000 C 
ATOM     31  O   UNL     1      -0.875  13.981  18.948  0.00  0.00    +0.000 OA
ENDBRANCH   1  31
BRANCH  19  32
ATOM     32  O   UNL     1      -2.461  13.682  21.070  0.00  0.00    +0.000 OA
ATOM     33  C   UNL     1      -3.838  13.337  21.175  0.00  0.00    +0.000 C 
ENDBRANCH  19  32
TORSDOF 4
ENDMDL
MODEL 9
REMARK VINA RESULT:      -6.0      2.969     10.000
REMARK  Name = 
REMARK  6 active torsions:
REMARK  status: ('A' for Active; 'I' for Inactive)
REMARK    1  A    between atoms: C_1  and  O_2
REMARK    2  A    between atoms: O_2  and  C_3
REMARK    3  A    between atoms: C_12  and  C_14
REMARK    4  A    between atoms: C_17  and  C_18
REMARK    5  A    between atoms: C_29  and  O_30
REMARK    6  A    between atoms: O_30  and  C_31
REMARK                            x       y       z     vdW  Elec       q    Type
REMARK                         _______ _______ _______ _____ _____    ______ ____
ROOT
ATOM      1  C   UNL     1      -3.364  13.881  23.815  0.00  0.00    +0.000 A 
ATOM      2  C   UNL     1      -2.842  12.835  23.040  0.00  0.00    +0.000 A 
ATOM      3  C   UNL     1      -2.177  13.069  21.847  0.00  0.00    +0.000 A 
ATOM      4  N   UNL     1      -1.670  12.029  21.183  0.00  0.00    +0.000 NA
ATOM      5  C   UNL     1      -1.002  12.249  20.042  0.00  0.00    +0.000 A 
ATOM      6  N   UNL     1      -0.479  11.170  19.378  0.00  0.00    +0.000 N 
ATOM      7  C   UNL     1       0.292  11.330  18.142  0.00  0.00    +0.000 C 
ATOM      8  C   UNL     1       1.690  10.689  18.270  0.00  0.00    +0.000 C 
ATOM      9  N   UNL     1       1.624   9.333  18.841  0.00  0.00    +0.000 N 
ATOM     10  C   UNL     1       2.315   8.303  18.207  0.00  0.00    +0.000 C 
ATOM     11  O   UNL     1       3.020   8.503  17.217  0.00  0.00    +0.000 OA
ATOM     12  C   UNL     1       0.924   9.303  20.136  0.00  0.00    +0.000 C 
ATOM     13  C   UNL     1      -0.514   9.832  19.971  0.00  0.00    +0.000 C 
ATOM     14  N   UNL     1      -0.838  13.475  19.533  0.00  0.00    +0.000 NA
ATOM     15  C   UNL     1      -1.363  14.512  20.198  0.00  0.00    +0.000 A 
ATOM     16  N   UNL     1      -1.134  15.769  19.616  0.00  0.00    +0.000 N 
ATOM     17  C   UNL     1      -2.055  14.379  21.401  0.00  0.00    +0.000 A 
ATOM     18  C   UNL     1      -2.607  15.445  22.156  0.00  0.00    +0.000 A 
ATOM     19  C   UNL     1      -3.268  15.200  23.358  0.00  0.00    +0.000 A 
ATOM     20  H   UNL     1      -0.649  15.603  18.742  0.00  0.00    +0.000 HD
ATOM     21  H   UNL     1      -2.001  16.272  19.473  0.00  0.00    +0.000 HD
ENDROOT
BRANCH  10  22
ATOM     22  C   UNL     1       2.246   6.899  18.704  0.00  0.00    +0.000 A 
ATOM     23  C   UNL     1       2.284   5.787  17.855  0.00  0.00    +0.000 A 
ATOM     24  C   UNL     1       2.146   4.494  18.373  0.00  0.00    +0.000 A 
ATOM     25  C   UNL     1       2.060   4.294  19.755  0.00  0.00    +0.000 A 
ATOM     26  C   UNL     1       2.128   5.394  20.616  0.00  0.00    +0.000 A 
ATOM     27  C   UNL     1       2.216   6.689  20.091  0.00  0.00    +0.000 A 
BRANCH  25  28
ATOM     28  C   UNL     1       1.919   2.969  20.285  0.00  0.00    +0.000 C 
ATOM     29  N   UNL     1       1.803   1.905  20.735  0.00  0.00    +0.000 NA
ENDBRANCH  25  28
ENDBRANCH  10  22
BRANCH   1  31
ATOM     30  C   UNL     1      -4.716  12.425  25.095  0.00  0.00    +0.000 C 
ATOM     31  O   UNL     1      -4.006  13.659  25.013  0.00  0.00    +0.000 OA
ENDBRANCH   1  31
BRANCH  19  32
ATOM     32  O   UNL     1      -3.828  16.174  24.146  0.00  0.00    +0.000 OA
ATOM     33  C   UNL     1      -3.035  17.321  24.431  0.00  0.00    +0.000 C 
ENDBRANCH  19  32
TORSDOF 4
ENDMDL
