MODEL 1
REMARK VINA RESULT:      -7.8      0.000      0.000
REMARK  Name = 
REMARK  8 active torsions:
REMARK  status: ('A' for Active; 'I' for Inactive)
REMARK    1  A    between atoms: C_1  and  C_2
REMARK    2  A    between atoms: C_5  and  C_6
REMARK    3  A    between atoms: C_6  and  N_7
REMARK    4  A    between atoms: N_7  and  C_8
REMARK    5  A    between atoms: C_9  and  C_11
REMARK    6  A    between atoms: C_11  and  C_12
REMARK    7  A    between atoms: N_18  and  C_19
REMARK    8  A    between atoms: C_19  and  C_20
REMARK                            x       y       z     vdW  Elec       q    Type
REMARK                         _______ _______ _______ _____ _____    ______ ____
ROOT
ATOM      1  C   UNL     1       2.312   4.936  18.852  0.00  0.00    +0.000 C 
ATOM      2  C   UNL     1       1.604   4.139  19.976  0.00  0.00    +0.000 C 
ATOM      3  O   UNL     1       1.104   4.685  20.962  0.00  0.00    +0.000 OA
ATOM      4  N   UNL     1       1.362   2.807  19.774  0.00  0.00    +0.000 N 
ATOM      5  C   UNL     1       2.084   2.044  18.788  0.00  0.00    +0.000 C 
ATOM      6  C   UNL     1       2.378   2.880  17.540  0.00  0.00    +0.000 C 
ATOM      7  N   UNL     1       3.092   4.137  17.852  0.00  0.00    +0.000 NA
ATOM      8  H   UNL     1       0.903   2.340  20.545  0.00  0.00    +0.000 HD
ENDROOT
BRANCH   1   9
ATOM      9  C   UNL     1       2.866   6.272  19.386  0.00  0.00    +0.000 C 
BRANCH   9  12
ATOM     10  N   UNL     1       2.069   8.527  18.692  0.00  0.00    +0.000 N 
ATOM     11  C   UNL     1       2.064   9.632  17.742  0.00  0.00    +0.000 C 
ATOM     12  C   UNL     1       2.881   7.429  18.400  0.00  0.00    +0.000 C 
ATOM     13  O   UNL     1       3.529   7.359  17.350  0.00  0.00    +0.000 OA
BRANCH  10  14
ATOM     14  C   UNL     1       1.187   8.640  19.865  0.00  0.00    +0.000 C 
BRANCH  14  19
ATOM     15  C   UNL     1      -2.580  11.686  18.845  0.00  0.00    +0.000 C 
ATOM     16  C   UNL     1      -1.307  11.317  19.520  0.00  0.00    +0.000 A 
ATOM     17  C   UNL     1      -0.565  12.108  20.372  0.00  0.00    +0.000 A 
ATOM     18  S   UNL     1       0.849  11.278  20.871  0.00  0.00    +0.000 S 
ATOM     19  C   UNL     1       0.360   9.900  19.966  0.00  0.00    +0.000 A 
ATOM     20  N   UNL     1      -0.772  10.056  19.299  0.00  0.00    +0.000 NA
ENDBRANCH  14  19
ENDBRANCH  10  14
ENDBRANCH   9  12
ENDBRANCH   1   9
BRANCH   7  21
ATOM     21  C   UNL     1       4.529   3.928  18.088  0.00  0.00    +0.000 C 
BRANCH  21  22
ATOM     22  C   UNL     1       5.363   4.271  16.843  0.00  0.00    +0.000 A 
ATOM     23  C   UNL     1       6.644   4.844  16.946  0.00  0.00    +0.000 A 
ATOM     24  C   UNL     1       7.396   5.133  15.795  0.00  0.00    +0.000 A 
ATOM     25  C   UNL     1       6.879   4.851  14.531  0.00  0.00    +0.000 A 
ATOM     26 CL   UNL     1       7.823   5.184  13.129  0.00  0.00    +0.000 Cl
ATOM     27  C   UNL     1       5.606   4.303  14.417  0.00  0.00    +0.000 A 
ATOM     28  F   UNL     1       5.093   4.007  13.214  0.00  0.00    +0.000 F 
ATOM     29  C   UNL     1       4.849   4.031  15.556  0.00  0.00    +0.000 A 
ENDBRANCH  21  22
ENDBRANCH   7  21
TORSDOF 6
ENDMDL
MODEL 2
REMARK VINA RESULT:      -7.6      0.807      1.134
REMARK  Name = 
REMARK  8 active torsions:
REMARK  status: ('A' for Active; 'I' for Inactive)
REMARK    1  A    between atoms: C_1  and  C_2
REMARK    2  A    between atoms: C_5  and  C_6
REMARK    3  A    between atoms: C_6  and  N_7
REMARK    4  A    between atoms: N_7  and  C_8
REMARK    5  A    between atoms: C_9  and  C_11
REMARK    6  A    between atoms: C_11  and  C_12
REMARK    7  A    between atoms: N_18  and  C_19
REMARK    8  A    between atoms: C_19  and  C_20
REMARK                            x       y       z     vdW  Elec       q    Type
REMARK                         _______ _______ _______ _____ _____    ______ ____
ROOT
ATOM      1  C   UNL     1       2.314   4.970  18.846  0.00  0.00    +0.000 C 
ATOM      2  C   UNL     1       1.559   4.307  20.026  0.00  0.00    +0.000 C 
ATOM      3  O   UNL     1       1.133   4.952  20.986  0.00  0.00    +0.000 OA
ATOM      4  N   UNL     1       1.193   2.994  19.907  0.00  0.00    +0.000 N 
ATOM      5  C   UNL     1       1.820   2.113  18.955  0.00  0.00    +0.000 C 
ATOM      6  C   UNL     1       2.163   2.846  17.656  0.00  0.00    +0.000 C 
ATOM      7  N   UNL     1       2.996   4.046  17.882  0.00  0.00    +0.000 NA
ATOM      8  H   UNL     1       0.709   2.616  20.711  0.00  0.00    +0.000 HD
ENDROOT
BRANCH   1   9
ATOM      9  C   UNL     1       2.999   6.277  19.292  0.00  0.00    +0.000 C 
BRANCH   9  12
ATOM     10  N   UNL     1       2.147   8.516  18.610  0.00  0.00    +0.000 N 
ATOM     11  C   UNL     1       2.089   9.610  17.651  0.00  0.00    +0.000 C 
ATOM     12  C   UNL     1       2.959   7.425  18.295  0.00  0.00    +0.000 C 
ATOM     13  O   UNL     1       3.563   7.351  17.220  0.00  0.00    +0.000 OA
BRANCH  10  14
ATOM     14  C   UNL     1       1.313   8.630  19.818  0.00  0.00    +0.000 C 
BRANCH  14  19
ATOM     15  C   UNL     1       0.260  13.111  21.642  0.00  0.00    +0.000 C 
ATOM     16  C   UNL     1      -0.000  11.923  20.785  0.00  0.00    +0.000 A 
ATOM     17  C   UNL     1      -1.089  11.722  19.961  0.00  0.00    +0.000 A 
ATOM     18  S   UNL     1      -0.983  10.189  19.202  0.00  0.00    +0.000 S 
ATOM     19  C   UNL     1       0.528   9.911  19.974  0.00  0.00    +0.000 A 
ATOM     20  N   UNL     1       0.919  10.884  20.781  0.00  0.00    +0.000 NA
ENDBRANCH  14  19
ENDBRANCH  10  14
ENDBRANCH   9  12
ENDBRANCH   1   9
BRANCH   7  21
ATOM     21  C   UNL     1       4.412   3.719  18.107  0.00  0.00    +0.000 C 
BRANCH  21  22
ATOM     22  C   UNL     1       5.286   4.132  16.912  0.00  0.00    +0.000 A 
ATOM     23  C   UNL     1       6.553   4.718  17.089  0.00  0.00    +0.000 A 
ATOM     24  C   UNL     1       7.342   5.071  15.982  0.00  0.00    +0.000 A 
ATOM     25  C   UNL     1       6.876   4.842  14.687  0.00  0.00    +0.000 A 
ATOM     26 CL   UNL     1       7.866   5.254  13.339  0.00  0.00    +0.000 Cl
ATOM     27  C   UNL     1       5.618   4.281  14.501  0.00  0.00    +0.000 A 
ATOM     28  F   UNL     1       5.153   4.036  13.267  0.00  0.00    +0.000 F 
ATOM     29  C   UNL     1       4.824   3.945  15.596  0.00  0.00    +0.000 A 
ENDBRANCH  21  22
ENDBRANCH   7  21
TORSDOF 6
ENDMDL
MODEL 3
REMARK VINA RESULT:      -7.6      3.354      5.092
REMARK  Name = 
REMARK  8 active torsions:
REMARK  status: ('A' for Active; 'I' for Inactive)
REMARK    1  A    between atoms: C_1  and  C_2
REMARK    2  A    between atoms: C_5  and  C_6
REMARK    3  A    between atoms: C_6  and  N_7
REMARK    4  A    between atoms: N_7  and  C_8
REMARK    5  A    between atoms: C_9  and  C_11
REMARK    6  A    between atoms: C_11  and  C_12
REMARK    7  A    between atoms: N_18  and  C_19
REMARK    8  A    between atoms: C_19  and  C_20
REMARK                            x       y       z     vdW  Elec       q    Type
REMARK                         _______ _______ _______ _____ _____    ______ ____
ROOT
ATOM      1  C   UNL     1       4.862   5.931  17.033  0.00  0.00    +0.000 C 
ATOM      2  C   UNL     1       5.327   6.361  15.618  0.00  0.00    +0.000 C 
ATOM      3  O   UNL     1       4.834   7.321  15.022  0.00  0.00    +0.000 OA
ATOM      4  N   UNL     1       6.446   5.771  15.095  0.00  0.00    +0.000 N 
ATOM      5  C   UNL     1       6.949   4.517  15.595  0.00  0.00    +0.000 C 
ATOM      6  C   UNL     1       6.763   4.404  17.110  0.00  0.00    +0.000 C 
ATOM      7  N   UNL     1       5.359   4.607  17.528  0.00  0.00    +0.000 NA
ATOM      8  H   UNL     1       6.696   6.088  14.168  0.00  0.00    +0.000 HD
ENDROOT
BRANCH   1   9
ATOM      9  C   UNL     1       3.405   6.364  17.292  0.00  0.00    +0.000 C 
BRANCH   9  12
ATOM     10  N   UNL     1       2.158   7.757  18.936  0.00  0.00    +0.000 N 
ATOM     11  C   UNL     1       1.835   8.107  20.313  0.00  0.00    +0.000 C 
ATOM     12  C   UNL     1       3.059   6.711  18.731  0.00  0.00    +0.000 C 
ATOM     13  O   UNL     1       3.614   6.135  19.672  0.00  0.00    +0.000 OA
BRANCH  10  14
ATOM     14  C   UNL     1       1.537   8.561  17.871  0.00  0.00    +0.000 C 
BRANCH  14  19
ATOM     15  C   UNL     1       2.723  13.315  18.584  0.00  0.00    +0.000 C 
ATOM     16  C   UNL     1       1.779  12.167  18.541  0.00  0.00    +0.000 A 
ATOM     17  C   UNL     1       0.433  12.193  18.846  0.00  0.00    +0.000 A 
ATOM     18  S   UNL     1      -0.239  10.623  18.698  0.00  0.00    +0.000 S 
ATOM     19  C   UNL     1       1.288  10.018  18.186  0.00  0.00    +0.000 A 
ATOM     20  N   UNL     1       2.255  10.921  18.161  0.00  0.00    +0.000 NA
ENDBRANCH  14  19
ENDBRANCH  10  14
ENDBRANCH   9  12
ENDBRANCH   1   9
BRANCH   7  21
ATOM     21  C   UNL     1       4.525   3.416  17.307  0.00  0.00    +0.000 C 
BRANCH  21  22
ATOM     22  C   UNL     1       3.667   3.088  18.539  0.00  0.00    +0.000 A 
ATOM     23  C   UNL     1       4.245   2.831  19.796  0.00  0.00    +0.000 A 
ATOM     24  C   UNL     1       3.440   2.550  20.913  0.00  0.00    +0.000 A 
ATOM     25  C   UNL     1       2.051   2.525  20.788  0.00  0.00    +0.000 A 
ATOM     26 CL   UNL     1       1.076   2.207  22.171  0.00  0.00    +0.000 Cl
ATOM     27  C   UNL     1       1.470   2.758  19.547  0.00  0.00    +0.000 A 
ATOM     28  F   UNL     1       0.137   2.756  19.403  0.00  0.00    +0.000 F 
ATOM     29  C   UNL     1       2.266   3.020  18.432  0.00  0.00    +0.000 A 
ENDBRANCH  21  22
ENDBRANCH   7  21
TORSDOF 6
ENDMDL
MODEL 4
REMARK VINA RESULT:      -7.6      3.238      4.932
REMARK  Name = 
REMARK  8 active torsions:
REMARK  status: ('A' for Active; 'I' for Inactive)
REMARK    1  A    between atoms: C_1  and  C_2
REMARK    2  A    between atoms: C_5  and  C_6
REMARK    3  A    between atoms: C_6  and  N_7
REMARK    4  A    between atoms: N_7  and  C_8
REMARK    5  A    between atoms: C_9  and  C_11
REMARK    6  A    between atoms: C_11  and  C_12
REMARK    7  A    between atoms: N_18  and  C_19
REMARK    8  A    between atoms: C_19  and  C_20
REMARK                            x       y       z     vdW  Elec       q    Type
REMARK                         _______ _______ _______ _____ _____    ______ ____
ROOT
ATOM      1  C   UNL     1       4.764   5.991  17.176  0.00  0.00    +0.000 C 
ATOM      2  C   UNL     1       5.275   6.419  15.777  0.00  0.00    +0.000 C 
ATOM      3  O   UNL     1       4.784   7.361  15.152  0.00  0.00    +0.000 OA
ATOM      4  N   UNL     1       6.428   5.852  15.306  0.00  0.00    +0.000 N 
ATOM      5  C   UNL     1       6.940   4.615  15.838  0.00  0.00    +0.000 C 
ATOM      6  C   UNL     1       6.696   4.511  17.345  0.00  0.00    +0.000 C 
ATOM      7  N   UNL     1       5.272   4.684  17.705  0.00  0.00    +0.000 NA
ATOM      8  H   UNL     1       6.707   6.167  14.386  0.00  0.00    +0.000 HD
ENDROOT
BRANCH   1   9
ATOM      9  C   UNL     1       3.288   6.390  17.372  0.00  0.00    +0.000 C 
BRANCH   9  12
ATOM     10  N   UNL     1       2.206   7.975  18.959  0.00  0.00    +0.000 N 
ATOM     11  C   UNL     1       1.829   8.350  20.315  0.00  0.00    +0.000 C 
ATOM     12  C   UNL     1       2.881   6.765  18.788  0.00  0.00    +0.000 C 
ATOM     13  O   UNL     1       3.205   6.059  19.748  0.00  0.00    +0.000 OA
BRANCH  10  14
ATOM     14  C   UNL     1       1.879   8.922  17.880  0.00  0.00    +0.000 C 
BRANCH  14  19
ATOM     15  C   UNL     1      -2.717  10.764  17.916  0.00  0.00    +0.000 C 
ATOM     16  C   UNL     1      -1.257  10.813  18.196  0.00  0.00    +0.000 A 
ATOM     17  C   UNL     1      -0.560  11.860  18.763  0.00  0.00    +0.000 A 
ATOM     18  S   UNL     1       1.110  11.483  18.850  0.00  0.00    +0.000 S 
ATOM     19  C   UNL     1       0.794   9.931  18.177  0.00  0.00    +0.000 A 
ATOM     20  N   UNL     1      -0.474   9.715  17.870  0.00  0.00    +0.000 NA
ENDBRANCH  14  19
ENDBRANCH  10  14
ENDBRANCH   9  12
ENDBRANCH   1   9
BRANCH   7  21
ATOM     21  C   UNL     1       4.476   3.471  17.462  0.00  0.00    +0.000 C 
BRANCH  21  22
ATOM     22  C   UNL     1       3.607   3.111  18.677  0.00  0.00    +0.000 A 
ATOM     23  C   UNL     1       4.171   2.856  19.941  0.00  0.00    +0.000 A 
ATOM     24  C   UNL     1       3.356   2.546  21.042  0.00  0.00    +0.000 A 
ATOM     25  C   UNL     1       1.970   2.488  20.894  0.00  0.00    +0.000 A 
ATOM     26 CL   UNL     1       0.980   2.133  22.259  0.00  0.00    +0.000 Cl
ATOM     27  C   UNL     1       1.404   2.718  19.645  0.00  0.00    +0.000 A 
ATOM     28  F   UNL     1       0.073   2.684  19.480  0.00  0.00    +0.000 F 
ATOM     29  C   UNL     1       2.210   3.009  18.546  0.00  0.00    +0.000 A 
ENDBRANCH  21  22
ENDBRANCH   7  21
TORSDOF 6
ENDMDL
MODEL 5
REMARK VINA RESULT:      -7.5      4.309      7.434
REMARK  Name = 
REMARK  8 active torsions:
REMARK  status: ('A' for Active; 'I' for Inactive)
REMARK    1  A    between atoms: C_1  and  C_2
REMARK    2  A    between atoms: C_5  and  C_6
REMARK    3  A    between atoms: C_6  and  N_7
REMARK    4  A    between atoms: N_7  and  C_8
REMARK    5  A    between atoms: C_9  and  C_11
REMARK    6  A    between atoms: C_11  and  C_12
REMARK    7  A    between atoms: N_18  and  C_19
REMARK    8  A    between atoms: C_19  and  C_20
REMARK                            x       y       z     vdW  Elec       q    Type
REMARK                         _______ _______ _______ _____ _____    ______ ____
ROOT
ATOM      1  C   UNL     1       4.018   4.056  19.675  0.00  0.00    +0.000 C 
ATOM      2  C   UNL     1       3.330   2.669  19.734  0.00  0.00    +0.000 C 
ATOM      3  O   UNL     1       3.923   1.623  19.462  0.00  0.00    +0.000 OA
ATOM      4  N   UNL     1       2.081   2.588  20.286  0.00  0.00    +0.000 N 
ATOM      5  C   UNL     1       1.232   3.744  20.422  0.00  0.00    +0.000 C 
ATOM      6  C   UNL     1       2.044   4.997  20.756  0.00  0.00    +0.000 C 
ATOM      7  N   UNL     1       3.123   5.254  19.778  0.00  0.00    +0.000 NA
ATOM      8  H   UNL     1       1.682   1.658  20.291  0.00  0.00    +0.000 HD
ENDROOT
BRANCH   1   9
ATOM      9  C   UNL     1       5.198   4.047  18.681  0.00  0.00    +0.000 C 
BRANCH   9  12
ATOM     10  N   UNL     1       6.294   6.134  17.880  0.00  0.00    +0.000 N 
ATOM     11  C   UNL     1       7.295   7.180  18.039  0.00  0.00    +0.000 C 
ATOM     12  C   UNL     1       6.232   5.146  18.864  0.00  0.00    +0.000 C 
ATOM     13  O   UNL     1       7.030   5.114  19.807  0.00  0.00    +0.000 OA
BRANCH  10  14
ATOM     14  C   UNL     1       5.452   6.182  16.673  0.00  0.00    +0.000 C 
BRANCH  14  19
ATOM     15  C   UNL     1       8.127   5.251  12.612  0.00  0.00    +0.000 C 
ATOM     16  C   UNL     1       7.100   4.926  13.638  0.00  0.00    +0.000 A 
ATOM     17  C   UNL     1       6.307   3.797  13.683  0.00  0.00    +0.000 A 
ATOM     18  S   UNL     1       5.238   3.877  15.021  0.00  0.00    +0.000 S 
ATOM     19  C   UNL     1       5.933   5.380  15.486  0.00  0.00    +0.000 A 
ATOM     20  N   UNL     1       6.881   5.820  14.675  0.00  0.00    +0.000 NA
ENDBRANCH  14  19
ENDBRANCH  10  14
ENDBRANCH   9  12
ENDBRANCH   1   9
BRANCH   7  21
ATOM     21  C   UNL     1       2.628   5.869  18.537  0.00  0.00    +0.000 C 
BRANCH  21  22
ATOM     22  C   UNL     1       2.144   7.308  18.772  0.00  0.00    +0.000 A 
ATOM     23  C   UNL     1       2.055   8.240  17.721  0.00  0.00    +0.000 A 
ATOM     24  C   UNL     1       1.593   9.546  17.955  0.00  0.00    +0.000 A 
ATOM     25  C   UNL     1       1.213   9.935  19.240  0.00  0.00    +0.000 A 
ATOM     26 CL   UNL     1       0.622  11.531  19.508  0.00  0.00    +0.000 Cl
ATOM     27  C   UNL     1       1.315   9.029  20.289  0.00  0.00    +0.000 A 
ATOM     28  F   UNL     1       0.941   9.373  21.530  0.00  0.00    +0.000 F 
ATOM     29  C   UNL     1       1.790   7.737  20.064  0.00  0.00    +0.000 A 
ENDBRANCH  21  22
ENDBRANCH   7  21
TORSDOF 6
ENDMDL
MODEL 6
REMARK VINA RESULT:      -7.4      4.151      7.307
REMARK  Name = 
REMARK  8 active torsions:
REMARK  status: ('A' for Active; 'I' for Inactive)
REMARK    1  A    between atoms: C_1  and  C_2
REMARK    2  A    between atoms: C_5  and  C_6
REMARK    3  A    between atoms: C_6  and  N_7
REMARK    4  A    between atoms: N_7  and  C_8
REMARK    5  A    between atoms: C_9  and  C_11
REMARK    6  A    between atoms: C_11  and  C_12
REMARK    7  A    between atoms: N_18  and  C_19
REMARK    8  A    between atoms: C_19  and  C_20
REMARK                            x       y       z     vdW  Elec       q    Type
REMARK                         _______ _______ _______ _____ _____    ______ ____
ROOT
ATOM      1  C   UNL     1       3.718   3.302  19.180  0.00  0.00    +0.000 C 
ATOM      2  C   UNL     1       3.131   1.936  18.741  0.00  0.00    +0.000 C 
ATOM      3  O   UNL     1       3.842   0.991  18.393  0.00  0.00    +0.000 OA
ATOM      4  N   UNL     1       1.793   1.716  18.925  0.00  0.00    +0.000 N 
ATOM      5  C   UNL     1       0.861   2.799  19.105  0.00  0.00    +0.000 C 
ATOM      6  C   UNL     1       1.481   3.940  19.914  0.00  0.00    +0.000 C 
ATOM      7  N   UNL     1       2.746   4.433  19.328  0.00  0.00    +0.000 NA
ATOM      8  H   UNL     1       1.469   0.809  18.614  0.00  0.00    +0.000 HD
ENDROOT
BRANCH   1   9
ATOM      9  C   UNL     1       5.101   3.541  18.542  0.00  0.00    +0.000 C 
BRANCH   9  12
ATOM     10  N   UNL     1       6.970   5.166  18.282  0.00  0.00    +0.000 N 
ATOM     11  C   UNL     1       7.704   6.336  18.744  0.00  0.00    +0.000 C 
ATOM     12  C   UNL     1       5.851   4.774  19.019  0.00  0.00    +0.000 C 
ATOM     13  O   UNL     1       5.521   5.353  20.060  0.00  0.00    +0.000 OA
BRANCH  10  14
ATOM     14  C   UNL     1       7.489   4.466  17.095  0.00  0.00    +0.000 C 
BRANCH  14  19
ATOM     15  C   UNL     1       6.076   3.340  12.486  0.00  0.00    +0.000 C 
ATOM     16  C   UNL     1       6.005   4.118  13.752  0.00  0.00    +0.000 A 
ATOM     17  C   UNL     1       5.164   5.178  14.023  0.00  0.00    +0.000 A 
ATOM     18  S   UNL     1       5.469   5.790  15.594  0.00  0.00    +0.000 S 
ATOM     19  C   UNL     1       6.662   4.574  15.836  0.00  0.00    +0.000 A 
ATOM     20  N   UNL     1       6.852   3.779  14.796  0.00  0.00    +0.000 NA
ENDBRANCH  14  19
ENDBRANCH  10  14
ENDBRANCH   9  12
ENDBRANCH   1   9
BRANCH   7  21
ATOM     21  C   UNL     1       2.527   5.325  18.179  0.00  0.00    +0.000 C 
BRANCH  21  22
ATOM     22  C   UNL     1       2.155   6.747  18.628  0.00  0.00    +0.000 A 
ATOM     23  C   UNL     1       2.014   7.802  17.707  0.00  0.00    +0.000 A 
ATOM     24  C   UNL     1       1.656   9.090  18.139  0.00  0.00    +0.000 A 
ATOM     25  C   UNL     1       1.433   9.339  19.493  0.00  0.00    +0.000 A 
ATOM     26 CL   UNL     1       0.968  10.916  20.005  0.00  0.00    +0.000 Cl
ATOM     27  C   UNL     1       1.590   8.309  20.414  0.00  0.00    +0.000 A 
ATOM     28  F   UNL     1       1.366   8.519  21.719  0.00  0.00    +0.000 F 
ATOM     29  C   UNL     1       1.962   7.033  19.992  0.00  0.00    +0.000 A 
ENDBRANCH  21  22
ENDBRANCH   7  21
TORSDOF 6
ENDMDL
MODEL 7
REMARK VINA RESULT:      -7.4      1.000      1.304
REMARK  Name = 
REMARK  8 active torsions:
REMARK  status: ('A' for Active; 'I' for Inactive)
REMARK    1  A    between atoms: C_1  and  C_2
REMARK    2  A    between atoms: C_5  and  C_6
REMARK    3  A    between atoms: C_6  and  N_7
REMARK    4  A    between atoms: N_7  and  C_8
REMARK    5  A    between atoms: C_9  and  C_11
REMARK    6  A    between atoms: C_11  and  C_12
REMARK    7  A    between atoms: N_18  and  C_19
REMARK    8  A    between atoms: C_19  and  C_20
REMARK                            x       y       z     vdW  Elec       q    Type
REMARK                         _______ _______ _______ _____ _____    ______ ____
ROOT
ATOM      1  C   UNL     1       2.200   4.923  18.903  0.00  0.00    +0.000 C 
ATOM      2  C   UNL     1       1.410   4.218  20.035  0.00  0.00    +0.000 C 
ATOM      3  O   UNL     1       0.913   4.835  20.979  0.00  0.00    +0.000 OA
ATOM      4  N   UNL     1       1.097   2.895  19.880  0.00  0.00    +0.000 N 
ATOM      5  C   UNL     1       1.802   2.049  18.951  0.00  0.00    +0.000 C 
ATOM      6  C   UNL     1       2.185   2.811  17.681  0.00  0.00    +0.000 C 
ATOM      7  N   UNL     1       2.963   4.037  17.965  0.00  0.00    +0.000 NA
ATOM      8  H   UNL     1       0.586   2.489  20.654  0.00  0.00    +0.000 HD
ENDROOT
BRANCH   1   9
ATOM      9  C   UNL     1       2.817   6.246  19.400  0.00  0.00    +0.000 C 
BRANCH   9  12
ATOM     10  N   UNL     1       2.066   8.522  18.724  0.00  0.00    +0.000 N 
ATOM     11  C   UNL     1       2.052   9.619  17.765  0.00  0.00    +0.000 C 
ATOM     12  C   UNL     1       2.823   7.394  18.403  0.00  0.00    +0.000 C 
ATOM     13  O   UNL     1       3.415   7.292  17.323  0.00  0.00    +0.000 OA
BRANCH  10  14
ATOM     14  C   UNL     1       1.248   8.676  19.939  0.00  0.00    +0.000 C 
BRANCH  14  19
ATOM     15  C   UNL     1      -2.576  11.619  18.830  0.00  0.00    +0.000 C 
ATOM     16  C   UNL     1      -1.307  11.286  19.532  0.00  0.00    +0.000 A 
ATOM     17  C   UNL     1      -0.602  12.100  20.395  0.00  0.00    +0.000 A 
ATOM     18  S   UNL     1       0.823  11.309  20.925  0.00  0.00    +0.000 S 
ATOM     19  C   UNL     1       0.387   9.915  20.017  0.00  0.00    +0.000 A 
ATOM     20  N   UNL     1      -0.735  10.039  19.327  0.00  0.00    +0.000 NA
ENDBRANCH  14  19
ENDBRANCH  10  14
ENDBRANCH   9  12
ENDBRANCH   1   9
BRANCH   7  21
ATOM     21  C   UNL     1       4.376   3.755  18.259  0.00  0.00    +0.000 C 
BRANCH  21  22
ATOM     22  C   UNL     1       5.291   4.170  17.095  0.00  0.00    +0.000 A 
ATOM     23  C   UNL     1       5.296   3.474  15.873  0.00  0.00    +0.000 A 
ATOM     24  C   UNL     1       6.128   3.882  14.817  0.00  0.00    +0.000 A 
ATOM     25  C   UNL     1       6.961   4.990  14.968  0.00  0.00    +0.000 A 
ATOM     26 CL   UNL     1       7.954   5.497  13.656  0.00  0.00    +0.000 Cl
ATOM     27  C   UNL     1       6.978   5.674  16.179  0.00  0.00    +0.000 A 
ATOM     28  F   UNL     1       7.758   6.752  16.345  0.00  0.00    +0.000 F 
ATOM     29  C   UNL     1       6.167   5.262  17.236  0.00  0.00    +0.000 A 
ENDBRANCH  21  22
ENDBRANCH   7  21
TORSDOF 6
ENDMDL
MODEL 8
REMARK VINA RESULT:      -7.3      4.198      7.404
REMARK  Name = 
REMARK  8 active torsions:
REMARK  status: ('A' for Active; 'I' for Inactive)
REMARK    1  A    between atoms: C_1  and  C_2
REMARK    2  A    between atoms: C_5  and  C_6
REMARK    3  A    between atoms: C_6  and  N_7
REMARK    4  A    between atoms: N_7  and  C_8
REMARK    5  A    between atoms: C_9  and  C_11
REMARK    6  A    between atoms: C_11  and  C_12
REMARK    7  A    between atoms: N_18  and  C_19
REMARK    8  A    between atoms: C_19  and  C_20
REMARK                            x       y       z     vdW  Elec       q    Type
REMARK                         _______ _______ _______ _____ _____    ______ ____
ROOT
ATOM      1  C   UNL     1       3.979   3.938  19.713  0.00  0.00    +0.000 C 
ATOM      2  C   UNL     1       3.268   2.561  19.695  0.00  0.00    +0.000 C 
ATOM      3  O   UNL     1       3.826   1.533  19.308  0.00  0.00    +0.000 OA
ATOM      4  N   UNL     1       2.047   2.453  20.304  0.00  0.00    +0.000 N 
ATOM      5  C   UNL     1       1.229   3.607  20.579  0.00  0.00    +0.000 C 
ATOM      6  C   UNL     1       2.082   4.816  20.970  0.00  0.00    +0.000 C 
ATOM      7  N   UNL     1       3.114   5.137  19.961  0.00  0.00    +0.000 NA
ATOM      8  H   UNL     1       1.631   1.533  20.254  0.00  0.00    +0.000 HD
ENDROOT
BRANCH   1   9
ATOM      9  C   UNL     1       5.105   3.993  18.661  0.00  0.00    +0.000 C 
BRANCH   9  12
ATOM     10  N   UNL     1       6.240   6.066  17.876  0.00  0.00    +0.000 N 
ATOM     11  C   UNL     1       7.252   7.100  18.051  0.00  0.00    +0.000 C 
ATOM     12  C   UNL     1       6.150   5.079  18.860  0.00  0.00    +0.000 C 
ATOM     13  O   UNL     1       6.932   5.039  19.815  0.00  0.00    +0.000 OA
BRANCH  10  14
ATOM     14  C   UNL     1       5.418   6.123  16.656  0.00  0.00    +0.000 C 
BRANCH  14  19
ATOM     15  C   UNL     1       8.126   5.312  12.591  0.00  0.00    +0.000 C 
ATOM     16  C   UNL     1       7.112   4.944  13.615  0.00  0.00    +0.000 A 
ATOM     17  C   UNL     1       6.361   3.787  13.654  0.00  0.00    +0.000 A 
ATOM     18  S   UNL     1       5.290   3.821  14.992  0.00  0.00    +0.000 S 
ATOM     19  C   UNL     1       5.929   5.346  15.465  0.00  0.00    +0.000 A 
ATOM     20  N   UNL     1       6.860   5.824  14.657  0.00  0.00    +0.000 NA
ENDBRANCH  14  19
ENDBRANCH  10  14
ENDBRANCH   9  12
ENDBRANCH   1   9
BRANCH   7  21
ATOM     21  C   UNL     1       2.567   5.860  18.803  0.00  0.00    +0.000 C 
BRANCH  21  22
ATOM     22  C   UNL     1       2.073   7.262  19.191  0.00  0.00    +0.000 A 
ATOM     23  C   UNL     1       1.614   7.552  20.490  0.00  0.00    +0.000 A 
ATOM     24  C   UNL     1       1.184   8.845  20.828  0.00  0.00    +0.000 A 
ATOM     25  C   UNL     1       1.208   9.864  19.875  0.00  0.00    +0.000 A 
ATOM     26 CL   UNL     1       0.703  11.452  20.310  0.00  0.00    +0.000 Cl
ATOM     27  C   UNL     1       1.640   9.584  18.584  0.00  0.00    +0.000 A 
ATOM     28  F   UNL     1       1.689  10.549  17.654  0.00  0.00    +0.000 F 
ATOM     29  C   UNL     1       2.052   8.297  18.239  0.00  0.00    +0.000 A 
ENDBRANCH  21  22
ENDBRANCH   7  21
TORSDOF 6
ENDMDL
MODEL 9
REMARK VINA RESULT:      -7.3      4.379      7.330
REMARK  Name = 
REMARK  8 active torsions:
REMARK  status: ('A' for Active; 'I' for Inactive)
REMARK    1  A    between atoms: C_1  and  C_2
REMARK    2  A    between atoms: C_5  and  C_6
REMARK    3  A    between atoms: C_6  and  N_7
REMARK    4  A    between atoms: N_7  and  C_8
REMARK    5  A    between atoms: C_9  and  C_11
REMARK    6  A    between atoms: C_11  and  C_12
REMARK    7  A    between atoms: N_18  and  C_19
REMARK    8  A    between atoms: C_19  and  C_20
REMARK                            x       y       z     vdW  Elec       q    Type
REMARK                         _______ _______ _______ _____ _____    ______ ____
ROOT
ATOM      1  C   UNL     1       3.699   3.411  19.183  0.00  0.00    +0.000 C 
ATOM      2  C   UNL     1       3.066   2.031  18.873  0.00  0.00    +0.000 C 
ATOM      3  O   UNL     1       3.720   1.086  18.428  0.00  0.00    +0.000 OA
ATOM      4  N   UNL     1       1.780   1.800  19.284  0.00  0.00    +0.000 N 
ATOM      5  C   UNL     1       0.878   2.877  19.600  0.00  0.00    +0.000 C 
ATOM      6  C   UNL     1       1.610   4.041  20.272  0.00  0.00    +0.000 C 
ATOM      7  N   UNL     1       2.751   4.535  19.473  0.00  0.00    +0.000 NA
ATOM      8  H   UNL     1       1.421   0.885  19.048  0.00  0.00    +0.000 HD
ENDROOT
BRANCH   1   9
ATOM      9  C   UNL     1       4.953   3.651  18.317  0.00  0.00    +0.000 C 
BRANCH   9  12
ATOM     10  N   UNL     1       5.638   5.937  17.606  0.00  0.00    +0.000 N 
ATOM     11  C   UNL     1       6.375   7.170  17.846  0.00  0.00    +0.000 C 
ATOM     12  C   UNL     1       5.709   4.943  18.583  0.00  0.00    +0.000 C 
ATOM     13  O   UNL     1       6.415   5.067  19.590  0.00  0.00    +0.000 OA
BRANCH  10  14
ATOM     14  C   UNL     1       4.907   5.822  16.333  0.00  0.00    +0.000 C 
BRANCH  14  19
ATOM     15  C   UNL     1       5.357   3.211  12.150  0.00  0.00    +0.000 C 
ATOM     16  C   UNL     1       5.889   3.944  13.330  0.00  0.00    +0.000 A 
ATOM     17  C   UNL     1       7.216   4.109  13.670  0.00  0.00    +0.000 A 
ATOM     18  S   UNL     1       7.348   4.986  15.136  0.00  0.00    +0.000 S 
ATOM     19  C   UNL     1       5.636   5.138  15.199  0.00  0.00    +0.000 A 
ATOM     20  N   UNL     1       4.996   4.540  14.208  0.00  0.00    +0.000 NA
ENDBRANCH  14  19
ENDBRANCH  10  14
ENDBRANCH   9  12
ENDBRANCH   1   9
BRANCH   7  21
ATOM     21  C   UNL     1       2.331   5.402  18.362  0.00  0.00    +0.000 C 
BRANCH  21  22
ATOM     22  C   UNL     1       2.012   6.826  18.844  0.00  0.00    +0.000 A 
ATOM     23  C   UNL     1       1.918   7.907  17.948  0.00  0.00    +0.000 A 
ATOM     24  C   UNL     1       1.608   9.198  18.409  0.00  0.00    +0.000 A 
ATOM     25  C   UNL     1       1.388   9.423  19.768  0.00  0.00    +0.000 A 
ATOM     26 CL   UNL     1       0.982  11.004  20.316  0.00  0.00    +0.000 Cl
ATOM     27  C   UNL     1       1.499   8.366  20.664  0.00  0.00    +0.000 A 
ATOM     28  F   UNL     1       1.276   8.553  21.973  0.00  0.00    +0.000 F 
ATOM     29  C   UNL     1       1.823   7.087  20.213  0.00  0.00    +0.000 A 
ENDBRANCH  21  22
ENDBRANCH   7  21
TORSDOF 6
ENDMDL
