MODEL 1
REMARK VINA RESULT:      -7.3      0.000      0.000
REMARK  Name = 
REMARK  5 active torsions:
REMARK  status: ('A' for Active; 'I' for Inactive)
REMARK    1  A    between atoms: C_1  and  C_2
REMARK    2  A    between atoms: C_2  and  O_3
REMARK    3  A    between atoms: O_3  and  C_4
REMARK    4  A    between atoms: C_9  and  C_11
REMARK    5  A    between atoms: C_14  and  C_15
REMARK                            x       y       z     vdW  Elec       q    Type
REMARK                         _______ _______ _______ _____ _____    ______ ____
ROOT
ATOM      1  C   UNL     1       7.456   5.649  16.258  0.00  0.00    +0.000 C 
ATOM      2  C   UNL     1       6.564   5.273  15.064  0.00  0.00    +0.000 C 
ATOM      3  C   UNL     1       5.112   5.125  15.503  0.00  0.00    +0.000 C 
ATOM      4  C   UNL     1       4.981   4.128  16.647  0.00  0.00    +0.000 C 
ATOM      5  N   UNL     1       5.888   4.428  17.757  0.00  0.00    +0.000 N 
ATOM      6  C   UNL     1       5.557   4.776  19.073  0.00  0.00    +0.000 C 
ATOM      7  O   UNL     1       6.459   5.070  19.869  0.00  0.00    +0.000 OA
ATOM      8  C   UNL     1       7.297   4.561  17.345  0.00  0.00    +0.000 C 
ENDROOT
BRANCH   6   9
ATOM      9  C   UNL     1       4.183   4.782  19.522  0.00  0.00    +0.000 A 
ATOM     10  N   UNL     1       3.421   5.875  19.836  0.00  0.00    +0.000 N 
ATOM     11  N   UNL     1       2.174   5.603  20.248  0.00  0.00    +0.000 NA
ATOM     12  C   UNL     1       2.061   4.286  20.058  0.00  0.00    +0.000 A 
ATOM     13  C   UNL     1       0.760   3.614  20.302  0.00  0.00    +0.000 C 
ATOM     14  C   UNL     1       3.277   3.740  19.601  0.00  0.00    +0.000 A 
ATOM     15 BR   UNL     1       3.531   1.925  19.184  0.00  0.00    +0.000 Br
ATOM     16  H   UNL     1       3.685   6.850  19.790  0.00  0.00    +0.000 HD
ENDBRANCH   6   9
BRANCH   1  17
ATOM     17  O   UNL     1       7.056   6.953  16.715  0.00  0.00    +0.000 OA
BRANCH  17  19
ATOM     18  C   UNL     1       7.964   8.933  17.730  0.00  0.00    +0.000 C 
ATOM     19  C   UNL     1       7.815   7.428  17.826  0.00  0.00    +0.000 C 
ENDBRANCH  17  19
ENDBRANCH   1  17
TORSDOF 3
ENDMDL
MODEL 2
REMARK VINA RESULT:      -6.7      1.580      1.580
REMARK  Name = 
REMARK  5 active torsions:
REMARK  status: ('A' for Active; 'I' for Inactive)
REMARK    1  A    between atoms: C_1  and  C_2
REMARK    2  A    between atoms: C_2  and  O_3
REMARK    3  A    between atoms: O_3  and  C_4
REMARK    4  A    between atoms: C_9  and  C_11
REMARK    5  A    between atoms: C_14  and  C_15
REMARK                            x       y       z     vdW  Elec       q    Type
REMARK                         _______ _______ _______ _____ _____    ______ ____
ROOT
ATOM      1  C   UNL     1       7.156   5.829  16.132  0.00  0.00    +0.000 C 
ATOM      2  C   UNL     1       6.426   5.201  14.935  0.00  0.00    +0.000 C 
ATOM      3  C   UNL     1       5.105   4.581  15.376  0.00  0.00    +0.000 C 
ATOM      4  C   UNL     1       5.316   3.578  16.503  0.00  0.00    +0.000 C 
ATOM      5  N   UNL     1       6.085   4.142  17.616  0.00  0.00    +0.000 N 
ATOM      6  C   UNL     1       5.669   4.343  18.938  0.00  0.00    +0.000 C 
ATOM      7  O   UNL     1       6.432   4.903  19.736  0.00  0.00    +0.000 OA
ATOM      8  C   UNL     1       7.369   4.733  17.202  0.00  0.00    +0.000 C 
ENDROOT
BRANCH   6   9
ATOM      9  C   UNL     1       4.372   3.893  19.391  0.00  0.00    +0.000 A 
ATOM     10  N   UNL     1       4.091   2.742  20.075  0.00  0.00    +0.000 N 
ATOM     11  N   UNL     1       2.794   2.549  20.362  0.00  0.00    +0.000 NA
ATOM     12  C   UNL     1       2.216   3.690  19.978  0.00  0.00    +0.000 A 
ATOM     13  C   UNL     1       0.770   3.908  20.236  0.00  0.00    +0.000 C 
ATOM     14  C   UNL     1       3.157   4.553  19.381  0.00  0.00    +0.000 A 
ATOM     15 BR   UNL     1       2.754   6.271  18.734  0.00  0.00    +0.000 Br
ATOM     16  H   UNL     1       4.739   2.031  20.390  0.00  0.00    +0.000 HD
ENDBRANCH   6   9
BRANCH   1  17
ATOM     17  O   UNL     1       6.356   6.924  16.613  0.00  0.00    +0.000 OA
BRANCH  17  19
ATOM     18  C   UNL     1       7.996   8.446  17.492  0.00  0.00    +0.000 C 
ATOM     19  C   UNL     1       6.850   7.509  17.817  0.00  0.00    +0.000 C 
ENDBRANCH  17  19
ENDBRANCH   1  17
TORSDOF 3
ENDMDL
MODEL 3
REMARK VINA RESULT:      -6.5      2.236      3.247
REMARK  Name = 
REMARK  5 active torsions:
REMARK  status: ('A' for Active; 'I' for Inactive)
REMARK    1  A    between atoms: C_1  and  C_2
REMARK    2  A    between atoms: C_2  and  O_3
REMARK    3  A    between atoms: O_3  and  C_4
REMARK    4  A    between atoms: C_9  and  C_11
REMARK    5  A    between atoms: C_14  and  C_15
REMARK                            x       y       z     vdW  Elec       q    Type
REMARK                         _______ _______ _______ _____ _____    ______ ____
ROOT
ATOM      1  C   UNL     1       7.086   6.383  16.711  0.00  0.00    +0.000 C 
ATOM      2  C   UNL     1       7.907   6.610  17.990  0.00  0.00    +0.000 C 
ATOM      3  C   UNL     1       7.416   5.701  19.112  0.00  0.00    +0.000 C 
ATOM      4  C   UNL     1       5.923   5.883  19.354  0.00  0.00    +0.000 C 
ATOM      5  N   UNL     1       5.137   5.752  18.125  0.00  0.00    +0.000 N 
ATOM      6  C   UNL     1       4.167   4.789  17.819  0.00  0.00    +0.000 C 
ATOM      7  O   UNL     1       3.649   4.785  16.694  0.00  0.00    +0.000 OA
ATOM      8  C   UNL     1       5.596   6.635  17.038  0.00  0.00    +0.000 C 
ENDROOT
BRANCH   6   9
ATOM      9  C   UNL     1       3.747   3.813  18.799  0.00  0.00    +0.000 A 
ATOM     10  N   UNL     1       4.247   2.551  18.974  0.00  0.00    +0.000 N 
ATOM     11  N   UNL     1       3.665   1.835  19.948  0.00  0.00    +0.000 NA
ATOM     12  C   UNL     1       2.847   2.712  20.535  0.00  0.00    +0.000 A 
ATOM     13  C   UNL     1       2.092   2.318  21.751  0.00  0.00    +0.000 C 
ATOM     14  C   UNL     1       2.874   3.951  19.863  0.00  0.00    +0.000 A 
ATOM     15 BR   UNL     1       1.887   5.461  20.389  0.00  0.00    +0.000 Br
ATOM     16  H   UNL     1       4.997   2.103  18.464  0.00  0.00    +0.000 HD
ENDBRANCH   6   9
BRANCH   1  17
ATOM     17  O   UNL     1       7.336   5.041  16.258  0.00  0.00    +0.000 OA
BRANCH  17  19
ATOM     18  C   UNL     1       6.110   3.842  14.573  0.00  0.00    +0.000 C 
ATOM     19  C   UNL     1       7.185   4.874  14.849  0.00  0.00    +0.000 C 
ENDBRANCH  17  19
ENDBRANCH   1  17
TORSDOF 3
ENDMDL
MODEL 4
REMARK VINA RESULT:      -6.4      1.921      2.938
REMARK  Name = 
REMARK  5 active torsions:
REMARK  status: ('A' for Active; 'I' for Inactive)
REMARK    1  A    between atoms: C_1  and  C_2
REMARK    2  A    between atoms: C_2  and  O_3
REMARK    3  A    between atoms: O_3  and  C_4
REMARK    4  A    between atoms: C_9  and  C_11
REMARK    5  A    between atoms: C_14  and  C_15
REMARK                            x       y       z     vdW  Elec       q    Type
REMARK                         _______ _______ _______ _____ _____    ______ ____
ROOT
ATOM      1  C   UNL     1       6.779   5.848  16.176  0.00  0.00    +0.000 C 
ATOM      2  C   UNL     1       7.600   4.888  17.051  0.00  0.00    +0.000 C 
ATOM      3  C   UNL     1       6.721   4.251  18.122  0.00  0.00    +0.000 C 
ATOM      4  C   UNL     1       6.011   5.312  18.953  0.00  0.00    +0.000 C 
ATOM      5  N   UNL     1       5.292   6.283  18.125  0.00  0.00    +0.000 N 
ATOM      6  C   UNL     1       3.913   6.527  18.079  0.00  0.00    +0.000 C 
ATOM      7  O   UNL     1       3.468   7.341  17.259  0.00  0.00    +0.000 OA
ATOM      8  C   UNL     1       6.136   6.913  17.094  0.00  0.00    +0.000 C 
ENDROOT
BRANCH   6   9
ATOM      9  C   UNL     1       3.005   5.858  18.983  0.00  0.00    +0.000 A 
ATOM     10  N   UNL     1       2.421   6.384  20.104  0.00  0.00    +0.000 N 
ATOM     11  N   UNL     1       1.628   5.541  20.783  0.00  0.00    +0.000 NA
ATOM     12  C   UNL     1       1.574   4.461  20.000  0.00  0.00    +0.000 A 
ATOM     13  C   UNL     1       0.689   3.327  20.366  0.00  0.00    +0.000 C 
ATOM     14  C   UNL     1       2.403   4.619  18.871  0.00  0.00    +0.000 A 
ATOM     15 BR   UNL     1       2.586   3.339  17.506  0.00  0.00    +0.000 Br
ATOM     16  H   UNL     1       2.512   7.322  20.471  0.00  0.00    +0.000 HD
ENDBRANCH   6   9
BRANCH   1  17
ATOM     17  O   UNL     1       5.802   5.069  15.462  0.00  0.00    +0.000 OA
BRANCH  17  19
ATOM     18  C   UNL     1       5.612   3.888  13.377  0.00  0.00    +0.000 C 
ATOM     19  C   UNL     1       6.368   4.014  14.685  0.00  0.00    +0.000 C 
ENDBRANCH  17  19
ENDBRANCH   1  17
TORSDOF 3
ENDMDL
MODEL 5
REMARK VINA RESULT:      -6.4      2.746      5.793
REMARK  Name = 
REMARK  5 active torsions:
REMARK  status: ('A' for Active; 'I' for Inactive)
REMARK    1  A    between atoms: C_1  and  C_2
REMARK    2  A    between atoms: C_2  and  O_3
REMARK    3  A    between atoms: O_3  and  C_4
REMARK    4  A    between atoms: C_9  and  C_11
REMARK    5  A    between atoms: C_14  and  C_15
REMARK                            x       y       z     vdW  Elec       q    Type
REMARK                         _______ _______ _______ _____ _____    ______ ____
ROOT
ATOM      1  C   UNL     1       1.461   2.527  19.215  0.00  0.00    +0.000 C 
ATOM      2  C   UNL     1       1.941   2.188  20.635  0.00  0.00    +0.000 C 
ATOM      3  C   UNL     1       3.273   2.867  20.930  0.00  0.00    +0.000 C 
ATOM      4  C   UNL     1       4.316   2.513  19.878  0.00  0.00    +0.000 C 
ATOM      5  N   UNL     1       3.839   2.754  18.514  0.00  0.00    +0.000 N 
ATOM      6  C   UNL     1       4.343   3.657  17.569  0.00  0.00    +0.000 C 
ATOM      7  O   UNL     1       3.766   3.782  16.481  0.00  0.00    +0.000 OA
ATOM      8  C   UNL     1       2.557   2.091  18.215  0.00  0.00    +0.000 C 
ENDROOT
BRANCH   6   9
ATOM      9  C   UNL     1       5.534   4.430  17.836  0.00  0.00    +0.000 A 
ATOM     10  N   UNL     1       6.785   3.950  18.116  0.00  0.00    +0.000 N 
ATOM     11  N   UNL     1       7.719   4.885  18.346  0.00  0.00    +0.000 NA
ATOM     12  C   UNL     1       7.092   6.030  18.063  0.00  0.00    +0.000 A 
ATOM     13  C   UNL     1       7.842   7.310  18.094  0.00  0.00    +0.000 C 
ATOM     14  C   UNL     1       5.742   5.794  17.733  0.00  0.00    +0.000 A 
ATOM     15 BR   UNL     1       4.522   7.137  17.242  0.00  0.00    +0.000 Br
ATOM     16  H   UNL     1       7.084   2.985  18.164  0.00  0.00    +0.000 HD
ENDBRANCH   6   9
BRANCH   1  17
ATOM     17  O   UNL     1       1.194   3.940  19.165  0.00  0.00    +0.000 OA
BRANCH  17  19
ATOM     18  C   UNL     1       1.585   5.896  20.506  0.00  0.00    +0.000 C 
ATOM     19  C   UNL     1       0.947   4.522  20.443  0.00  0.00    +0.000 C 
ENDBRANCH  17  19
ENDBRANCH   1  17
TORSDOF 3
ENDMDL
MODEL 6
REMARK VINA RESULT:      -6.3      3.043      4.558
REMARK  Name = 
REMARK  5 active torsions:
REMARK  status: ('A' for Active; 'I' for Inactive)
REMARK    1  A    between atoms: C_1  and  C_2
REMARK    2  A    between atoms: C_2  and  O_3
REMARK    3  A    between atoms: O_3  and  C_4
REMARK    4  A    between atoms: C_9  and  C_11
REMARK    5  A    between atoms: C_14  and  C_15
REMARK                            x       y       z     vdW  Elec       q    Type
REMARK                         _______ _______ _______ _____ _____    ______ ____
ROOT
ATOM      1  C   UNL     1       3.487   2.486  18.062  0.00  0.00    +0.000 C 
ATOM      2  C   UNL     1       2.052   1.944  18.153  0.00  0.00    +0.000 C 
ATOM      3  C   UNL     1       1.077   3.059  18.518  0.00  0.00    +0.000 C 
ATOM      4  C   UNL     1       1.501   3.763  19.799  0.00  0.00    +0.000 C 
ATOM      5  N   UNL     1       2.895   4.212  19.756  0.00  0.00    +0.000 N 
ATOM      6  C   UNL     1       3.383   5.524  19.809  0.00  0.00    +0.000 C 
ATOM      7  O   UNL     1       4.598   5.726  19.685  0.00  0.00    +0.000 OA
ATOM      8  C   UNL     1       3.847   3.139  19.417  0.00  0.00    +0.000 C 
ENDROOT
BRANCH   6   9
ATOM      9  C   UNL     1       2.494   6.643  20.024  0.00  0.00    +0.000 A 
ATOM     10  N   UNL     1       1.810   6.947  21.170  0.00  0.00    +0.000 N 
ATOM     11  N   UNL     1       1.032   8.037  21.101  0.00  0.00    +0.000 NA
ATOM     12  C   UNL     1       1.326   8.556  19.906  0.00  0.00    +0.000 A 
ATOM     13  C   UNL     1       0.735   9.855  19.500  0.00  0.00    +0.000 C 
ATOM     14  C   UNL     1       2.234   7.732  19.211  0.00  0.00    +0.000 A 
ATOM     15 BR   UNL     1       2.925   8.121  17.507  0.00  0.00    +0.000 Br
ATOM     16  H   UNL     1       1.827   6.453  22.053  0.00  0.00    +0.000 HD
ENDBRANCH   6   9
BRANCH   1  17
ATOM     17  O   UNL     1       3.538   3.417  16.967  0.00  0.00    +0.000 OA
BRANCH  17  19
ATOM     18  C   UNL     1       4.933   5.231  16.230  0.00  0.00    +0.000 C 
ATOM     19  C   UNL     1       4.864   3.753  16.562  0.00  0.00    +0.000 C 
ENDBRANCH  17  19
ENDBRANCH   1  17
TORSDOF 3
ENDMDL
MODEL 7
REMARK VINA RESULT:      -6.2      1.266      1.266
REMARK  Name = 
REMARK  5 active torsions:
REMARK  status: ('A' for Active; 'I' for Inactive)
REMARK    1  A    between atoms: C_1  and  C_2
REMARK    2  A    between atoms: C_2  and  O_3
REMARK    3  A    between atoms: O_3  and  C_4
REMARK    4  A    between atoms: C_9  and  C_11
REMARK    5  A    between atoms: C_14  and  C_15
REMARK                            x       y       z     vdW  Elec       q    Type
REMARK                         _______ _______ _______ _____ _____    ______ ____
ROOT
ATOM      1  C   UNL     1       7.477   5.700  16.222  0.00  0.00    +0.000 C 
ATOM      2  C   UNL     1       7.117   5.012  14.895  0.00  0.00    +0.000 C 
ATOM      3  C   UNL     1       5.669   4.534  14.914  0.00  0.00    +0.000 C 
ATOM      4  C   UNL     1       5.403   3.632  16.113  0.00  0.00    +0.000 C 
ATOM      5  N   UNL     1       5.821   4.244  17.377  0.00  0.00    +0.000 N 
ATOM      6  C   UNL     1       5.020   4.602  18.469  0.00  0.00    +0.000 C 
ATOM      7  O   UNL     1       5.536   5.181  19.435  0.00  0.00    +0.000 OA
ATOM      8  C   UNL     1       7.222   4.700  17.373  0.00  0.00    +0.000 C 
ENDROOT
BRANCH   6   9
ATOM      9  C   UNL     1       3.609   4.291  18.496  0.00  0.00    +0.000 A 
ATOM     10  N   UNL     1       2.651   4.728  17.621  0.00  0.00    +0.000 N 
ATOM     11  N   UNL     1       1.405   4.307  17.881  0.00  0.00    +0.000 NA
ATOM     12  C   UNL     1       1.569   3.440  18.884  0.00  0.00    +0.000 A 
ATOM     13  C   UNL     1       0.408   2.667  19.389  0.00  0.00    +0.000 C 
ATOM     14  C   UNL     1       2.919   3.392  19.288  0.00  0.00    +0.000 A 
ATOM     15 BR   UNL     1       3.576   2.275  20.649  0.00  0.00    +0.000 Br
ATOM     16  H   UNL     1       2.774   5.319  16.809  0.00  0.00    +0.000 HD
ENDBRANCH   6   9
BRANCH   1  17
ATOM     17  O   UNL     1       6.678   6.890  16.334  0.00  0.00    +0.000 OA
BRANCH  17  19
ATOM     18  C   UNL     1       8.047   8.427  17.577  0.00  0.00    +0.000 C 
ATOM     19  C   UNL     1       6.809   7.551  17.591  0.00  0.00    +0.000 C 
ENDBRANCH  17  19
ENDBRANCH   1  17
TORSDOF 3
ENDMDL
MODEL 8
REMARK VINA RESULT:      -6.1      2.505      5.997
REMARK  Name = 
REMARK  5 active torsions:
REMARK  status: ('A' for Active; 'I' for Inactive)
REMARK    1  A    between atoms: C_1  and  C_2
REMARK    2  A    between atoms: C_2  and  O_3
REMARK    3  A    between atoms: O_3  and  C_4
REMARK    4  A    between atoms: C_9  and  C_11
REMARK    5  A    between atoms: C_14  and  C_15
REMARK                            x       y       z     vdW  Elec       q    Type
REMARK                         _______ _______ _______ _____ _____    ______ ____
ROOT
ATOM      1  C   UNL     1       2.478   4.423  20.234  0.00  0.00    +0.000 C 
ATOM      2  C   UNL     1       1.406   4.966  19.276  0.00  0.00    +0.000 C 
ATOM      3  C   UNL     1       1.916   4.959  17.839  0.00  0.00    +0.000 C 
ATOM      4  C   UNL     1       3.227   5.724  17.717  0.00  0.00    +0.000 C 
ATOM      5  N   UNL     1       4.231   5.271  18.683  0.00  0.00    +0.000 N 
ATOM      6  C   UNL     1       5.471   4.673  18.425  0.00  0.00    +0.000 C 
ATOM      7  O   UNL     1       6.166   4.284  19.372  0.00  0.00    +0.000 OA
ATOM      8  C   UNL     1       3.752   5.285  20.077  0.00  0.00    +0.000 C 
ENDROOT
BRANCH   6   9
ATOM      9  C   UNL     1       5.959   4.518  17.073  0.00  0.00    +0.000 A 
ATOM     10  N   UNL     1       5.647   3.518  16.192  0.00  0.00    +0.000 N 
ATOM     11  N   UNL     1       6.255   3.597  14.999  0.00  0.00    +0.000 NA
ATOM     12  C   UNL     1       6.880   4.776  15.043  0.00  0.00    +0.000 A 
ATOM     13  C   UNL     1       7.590   5.281  13.842  0.00  0.00    +0.000 C 
ATOM     14  C   UNL     1       6.715   5.384  16.304  0.00  0.00    +0.000 A 
ATOM     15 BR   UNL     1       7.413   7.066  16.767  0.00  0.00    +0.000 Br
ATOM     16  H   UNL     1       5.017   2.739  16.333  0.00  0.00    +0.000 HD
ENDBRANCH   6   9
BRANCH   1  17
ATOM     17  O   UNL     1       2.701   3.039  19.910  0.00  0.00    +0.000 OA
BRANCH  17  19
ATOM     18  C   UNL     1       1.453   2.417  21.867  0.00  0.00    +0.000 C 
ATOM     19  C   UNL     1       1.680   2.167  20.389  0.00  0.00    +0.000 C 
ENDBRANCH  17  19
ENDBRANCH   1  17
TORSDOF 3
ENDMDL
MODEL 9
REMARK VINA RESULT:      -6.1      2.460      5.799
REMARK  Name = 
REMARK  5 active torsions:
REMARK  status: ('A' for Active; 'I' for Inactive)
REMARK    1  A    between atoms: C_1  and  C_2
REMARK    2  A    between atoms: C_2  and  O_3
REMARK    3  A    between atoms: O_3  and  C_4
REMARK    4  A    between atoms: C_9  and  C_11
REMARK    5  A    between atoms: C_14  and  C_15
REMARK                            x       y       z     vdW  Elec       q    Type
REMARK                         _______ _______ _______ _____ _____    ______ ____
ROOT
ATOM      1  C   UNL     1       2.211   3.816  20.369  0.00  0.00    +0.000 C 
ATOM      2  C   UNL     1       1.073   3.988  19.351  0.00  0.00    +0.000 C 
ATOM      3  C   UNL     1       1.618   3.978  17.927  0.00  0.00    +0.000 C 
ATOM      4  C   UNL     1       2.705   5.029  17.747  0.00  0.00    +0.000 C 
ATOM      5  N   UNL     1       3.755   4.928  18.764  0.00  0.00    +0.000 N 
ATOM      6  C   UNL     1       5.112   4.635  18.578  0.00  0.00    +0.000 C 
ATOM      7  O   UNL     1       5.849   4.517  19.566  0.00  0.00    +0.000 OA
ATOM      8  C   UNL     1       3.239   4.949  20.144  0.00  0.00    +0.000 C 
ENDROOT
BRANCH   6   9
ATOM      9  C   UNL     1       5.670   4.485  17.253  0.00  0.00    +0.000 A 
ATOM     10  N   UNL     1       5.365   3.518  16.333  0.00  0.00    +0.000 N 
ATOM     11  N   UNL     1       6.043   3.592  15.179  0.00  0.00    +0.000 NA
ATOM     12  C   UNL     1       6.718   4.740  15.285  0.00  0.00    +0.000 A 
ATOM     13  C   UNL     1       7.519   5.235  14.137  0.00  0.00    +0.000 C 
ATOM     14  C   UNL     1       6.508   5.329  16.548  0.00  0.00    +0.000 A 
ATOM     15 BR   UNL     1       7.254   6.968  17.088  0.00  0.00    +0.000 Br
ATOM     16  H   UNL     1       4.692   2.767  16.421  0.00  0.00    +0.000 HD
ENDBRANCH   6   9
BRANCH   1  17
ATOM     17  O   UNL     1       2.778   2.507  20.181  0.00  0.00    +0.000 OA
BRANCH  17  19
ATOM     18  C   UNL     1       4.911   1.448  20.504  0.00  0.00    +0.000 C 
ATOM     19  C   UNL     1       3.746   2.156  21.168  0.00  0.00    +0.000 C 
ENDBRANCH  17  19
ENDBRANCH   1  17
TORSDOF 3
ENDMDL
