MODEL 1
REMARK VINA RESULT:      -8.0      0.000      0.000
REMARK  Name = 
REMARK  5 active torsions:
REMARK  status: ('A' for Active; 'I' for Inactive)
REMARK    1  A    between atoms: C_1  and  C_2
REMARK    2  A    between atoms: N_12  and  C_13
REMARK    3  A    between atoms: C_13  and  C_14
REMARK    4  A    between atoms: N_16  and  C_17
REMARK    5  A    between atoms: C_20  and  C_21
REMARK                            x       y       z     vdW  Elec       q    Type
REMARK                         _______ _______ _______ _____ _____    ______ ____
ROOT
ATOM      1  C   UNL     1       8.036   8.336  17.471  0.00  0.00    +0.000 C 
ATOM      2  C   UNL     1       7.335   7.048  17.799  0.00  0.00    +0.000 A 
ATOM      3  C   UNL     1       8.069   5.891  18.094  0.00  0.00    +0.000 A 
ATOM      4  C   UNL     1       7.411   4.707  18.411  0.00  0.00    +0.000 A 
ATOM      5  C   UNL     1       6.019   4.696  18.438  0.00  0.00    +0.000 A 
ATOM      6  O   UNL     1       5.421   3.448  18.785  0.00  0.00    +0.000 OA
ATOM      7  C   UNL     1       4.026   3.267  18.862  0.00  0.00    +0.000 A 
ATOM      8  O   UNL     1       3.534   2.190  19.168  0.00  0.00    +0.000 OA
ATOM      9  C   UNL     1       3.244   4.436  18.549  0.00  0.00    +0.000 A 
ATOM     10  C   UNL     1       1.859   4.625  18.521  0.00  0.00    +0.000 A 
ATOM     11  N   UNL     1       1.537   5.863  18.147  0.00  0.00    +0.000 NA
ATOM     12  N   UNL     1       2.730   6.493  18.003  0.00  0.00    +0.000 N 
ATOM     13  C   UNL     1       3.802   5.655  18.206  0.00  0.00    +0.000 A 
ATOM     14  C   UNL     1       5.247   5.836  18.142  0.00  0.00    +0.000 A 
ATOM     15  C   UNL     1       5.924   7.010  17.817  0.00  0.00    +0.000 A 
ENDROOT
BRANCH  12  16
ATOM     16  C   UNL     1       2.685   7.916  17.741  0.00  0.00    +0.000 C 
BRANCH  16  17
ATOM     17  C   UNL     1       1.569   8.642  18.453  0.00  0.00    +0.000 C 
ATOM     18  O   UNL     1       0.778   9.330  17.809  0.00  0.00    +0.000 OA
ATOM     19  N   UNL     1       1.540   8.588  19.836  0.00  0.00    +0.000 N 
ATOM     20  H   UNL     1       2.149   7.934  20.327  0.00  0.00    +0.000 HD
BRANCH  19  21
ATOM     21  C   UNL     1       0.548   9.351  20.579  0.00  0.00    +0.000 C 
ATOM     22  C   UNL     1       0.682  10.867  20.399  0.00  0.00    +0.000 C 
ATOM     23  C   UNL     1      -0.492  11.581  21.079  0.00  0.00    +0.000 C 
ATOM     24  C   UNL     1      -0.614  11.214  22.567  0.00  0.00    +0.000 C 
ATOM     25  C   UNL     1      -1.878  11.828  23.174  0.00  0.00    +0.000 C 
ATOM     26  C   UNL     1      -0.610   9.694  22.781  0.00  0.00    +0.000 C 
ATOM     27  C   UNL     1       0.565   9.015  22.076  0.00  0.00    +0.000 C 
ENDBRANCH  19  21
ENDBRANCH  16  17
ENDBRANCH  12  16
TORSDOF 3
ENDMDL
MODEL 2
REMARK VINA RESULT:      -7.9      2.813      3.598
REMARK  Name = 
REMARK  5 active torsions:
REMARK  status: ('A' for Active; 'I' for Inactive)
REMARK    1  A    between atoms: C_1  and  C_2
REMARK    2  A    between atoms: N_12  and  C_13
REMARK    3  A    between atoms: C_13  and  C_14
REMARK    4  A    between atoms: N_16  and  C_17
REMARK    5  A    between atoms: C_20  and  C_21
REMARK                            x       y       z     vdW  Elec       q    Type
REMARK                         _______ _______ _______ _____ _____    ______ ____
ROOT
ATOM      1  C   UNL     1       5.571   5.776  15.000  0.00  0.00    +0.000 C 
ATOM      2  C   UNL     1       4.939   5.256  16.260  0.00  0.00    +0.000 A 
ATOM      3  C   UNL     1       5.153   3.933  16.672  0.00  0.00    +0.000 A 
ATOM      4  C   UNL     1       4.576   3.466  17.849  0.00  0.00    +0.000 A 
ATOM      5  C   UNL     1       3.794   4.334  18.608  0.00  0.00    +0.000 A 
ATOM      6  O   UNL     1       3.250   3.782  19.806  0.00  0.00    +0.000 OA
ATOM      7  C   UNL     1       2.442   4.526  20.688  0.00  0.00    +0.000 A 
ATOM      8  O   UNL     1       1.991   4.036  21.713  0.00  0.00    +0.000 OA
ATOM      9  C   UNL     1       2.192   5.886  20.282  0.00  0.00    +0.000 A 
ATOM     10  C   UNL     1       1.447   6.898  20.896  0.00  0.00    +0.000 A 
ATOM     11  N   UNL     1       1.442   8.016  20.170  0.00  0.00    +0.000 NA
ATOM     12  N   UNL     1       2.249   7.739  19.116  0.00  0.00    +0.000 N 
ATOM     13  C   UNL     1       2.706   6.441  19.123  0.00  0.00    +0.000 A 
ATOM     14  C   UNL     1       3.552   5.667  18.223  0.00  0.00    +0.000 A 
ATOM     15  C   UNL     1       4.131   6.113  17.036  0.00  0.00    +0.000 A 
ENDROOT
BRANCH  12  16
ATOM     16  C   UNL     1       2.551   8.837  18.224  0.00  0.00    +0.000 C 
BRANCH  16  17
ATOM     17  C   UNL     1       1.400   9.787  17.999  0.00  0.00    +0.000 C 
ATOM     18  O   UNL     1       1.548  10.989  18.217  0.00  0.00    +0.000 OA
ATOM     19  N   UNL     1       0.173   9.248  17.652  0.00  0.00    +0.000 N 
ATOM     20  H   UNL     1       0.112   8.265  17.388  0.00  0.00    +0.000 HD
BRANCH  19  21
ATOM     21  C   UNL     1      -0.995  10.107  17.522  0.00  0.00    +0.000 C 
ATOM     22  C   UNL     1      -1.724  10.350  18.847  0.00  0.00    +0.000 C 
ATOM     23  C   UNL     1      -2.836  11.388  18.650  0.00  0.00    +0.000 C 
ATOM     24  C   UNL     1      -3.825  10.978  17.546  0.00  0.00    +0.000 C 
ATOM     25  C   UNL     1      -4.831  12.099  17.277  0.00  0.00    +0.000 C 
ATOM     26  C   UNL     1      -3.102  10.594  16.247  0.00  0.00    +0.000 C 
ATOM     27  C   UNL     1      -1.991   9.572  16.485  0.00  0.00    +0.000 C 
ENDBRANCH  19  21
ENDBRANCH  16  17
ENDBRANCH  12  16
TORSDOF 3
ENDMDL
MODEL 3
REMARK VINA RESULT:      -7.9      0.745      1.179
REMARK  Name = 
REMARK  5 active torsions:
REMARK  status: ('A' for Active; 'I' for Inactive)
REMARK    1  A    between atoms: C_1  and  C_2
REMARK    2  A    between atoms: N_12  and  C_13
REMARK    3  A    between atoms: C_13  and  C_14
REMARK    4  A    between atoms: N_16  and  C_17
REMARK    5  A    between atoms: C_20  and  C_21
REMARK                            x       y       z     vdW  Elec       q    Type
REMARK                         _______ _______ _______ _____ _____    ______ ____
ROOT
ATOM      1  C   UNL     1       8.103   8.514  17.462  0.00  0.00    +0.000 C 
ATOM      2  C   UNL     1       7.449   7.269  17.992  0.00  0.00    +0.000 A 
ATOM      3  C   UNL     1       8.210   6.284  18.637  0.00  0.00    +0.000 A 
ATOM      4  C   UNL     1       7.594   5.141  19.137  0.00  0.00    +0.000 A 
ATOM      5  C   UNL     1       6.216   4.999  18.992  0.00  0.00    +0.000 A 
ATOM      6  O   UNL     1       5.660   3.807  19.544  0.00  0.00    +0.000 OA
ATOM      7  C   UNL     1       4.283   3.512  19.486  0.00  0.00    +0.000 A 
ATOM      8  O   UNL     1       3.825   2.487  19.971  0.00  0.00    +0.000 OA
ATOM      9  C   UNL     1       3.478   4.501  18.815  0.00  0.00    +0.000 A 
ATOM     10  C   UNL     1       2.101   4.541  18.571  0.00  0.00    +0.000 A 
ATOM     11  N   UNL     1       1.755   5.629  17.882  0.00  0.00    +0.000 NA
ATOM     12  N   UNL     1       2.910   6.325  17.744  0.00  0.00    +0.000 N 
ATOM     13  C   UNL     1       3.996   5.662  18.269  0.00  0.00    +0.000 A 
ATOM     14  C   UNL     1       5.420   5.965  18.345  0.00  0.00    +0.000 A 
ATOM     15  C   UNL     1       6.057   7.098  17.843  0.00  0.00    +0.000 A 
ENDROOT
BRANCH  12  16
ATOM     16  C   UNL     1       2.808   7.642  17.154  0.00  0.00    +0.000 C 
BRANCH  16  17
ATOM     17  C   UNL     1       2.169   8.674  18.051  0.00  0.00    +0.000 C 
ATOM     18  O   UNL     1       2.243   9.868  17.760  0.00  0.00    +0.000 OA
ATOM     19  N   UNL     1       1.604   8.240  19.238  0.00  0.00    +0.000 N 
ATOM     20  H   UNL     1       1.476   7.242  19.399  0.00  0.00    +0.000 HD
BRANCH  19  21
ATOM     21  C   UNL     1       1.064   9.202  20.188  0.00  0.00    +0.000 C 
ATOM     22  C   UNL     1       0.915   8.644  21.607  0.00  0.00    +0.000 C 
ATOM     23  C   UNL     1       0.498   9.762  22.569  0.00  0.00    +0.000 C 
ATOM     24  C   UNL     1      -0.793  10.465  22.119  0.00  0.00    +0.000 C 
ATOM     25  C   UNL     1      -1.098  11.665  23.018  0.00  0.00    +0.000 C 
ATOM     26  C   UNL     1      -0.717  10.911  20.651  0.00  0.00    +0.000 C 
ATOM     27  C   UNL     1      -0.282   9.776  19.725  0.00  0.00    +0.000 C 
ENDBRANCH  19  21
ENDBRANCH  16  17
ENDBRANCH  12  16
TORSDOF 3
ENDMDL
MODEL 4
REMARK VINA RESULT:      -7.7      3.252      8.927
REMARK  Name = 
REMARK  5 active torsions:
REMARK  status: ('A' for Active; 'I' for Inactive)
REMARK    1  A    between atoms: C_1  and  C_2
REMARK    2  A    between atoms: N_12  and  C_13
REMARK    3  A    between atoms: C_13  and  C_14
REMARK    4  A    between atoms: N_16  and  C_17
REMARK    5  A    between atoms: C_20  and  C_21
REMARK                            x       y       z     vdW  Elec       q    Type
REMARK                         _______ _______ _______ _____ _____    ______ ____
ROOT
ATOM      1  C   UNL     1      -2.934   9.693  14.944  0.00  0.00    +0.000 C 
ATOM      2  C   UNL     1      -3.025  10.411  16.261  0.00  0.00    +0.000 A 
ATOM      3  C   UNL     1      -4.235  10.983  16.679  0.00  0.00    +0.000 A 
ATOM      4  C   UNL     1      -4.313  11.631  17.907  0.00  0.00    +0.000 A 
ATOM      5  C   UNL     1      -3.177  11.695  18.710  0.00  0.00    +0.000 A 
ATOM      6  O   UNL     1      -3.343  12.366  19.958  0.00  0.00    +0.000 OA
ATOM      7  C   UNL     1      -2.296  12.514  20.889  0.00  0.00    +0.000 A 
ATOM      8  O   UNL     1      -2.460  13.087  21.957  0.00  0.00    +0.000 OA
ATOM      9  C   UNL     1      -1.035  11.949  20.478  0.00  0.00    +0.000 A 
ATOM     10  C   UNL     1       0.201  11.909  21.132  0.00  0.00    +0.000 A 
ATOM     11  N   UNL     1       1.133  11.313  20.387  0.00  0.00    +0.000 NA
ATOM     12  N   UNL     1       0.470  10.906  19.277  0.00  0.00    +0.000 N 
ATOM     13  C   UNL     1      -0.849  11.298  19.272  0.00  0.00    +0.000 A 
ATOM     14  C   UNL     1      -1.943  11.138  18.321  0.00  0.00    +0.000 A 
ATOM     15  C   UNL     1      -1.882  10.500  17.083  0.00  0.00    +0.000 A 
ENDROOT
BRANCH  12  16
ATOM     16  C   UNL     1       1.211  10.086  18.342  0.00  0.00    +0.000 C 
BRANCH  16  17
ATOM     17  C   UNL     1       1.608   8.734  18.884  0.00  0.00    +0.000 C 
ATOM     18  O   UNL     1       1.450   8.483  20.078  0.00  0.00    +0.000 OA
ATOM     19  N   UNL     1       2.240   7.853  18.024  0.00  0.00    +0.000 N 
ATOM     20  H   UNL     1       2.267   8.056  17.025  0.00  0.00    +0.000 HD
BRANCH  19  21
ATOM     21  C   UNL     1       2.735   6.576  18.517  0.00  0.00    +0.000 C 
ATOM     22  C   UNL     1       4.213   6.327  18.195  0.00  0.00    +0.000 C 
ATOM     23  C   UNL     1       4.691   5.045  18.886  0.00  0.00    +0.000 C 
ATOM     24  C   UNL     1       3.835   3.826  18.508  0.00  0.00    +0.000 C 
ATOM     25  C   UNL     1       4.248   2.600  19.326  0.00  0.00    +0.000 C 
ATOM     26  C   UNL     1       2.336   4.103  18.693  0.00  0.00    +0.000 C 
ATOM     27  C   UNL     1       1.899   5.396  18.004  0.00  0.00    +0.000 C 
ENDBRANCH  19  21
ENDBRANCH  16  17
ENDBRANCH  12  16
TORSDOF 3
ENDMDL
MODEL 5
REMARK VINA RESULT:      -7.7      1.688      1.901
REMARK  Name = 
REMARK  5 active torsions:
REMARK  status: ('A' for Active; 'I' for Inactive)
REMARK    1  A    between atoms: C_1  and  C_2
REMARK    2  A    between atoms: N_12  and  C_13
REMARK    3  A    between atoms: C_13  and  C_14
REMARK    4  A    between atoms: N_16  and  C_17
REMARK    5  A    between atoms: C_20  and  C_21
REMARK                            x       y       z     vdW  Elec       q    Type
REMARK                         _______ _______ _______ _____ _____    ______ ____
ROOT
ATOM      1  C   UNL     1       7.947   8.774  17.524  0.00  0.00    +0.000 C 
ATOM      2  C   UNL     1       7.373   7.463  17.982  0.00  0.00    +0.000 A 
ATOM      3  C   UNL     1       8.204   6.468  18.515  0.00  0.00    +0.000 A 
ATOM      4  C   UNL     1       7.661   5.263  18.951  0.00  0.00    +0.000 A 
ATOM      5  C   UNL     1       6.286   5.069  18.853  0.00  0.00    +0.000 A 
ATOM      6  O   UNL     1       5.807   3.813  19.333  0.00  0.00    +0.000 OA
ATOM      7  C   UNL     1       4.444   3.460  19.311  0.00  0.00    +0.000 A 
ATOM      8  O   UNL     1       4.052   2.380  19.733  0.00  0.00    +0.000 OA
ATOM      9  C   UNL     1       3.566   4.458  18.753  0.00  0.00    +0.000 A 
ATOM     10  C   UNL     1       2.179   4.453  18.571  0.00  0.00    +0.000 A 
ATOM     11  N   UNL     1       1.755   5.572  17.984  0.00  0.00    +0.000 NA
ATOM     12  N   UNL     1       2.872   6.329  17.853  0.00  0.00    +0.000 N 
ATOM     13  C   UNL     1       4.008   5.680  18.278  0.00  0.00    +0.000 A 
ATOM     14  C   UNL     1       5.420   6.042  18.317  0.00  0.00    +0.000 A 
ATOM     15  C   UNL     1       5.984   7.239  17.878  0.00  0.00    +0.000 A 
ENDROOT
BRANCH  12  16
ATOM     16  C   UNL     1       2.687   7.682  17.372  0.00  0.00    +0.000 C 
BRANCH  16  17
ATOM     17  C   UNL     1       1.855   8.553  18.281  0.00  0.00    +0.000 C 
ATOM     18  O   UNL     1       1.866   8.357  19.496  0.00  0.00    +0.000 OA
ATOM     19  N   UNL     1       1.018   9.487  17.695  0.00  0.00    +0.000 N 
ATOM     20  H   UNL     1       1.106   9.687  16.699  0.00  0.00    +0.000 HD
BRANCH  19  21
ATOM     21  C   UNL     1       0.119  10.285  18.517  0.00  0.00    +0.000 C 
ATOM     22  C   UNL     1      -1.265  10.486  17.890  0.00  0.00    +0.000 C 
ATOM     23  C   UNL     1      -2.193  11.191  18.886  0.00  0.00    +0.000 C 
ATOM     24  C   UNL     1      -1.613  12.528  19.376  0.00  0.00    +0.000 C 
ATOM     25  C   UNL     1      -2.493  13.130  20.475  0.00  0.00    +0.000 C 
ATOM     26  C   UNL     1      -0.171  12.373  19.881  0.00  0.00    +0.000 C 
ATOM     27  C   UNL     1       0.720  11.651  18.869  0.00  0.00    +0.000 C 
ENDBRANCH  19  21
ENDBRANCH  16  17
ENDBRANCH  12  16
TORSDOF 3
ENDMDL
MODEL 6
REMARK VINA RESULT:      -7.6      2.386      4.248
REMARK  Name = 
REMARK  5 active torsions:
REMARK  status: ('A' for Active; 'I' for Inactive)
REMARK    1  A    between atoms: C_1  and  C_2
REMARK    2  A    between atoms: N_12  and  C_13
REMARK    3  A    between atoms: C_13  and  C_14
REMARK    4  A    between atoms: N_16  and  C_17
REMARK    5  A    between atoms: C_20  and  C_21
REMARK                            x       y       z     vdW  Elec       q    Type
REMARK                         _______ _______ _______ _____ _____    ______ ____
ROOT
ATOM      1  C   UNL     1       1.648   2.642  22.020  0.00  0.00    +0.000 C 
ATOM      2  C   UNL     1       2.314   3.311  20.851  0.00  0.00    +0.000 A 
ATOM      3  C   UNL     1       3.131   2.576  19.980  0.00  0.00    +0.000 A 
ATOM      4  C   UNL     1       3.732   3.201  18.892  0.00  0.00    +0.000 A 
ATOM      5  C   UNL     1       3.502   4.558  18.682  0.00  0.00    +0.000 A 
ATOM      6  O   UNL     1       4.144   5.120  17.538  0.00  0.00    +0.000 OA
ATOM      7  C   UNL     1       4.011   6.476  17.181  0.00  0.00    +0.000 A 
ATOM      8  O   UNL     1       4.564   6.938  16.192  0.00  0.00    +0.000 OA
ATOM      9  C   UNL     1       3.189   7.261  18.068  0.00  0.00    +0.000 A 
ATOM     10  C   UNL     1       2.841   8.615  18.029  0.00  0.00    +0.000 A 
ATOM     11  N   UNL     1       2.078   8.958  19.066  0.00  0.00    +0.000 NA
ATOM     12  N   UNL     1       1.876   7.796  19.737  0.00  0.00    +0.000 N 
ATOM     13  C   UNL     1       2.561   6.738  19.184  0.00  0.00    +0.000 A 
ATOM     14  C   UNL     1       2.693   5.330  19.539  0.00  0.00    +0.000 A 
ATOM     15  C   UNL     1       2.107   4.688  20.628  0.00  0.00    +0.000 A 
ENDROOT
BRANCH  12  16
ATOM     16  C   UNL     1       0.947   7.839  20.845  0.00  0.00    +0.000 C 
BRANCH  16  17
ATOM     17  C   UNL     1       0.911   9.161  21.573  0.00  0.00    +0.000 C 
ATOM     18  O   UNL     1       1.469   9.274  22.664  0.00  0.00    +0.000 OA
ATOM     19  N   UNL     1       0.153  10.182  21.025  0.00  0.00    +0.000 N 
ATOM     20  H   UNL     1      -0.214  10.085  20.079  0.00  0.00    +0.000 HD
BRANCH  19  21
ATOM     21  C   UNL     1       0.001  11.444  21.735  0.00  0.00    +0.000 C 
ATOM     22  C   UNL     1      -1.392  11.639  22.342  0.00  0.00    +0.000 C 
ATOM     23  C   UNL     1      -1.415  12.908  23.203  0.00  0.00    +0.000 C 
ATOM     24  C   UNL     1      -0.980  14.154  22.414  0.00  0.00    +0.000 C 
ATOM     25  C   UNL     1      -0.874  15.370  23.338  0.00  0.00    +0.000 C 
ATOM     26  C   UNL     1       0.351  13.930  21.682  0.00  0.00    +0.000 C 
ATOM     27  C   UNL     1       0.342  12.649  20.848  0.00  0.00    +0.000 C 
ENDBRANCH  19  21
ENDBRANCH  16  17
ENDBRANCH  12  16
TORSDOF 3
ENDMDL
MODEL 7
REMARK VINA RESULT:      -7.6      1.537      1.634
REMARK  Name = 
REMARK  5 active torsions:
REMARK  status: ('A' for Active; 'I' for Inactive)
REMARK    1  A    between atoms: C_1  and  C_2
REMARK    2  A    between atoms: N_12  and  C_13
REMARK    3  A    between atoms: C_13  and  C_14
REMARK    4  A    between atoms: N_16  and  C_17
REMARK    5  A    between atoms: C_20  and  C_21
REMARK                            x       y       z     vdW  Elec       q    Type
REMARK                         _______ _______ _______ _____ _____    ______ ____
ROOT
ATOM      1  C   UNL     1       7.453   7.530  17.441  0.00  0.00    +0.000 C 
ATOM      2  C   UNL     1       6.535   6.353  17.266  0.00  0.00    +0.000 A 
ATOM      3  C   UNL     1       6.862   5.319  16.377  0.00  0.00    +0.000 A 
ATOM      4  C   UNL     1       6.013   4.226  16.233  0.00  0.00    +0.000 A 
ATOM      5  C   UNL     1       4.844   4.176  16.989  0.00  0.00    +0.000 A 
ATOM      6  O   UNL     1       4.036   3.017  16.793  0.00  0.00    +0.000 OA
ATOM      7  C   UNL     1       2.825   2.809  17.482  0.00  0.00    +0.000 A 
ATOM      8  O   UNL     1       2.149   1.805  17.304  0.00  0.00    +0.000 OA
ATOM      9  C   UNL     1       2.455   3.863  18.392  0.00  0.00    +0.000 A 
ATOM     10  C   UNL     1       1.341   3.996  19.227  0.00  0.00    +0.000 A 
ATOM     11  N   UNL     1       1.360   5.151  19.894  0.00  0.00    +0.000 NA
ATOM     12  N   UNL     1       2.532   5.729  19.534  0.00  0.00    +0.000 N 
ATOM     13  C   UNL     1       3.221   4.997  18.595  0.00  0.00    +0.000 A 
ATOM     14  C   UNL     1       4.479   5.198  17.887  0.00  0.00    +0.000 A 
ATOM     15  C   UNL     1       5.338   6.288  18.010  0.00  0.00    +0.000 A 
ENDROOT
BRANCH  12  16
ATOM     16  C   UNL     1       2.894   6.947  20.228  0.00  0.00    +0.000 C 
BRANCH  16  17
ATOM     17  C   UNL     1       1.787   7.970  20.302  0.00  0.00    +0.000 C 
ATOM     18  O   UNL     1       1.327   8.449  19.266  0.00  0.00    +0.000 OA
ATOM     19  N   UNL     1       1.398   8.414  21.554  0.00  0.00    +0.000 N 
ATOM     20  H   UNL     1       1.731   7.929  22.386  0.00  0.00    +0.000 HD
BRANCH  19  21
ATOM     21  C   UNL     1       0.408   9.473  21.681  0.00  0.00    +0.000 C 
ATOM     22  C   UNL     1       0.895  10.831  21.165  0.00  0.00    +0.000 C 
ATOM     23  C   UNL     1      -0.257  11.843  21.185  0.00  0.00    +0.000 C 
ATOM     24  C   UNL     1      -0.887  11.980  22.581  0.00  0.00    +0.000 C 
ATOM     25  C   UNL     1      -2.122  12.883  22.531  0.00  0.00    +0.000 C 
ATOM     26  C   UNL     1      -1.257  10.613  23.176  0.00  0.00    +0.000 C 
ATOM     27  C   UNL     1      -0.090   9.627  23.124  0.00  0.00    +0.000 C 
ENDBRANCH  19  21
ENDBRANCH  16  17
ENDBRANCH  12  16
TORSDOF 3
ENDMDL
MODEL 8
REMARK VINA RESULT:      -7.5      1.599      3.735
REMARK  Name = 
REMARK  5 active torsions:
REMARK  status: ('A' for Active; 'I' for Inactive)
REMARK    1  A    between atoms: C_1  and  C_2
REMARK    2  A    between atoms: N_12  and  C_13
REMARK    3  A    between atoms: C_13  and  C_14
REMARK    4  A    between atoms: N_16  and  C_17
REMARK    5  A    between atoms: C_20  and  C_21
REMARK                            x       y       z     vdW  Elec       q    Type
REMARK                         _______ _______ _______ _____ _____    ______ ____
ROOT
ATOM      1  C   UNL     1       0.823   3.162  20.760  0.00  0.00    +0.000 C 
ATOM      2  C   UNL     1       2.226   3.329  20.247  0.00  0.00    +0.000 A 
ATOM      3  C   UNL     1       3.203   2.360  20.515  0.00  0.00    +0.000 A 
ATOM      4  C   UNL     1       4.495   2.516  20.023  0.00  0.00    +0.000 A 
ATOM      5  C   UNL     1       4.794   3.641  19.259  0.00  0.00    +0.000 A 
ATOM      6  O   UNL     1       6.136   3.721  18.781  0.00  0.00    +0.000 OA
ATOM      7  C   UNL     1       6.601   4.790  17.991  0.00  0.00    +0.000 A 
ATOM      8  O   UNL     1       7.754   4.836  17.585  0.00  0.00    +0.000 OA
ATOM      9  C   UNL     1       5.621   5.810  17.712  0.00  0.00    +0.000 A 
ATOM     10  C   UNL     1       5.724   6.995  16.976  0.00  0.00    +0.000 A 
ATOM     11  N   UNL     1       4.581   7.682  16.986  0.00  0.00    +0.000 NA
ATOM     12  N   UNL     1       3.720   6.895  17.677  0.00  0.00    +0.000 N 
ATOM     13  C   UNL     1       4.316   5.756  18.168  0.00  0.00    +0.000 A 
ATOM     14  C   UNL     1       3.840   4.639  18.974  0.00  0.00    +0.000 A 
ATOM     15  C   UNL     1       2.555   4.468  19.483  0.00  0.00    +0.000 A 
ENDROOT
BRANCH  12  16
ATOM     16  C   UNL     1       2.339   7.327  17.722  0.00  0.00    +0.000 C 
BRANCH  16  17
ATOM     17  C   UNL     1       2.014   8.241  18.879  0.00  0.00    +0.000 C 
ATOM     18  O   UNL     1       2.160   7.841  20.034  0.00  0.00    +0.000 OA
ATOM     19  N   UNL     1       1.458   9.476  18.592  0.00  0.00    +0.000 N 
ATOM     20  H   UNL     1       1.442   9.809  17.629  0.00  0.00    +0.000 HD
BRANCH  19  21
ATOM     21  C   UNL     1       1.032  10.356  19.671  0.00  0.00    +0.000 C 
ATOM     22  C   UNL     1      -0.378  10.051  20.187  0.00  0.00    +0.000 C 
ATOM     23  C   UNL     1      -0.682  10.910  21.421  0.00  0.00    +0.000 C 
ATOM     24  C   UNL     1      -0.513  12.412  21.139  0.00  0.00    +0.000 C 
ATOM     25  C   UNL     1      -0.680  13.225  22.425  0.00  0.00    +0.000 C 
ATOM     26  C   UNL     1       0.844  12.722  20.491  0.00  0.00    +0.000 C 
ATOM     27  C   UNL     1       1.119  11.836  19.276  0.00  0.00    +0.000 C 
ENDBRANCH  19  21
ENDBRANCH  16  17
ENDBRANCH  12  16
TORSDOF 3
ENDMDL
MODEL 9
REMARK VINA RESULT:      -7.5      2.184      4.049
REMARK  Name = 
REMARK  5 active torsions:
REMARK  status: ('A' for Active; 'I' for Inactive)
REMARK    1  A    between atoms: C_1  and  C_2
REMARK    2  A    between atoms: N_12  and  C_13
REMARK    3  A    between atoms: C_13  and  C_14
REMARK    4  A    between atoms: N_16  and  C_17
REMARK    5  A    between atoms: C_20  and  C_21
REMARK                            x       y       z     vdW  Elec       q    Type
REMARK                         _______ _______ _______ _____ _____    ______ ____
ROOT
ATOM      1  C   UNL     1       1.149   2.929  21.243  0.00  0.00    +0.000 C 
ATOM      2  C   UNL     1       2.477   3.162  20.579  0.00  0.00    +0.000 A 
ATOM      3  C   UNL     1       3.531   2.255  20.754  0.00  0.00    +0.000 A 
ATOM      4  C   UNL     1       4.751   2.471  20.123  0.00  0.00    +0.000 A 
ATOM      5  C   UNL     1       4.903   3.596  19.315  0.00  0.00    +0.000 A 
ATOM      6  O   UNL     1       6.179   3.739  18.695  0.00  0.00    +0.000 OA
ATOM      7  C   UNL     1       6.496   4.816  17.844  0.00  0.00    +0.000 A 
ATOM      8  O   UNL     1       7.594   4.917  17.316  0.00  0.00    +0.000 OA
ATOM      9  C   UNL     1       5.435   5.775  17.658  0.00  0.00    +0.000 A 
ATOM     10  C   UNL     1       5.391   6.948  16.898  0.00  0.00    +0.000 A 
ATOM     11  N   UNL     1       4.219   7.572  17.022  0.00  0.00    +0.000 NA
ATOM     12  N   UNL     1       3.482   6.752  17.813  0.00  0.00    +0.000 N 
ATOM     13  C   UNL     1       4.192   5.659  18.253  0.00  0.00    +0.000 A 
ATOM     14  C   UNL     1       3.869   4.533  19.121  0.00  0.00    +0.000 A 
ATOM     15  C   UNL     1       2.657   4.302  19.769  0.00  0.00    +0.000 A 
ENDROOT
BRANCH  12  16
ATOM     16  C   UNL     1       2.093   7.109  18.000  0.00  0.00    +0.000 C 
BRANCH  16  17
ATOM     17  C   UNL     1       1.881   8.393  18.765  0.00  0.00    +0.000 C 
ATOM     18  O   UNL     1       1.815   8.370  19.994  0.00  0.00    +0.000 OA
ATOM     19  N   UNL     1       1.661   9.551  18.039  0.00  0.00    +0.000 N 
ATOM     20  H   UNL     1       1.818   9.551  17.032  0.00  0.00    +0.000 HD
BRANCH  19  21
ATOM     21  C   UNL     1       1.351  10.798  18.723  0.00  0.00    +0.000 C 
ATOM     22  C   UNL     1      -0.121  11.207  18.612  0.00  0.00    +0.000 C 
ATOM     23  C   UNL     1      -0.393  12.434  19.490  0.00  0.00    +0.000 C 
ATOM     24  C   UNL     1       0.532  13.613  19.145  0.00  0.00    +0.000 C 
ATOM     25  C   UNL     1       0.334  14.764  20.134  0.00  0.00    +0.000 C 
ATOM     26  C   UNL     1       2.008  13.190  19.115  0.00  0.00    +0.000 C 
ATOM     27  C   UNL     1       2.237  11.955  18.243  0.00  0.00    +0.000 C 
ENDBRANCH  19  21
ENDBRANCH  16  17
ENDBRANCH  12  16
TORSDOF 3
ENDMDL
