MODEL 1
REMARK VINA RESULT:      -7.7      0.000      0.000
REMARK  Name = 
REMARK  10 active torsions:
REMARK  status: ('A' for Active; 'I' for Inactive)
REMARK    1  A    between atoms: C_1  and  C_2
REMARK    2  A    between atoms: C_5  and  C_6
REMARK    3  A    between atoms: C_9  and  C_10
REMARK    4  A    between atoms: C_12  and  C_13
REMARK    5  A    between atoms: C_13  and  C_14
REMARK    6  A    between atoms: N_16  and  C_17
REMARK    7  A    between atoms: C_17  and  C_18
REMARK    8  A    between atoms: C_18  and  C_19
REMARK    9  A    between atoms: C_19  and  N_20
REMARK   10  A    between atoms: N_20  and  C_21
REMARK                            x       y       z     vdW  Elec       q    Type
REMARK                         _______ _______ _______ _____ _____    ______ ____
ROOT
ATOM      1  C   UNL     1       0.182  11.214  21.667  0.00  0.00    +0.000 C 
ATOM      2  O   UNL     1      -0.312  11.169  22.789  0.00  0.00    +0.000 OA
ATOM      3  N   UNL     1       0.968  10.191  21.170  0.00  0.00    +0.000 N 
ATOM      4  H   UNL     1       1.288  10.236  20.211  0.00  0.00    +0.000 HD
ENDROOT
BRANCH   1   5
ATOM      5  C   UNL     1      -0.069  12.359  20.690  0.00  0.00    +0.000 C 
BRANCH   5  17
ATOM      6  C   UNL     1      -2.681  14.002  21.502  0.00  0.00    +0.000 C 
ATOM      7  C   UNL     1      -2.510  12.999  20.423  0.00  0.00    +0.000 A 
ATOM      8  N   UNL     1      -3.551  12.668  19.615  0.00  0.00    +0.000 N 
ATOM      9  C   UNL     1      -3.197  11.730  18.682  0.00  0.00    +0.000 A 
ATOM     10  C   UNL     1      -4.004  11.149  17.687  0.00  0.00    +0.000 A 
ATOM     11  C   UNL     1      -5.456  11.474  17.473  0.00  0.00    +0.000 C 
ATOM     12  C   UNL     1      -3.393  10.218  16.848  0.00  0.00    +0.000 A 
ATOM     13  C   UNL     1      -2.056   9.887  17.007  0.00  0.00    +0.000 A 
ATOM     14  C   UNL     1      -1.246  10.456  18.019  0.00  0.00    +0.000 A 
ATOM     15  C   UNL     1       0.185   9.987  18.051  0.00  0.00    +0.000 C 
ATOM     16  C   UNL     1      -1.837  11.431  18.888  0.00  0.00    +0.000 A 
ATOM     17  C   UNL     1      -1.405  12.258  20.007  0.00  0.00    +0.000 A 
ATOM     18  H   UNL     1      -4.480  13.064  19.688  0.00  0.00    +0.000 HD
ENDBRANCH   5  17
ENDBRANCH   1   5
BRANCH   3  19
ATOM     19  C   UNL     1       1.301   9.030  21.978  0.00  0.00    +0.000 C 
BRANCH  19  20
ATOM     20  C   UNL     1       1.028   7.712  21.255  0.00  0.00    +0.000 C 
BRANCH  20  21
ATOM     21  C   UNL     1       1.990   7.515  20.086  0.00  0.00    +0.000 C 
BRANCH  21  22
ATOM     22  N   UNL     1       2.698   6.243  20.226  0.00  0.00    +0.000 N 
ATOM     23  H   UNL     1       2.993   6.072  21.185  0.00  0.00    +0.000 HD
BRANCH  22  24
ATOM     24  C   UNL     1       2.069   5.111  19.681  0.00  0.00    +0.000 A 
ATOM     25  C   UNL     1       1.501   4.165  20.541  0.00  0.00    +0.000 A 
ATOM     26  C   UNL     1       0.914   3.006  20.029  0.00  0.00    +0.000 A 
ATOM     27  C   UNL     1       0.938   2.805  18.662  0.00  0.00    +0.000 A 
ATOM     28  N   UNL     1       1.509   3.659  17.792  0.00  0.00    +0.000 NA
ATOM     29  C   UNL     1       2.074   4.771  18.323  0.00  0.00    +0.000 A 
ENDBRANCH  22  24
ENDBRANCH  21  22
ENDBRANCH  20  21
ENDBRANCH  19  20
ENDBRANCH   3  19
TORSDOF 7
ENDMDL
MODEL 2
REMARK VINA RESULT:      -7.5      4.708      7.586
REMARK  Name = 
REMARK  10 active torsions:
REMARK  status: ('A' for Active; 'I' for Inactive)
REMARK    1  A    between atoms: C_1  and  C_2
REMARK    2  A    between atoms: C_5  and  C_6
REMARK    3  A    between atoms: C_9  and  C_10
REMARK    4  A    between atoms: C_12  and  C_13
REMARK    5  A    between atoms: C_13  and  C_14
REMARK    6  A    between atoms: N_16  and  C_17
REMARK    7  A    between atoms: C_17  and  C_18
REMARK    8  A    between atoms: C_18  and  C_19
REMARK    9  A    between atoms: C_19  and  N_20
REMARK   10  A    between atoms: N_20  and  C_21
REMARK                            x       y       z     vdW  Elec       q    Type
REMARK                         _______ _______ _______ _____ _____    ______ ____
ROOT
ATOM      1  C   UNL     1       4.752   4.331  19.113  0.00  0.00    +0.000 C 
ATOM      2  O   UNL     1       5.228   3.267  19.497  0.00  0.00    +0.000 OA
ATOM      3  N   UNL     1       5.520   5.472  18.975  0.00  0.00    +0.000 N 
ATOM      4  H   UNL     1       5.102   6.304  18.581  0.00  0.00    +0.000 HD
ENDROOT
BRANCH   1   5
ATOM      5  C   UNL     1       3.294   4.488  18.692  0.00  0.00    +0.000 C 
BRANCH   5  17
ATOM      6  C   UNL     1       1.977   3.857  21.530  0.00  0.00    +0.000 C 
ATOM      7  C   UNL     1       1.987   5.131  20.771  0.00  0.00    +0.000 A 
ATOM      8  N   UNL     1       1.379   6.239  21.271  0.00  0.00    +0.000 N 
ATOM      9  C   UNL     1       1.498   7.312  20.428  0.00  0.00    +0.000 A 
ATOM     10  C   UNL     1       0.997   8.615  20.608  0.00  0.00    +0.000 A 
ATOM     11  C   UNL     1       0.212   9.066  21.807  0.00  0.00    +0.000 C 
ATOM     12  C   UNL     1       1.269   9.536  19.596  0.00  0.00    +0.000 A 
ATOM     13  C   UNL     1       1.990   9.166  18.472  0.00  0.00    +0.000 A 
ATOM     14  C   UNL     1       2.479   7.851  18.280  0.00  0.00    +0.000 A 
ATOM     15  C   UNL     1       3.244   7.618  17.003  0.00  0.00    +0.000 C 
ATOM     16  C   UNL     1       2.234   6.883  19.308  0.00  0.00    +0.000 A 
ATOM     17  C   UNL     1       2.548   5.479  19.543  0.00  0.00    +0.000 A 
ATOM     18  H   UNL     1       0.894   6.273  22.159  0.00  0.00    +0.000 HD
ENDBRANCH   5  17
ENDBRANCH   1   5
BRANCH   3  19
ATOM     19  C   UNL     1       6.928   5.485  19.336  0.00  0.00    +0.000 C 
BRANCH  19  20
ATOM     20  C   UNL     1       7.841   5.722  18.135  0.00  0.00    +0.000 C 
BRANCH  20  21
ATOM     21  C   UNL     1       7.457   4.822  16.964  0.00  0.00    +0.000 C 
BRANCH  21  22
ATOM     22  N   UNL     1       7.407   5.599  15.726  0.00  0.00    +0.000 N 
ATOM     23  H   UNL     1       8.245   6.161  15.592  0.00  0.00    +0.000 HD
BRANCH  22  24
ATOM     24  C   UNL     1       7.079   4.895  14.555  0.00  0.00    +0.000 A 
ATOM     25  C   UNL     1       7.735   5.212  13.361  0.00  0.00    +0.000 A 
ATOM     26  C   UNL     1       7.393   4.563  12.172  0.00  0.00    +0.000 A 
ATOM     27  C   UNL     1       6.375   3.629  12.201  0.00  0.00    +0.000 A 
ATOM     28  N   UNL     1       5.680   3.317  13.312  0.00  0.00    +0.000 NA
ATOM     29  C   UNL     1       6.035   3.969  14.446  0.00  0.00    +0.000 A 
ENDBRANCH  22  24
ENDBRANCH  21  22
ENDBRANCH  20  21
ENDBRANCH  19  20
ENDBRANCH   3  19
TORSDOF 7
ENDMDL
MODEL 3
REMARK VINA RESULT:      -7.5      6.831     10.668
REMARK  Name = 
REMARK  10 active torsions:
REMARK  status: ('A' for Active; 'I' for Inactive)
REMARK    1  A    between atoms: C_1  and  C_2
REMARK    2  A    between atoms: C_5  and  C_6
REMARK    3  A    between atoms: C_9  and  C_10
REMARK    4  A    between atoms: C_12  and  C_13
REMARK    5  A    between atoms: C_13  and  C_14
REMARK    6  A    between atoms: N_16  and  C_17
REMARK    7  A    between atoms: C_17  and  C_18
REMARK    8  A    between atoms: C_18  and  C_19
REMARK    9  A    between atoms: C_19  and  N_20
REMARK   10  A    between atoms: N_20  and  C_21
REMARK                            x       y       z     vdW  Elec       q    Type
REMARK                         _______ _______ _______ _____ _____    ______ ____
ROOT
ATOM      1  C   UNL     1       6.861   6.765  16.871  0.00  0.00    +0.000 C 
ATOM      2  O   UNL     1       7.742   5.911  16.900  0.00  0.00    +0.000 OA
ATOM      3  N   UNL     1       7.037   8.020  17.423  0.00  0.00    +0.000 N 
ATOM      4  H   UNL     1       6.314   8.717  17.306  0.00  0.00    +0.000 HD
ENDROOT
BRANCH   1   5
ATOM      5  C   UNL     1       5.520   6.556  16.176  0.00  0.00    +0.000 C 
BRANCH   5  17
ATOM      6  C   UNL     1       6.171   3.547  15.334  0.00  0.00    +0.000 C 
ATOM      7  C   UNL     1       5.122   4.050  16.254  0.00  0.00    +0.000 A 
ATOM      8  N   UNL     1       4.273   3.188  16.873  0.00  0.00    +0.000 N 
ATOM      9  C   UNL     1       3.381   3.841  17.682  0.00  0.00    +0.000 A 
ATOM     10  C   UNL     1       2.359   3.283  18.472  0.00  0.00    +0.000 A 
ATOM     11  C   UNL     1       2.061   1.813  18.563  0.00  0.00    +0.000 C 
ATOM     12  C   UNL     1       1.589   4.173  19.220  0.00  0.00    +0.000 A 
ATOM     13  C   UNL     1       1.827   5.538  19.168  0.00  0.00    +0.000 A 
ATOM     14  C   UNL     1       2.842   6.103  18.359  0.00  0.00    +0.000 A 
ATOM     15  C   UNL     1       2.967   7.603  18.421  0.00  0.00    +0.000 C 
ATOM     16  C   UNL     1       3.665   5.216  17.591  0.00  0.00    +0.000 A 
ATOM     17  C   UNL     1       4.791   5.338  16.674  0.00  0.00    +0.000 A 
ATOM     18  H   UNL     1       4.293   2.183  16.755  0.00  0.00    +0.000 HD
ENDBRANCH   5  17
ENDBRANCH   1   5
BRANCH   3  19
ATOM     19  C   UNL     1       8.261   8.375  18.122  0.00  0.00    +0.000 C 
BRANCH  19  20
ATOM     20  C   UNL     1       8.563   9.871  18.057  0.00  0.00    +0.000 C 
BRANCH  20  21
ATOM     21  C   UNL     1       9.183  10.365  19.361  0.00  0.00    +0.000 C 
BRANCH  21  22
ATOM     22  N   UNL     1      10.492  10.964  19.101  0.00  0.00    +0.000 N 
ATOM     23  H   UNL     1      11.101  10.340  18.574  0.00  0.00    +0.000 HD
BRANCH  22  24
ATOM     24  C   UNL     1      10.495  12.256  18.550  0.00  0.00    +0.000 A 
ATOM     25  C   UNL     1      11.206  12.494  17.370  0.00  0.00    +0.000 A 
ATOM     26  C   UNL     1      11.267  13.780  16.827  0.00  0.00    +0.000 A 
ATOM     27  C   UNL     1      10.636  14.809  17.500  0.00  0.00    +0.000 A 
ATOM     28  N   UNL     1       9.974  14.645  18.661  0.00  0.00    +0.000 NA
ATOM     29  C   UNL     1       9.939  13.386  19.162  0.00  0.00    +0.000 A 
ENDBRANCH  22  24
ENDBRANCH  21  22
ENDBRANCH  20  21
ENDBRANCH  19  20
ENDBRANCH   3  19
TORSDOF 7
ENDMDL
MODEL 4
REMARK VINA RESULT:      -7.5      6.729     10.220
REMARK  Name = 
REMARK  10 active torsions:
REMARK  status: ('A' for Active; 'I' for Inactive)
REMARK    1  A    between atoms: C_1  and  C_2
REMARK    2  A    between atoms: C_5  and  C_6
REMARK    3  A    between atoms: C_9  and  C_10
REMARK    4  A    between atoms: C_12  and  C_13
REMARK    5  A    between atoms: C_13  and  C_14
REMARK    6  A    between atoms: N_16  and  C_17
REMARK    7  A    between atoms: C_17  and  C_18
REMARK    8  A    between atoms: C_18  and  C_19
REMARK    9  A    between atoms: C_19  and  N_20
REMARK   10  A    between atoms: N_20  and  C_21
REMARK                            x       y       z     vdW  Elec       q    Type
REMARK                         _______ _______ _______ _____ _____    ______ ____
ROOT
ATOM      1  C   UNL     1       6.338   6.886  17.292  0.00  0.00    +0.000 C 
ATOM      2  O   UNL     1       6.873   5.977  17.919  0.00  0.00    +0.000 OA
ATOM      3  N   UNL     1       6.900   8.146  17.203  0.00  0.00    +0.000 N 
ATOM      4  H   UNL     1       6.464   8.840  16.611  0.00  0.00    +0.000 HD
ENDROOT
BRANCH   1   5
ATOM      5  C   UNL     1       5.045   6.706  16.503  0.00  0.00    +0.000 C 
BRANCH   5  17
ATOM      6  C   UNL     1       2.761   8.272  18.090  0.00  0.00    +0.000 C 
ATOM      7  C   UNL     1       2.993   6.811  17.993  0.00  0.00    +0.000 A 
ATOM      8  N   UNL     1       2.172   5.936  18.633  0.00  0.00    +0.000 N 
ATOM      9  C   UNL     1       2.546   4.636  18.421  0.00  0.00    +0.000 A 
ATOM     10  C   UNL     1       1.940   3.468  18.921  0.00  0.00    +0.000 A 
ATOM     11  C   UNL     1       0.730   3.452  19.811  0.00  0.00    +0.000 C 
ATOM     12  C   UNL     1       2.514   2.254  18.544  0.00  0.00    +0.000 A 
ATOM     13  C   UNL     1       3.631   2.219  17.724  0.00  0.00    +0.000 A 
ATOM     14  C   UNL     1       4.253   3.393  17.236  0.00  0.00    +0.000 A 
ATOM     15  C   UNL     1       5.457   3.176  16.355  0.00  0.00    +0.000 C 
ATOM     16  C   UNL     1       3.679   4.658  17.588  0.00  0.00    +0.000 A 
ATOM     17  C   UNL     1       3.954   6.063  17.315  0.00  0.00    +0.000 A 
ATOM     18  H   UNL     1       1.377   6.208  19.198  0.00  0.00    +0.000 HD
ENDBRANCH   5  17
ENDBRANCH   1   5
BRANCH   3  19
ATOM     19  C   UNL     1       8.132   8.477  17.900  0.00  0.00    +0.000 C 
BRANCH  19  20
ATOM     20  C   UNL     1       8.325   9.983  18.069  0.00  0.00    +0.000 C 
BRANCH  20  21
ATOM     21  C   UNL     1       9.529  10.288  18.956  0.00  0.00    +0.000 C 
BRANCH  21  22
ATOM     22  N   UNL     1       9.451  11.660  19.456  0.00  0.00    +0.000 N 
ATOM     23  H   UNL     1       9.781  11.737  20.417  0.00  0.00    +0.000 HD
BRANCH  22  24
ATOM     24  C   UNL     1      10.019  12.657  18.646  0.00  0.00    +0.000 A 
ATOM     25  C   UNL     1      10.834  12.284  17.573  0.00  0.00    +0.000 A 
ATOM     26  C   UNL     1      11.452  13.256  16.783  0.00  0.00    +0.000 A 
ATOM     27  C   UNL     1      11.261  14.586  17.105  0.00  0.00    +0.000 A 
ATOM     28  N   UNL     1      10.523  15.001  18.152  0.00  0.00    +0.000 NA
ATOM     29  C   UNL     1       9.943  14.032  18.902  0.00  0.00    +0.000 A 
ENDBRANCH  22  24
ENDBRANCH  21  22
ENDBRANCH  20  21
ENDBRANCH  19  20
ENDBRANCH   3  19
TORSDOF 7
ENDMDL
MODEL 5
REMARK VINA RESULT:      -7.3      7.155     10.817
REMARK  Name = 
REMARK  10 active torsions:
REMARK  status: ('A' for Active; 'I' for Inactive)
REMARK    1  A    between atoms: C_1  and  C_2
REMARK    2  A    between atoms: C_5  and  C_6
REMARK    3  A    between atoms: C_9  and  C_10
REMARK    4  A    between atoms: C_12  and  C_13
REMARK    5  A    between atoms: C_13  and  C_14
REMARK    6  A    between atoms: N_16  and  C_17
REMARK    7  A    between atoms: C_17  and  C_18
REMARK    8  A    between atoms: C_18  and  C_19
REMARK    9  A    between atoms: C_19  and  N_20
REMARK   10  A    between atoms: N_20  and  C_21
REMARK                            x       y       z     vdW  Elec       q    Type
REMARK                         _______ _______ _______ _____ _____    ______ ____
ROOT
ATOM      1  C   UNL     1       6.619   7.013  17.437  0.00  0.00    +0.000 C 
ATOM      2  O   UNL     1       6.978   6.250  18.329  0.00  0.00    +0.000 OA
ATOM      3  N   UNL     1       7.261   8.212  17.194  0.00  0.00    +0.000 N 
ATOM      4  H   UNL     1       6.980   8.771  16.400  0.00  0.00    +0.000 HD
ENDROOT
BRANCH   1   5
ATOM      5  C   UNL     1       5.479   6.693  16.475  0.00  0.00    +0.000 C 
BRANCH   5  17
ATOM      6  C   UNL     1       6.244   3.751  15.505  0.00  0.00    +0.000 C 
ATOM      7  C   UNL     1       5.125   4.181  16.377  0.00  0.00    +0.000 A 
ATOM      8  N   UNL     1       4.251   3.271  16.881  0.00  0.00    +0.000 N 
ATOM      9  C   UNL     1       3.292   3.860  17.662  0.00  0.00    +0.000 A 
ATOM     10  C   UNL     1       2.228   3.241  18.343  0.00  0.00    +0.000 A 
ATOM     11  C   UNL     1       1.953   1.764  18.326  0.00  0.00    +0.000 C 
ATOM     12  C   UNL     1       1.391   4.073  19.086  0.00  0.00    +0.000 A 
ATOM     13  C   UNL     1       1.606   5.441  19.132  0.00  0.00    +0.000 A 
ATOM     14  C   UNL     1       2.664   6.069  18.432  0.00  0.00    +0.000 A 
ATOM     15  C   UNL     1       2.756   7.565  18.591  0.00  0.00    +0.000 C 
ATOM     16  C   UNL     1       3.556   5.243  17.674  0.00  0.00    +0.000 A 
ATOM     17  C   UNL     1       4.741   5.436  16.847  0.00  0.00    +0.000 A 
ATOM     18  H   UNL     1       4.299   2.275  16.706  0.00  0.00    +0.000 HD
ENDBRANCH   5  17
ENDBRANCH   1   5
BRANCH   3  19
ATOM     19  C   UNL     1       8.366   8.662  18.025  0.00  0.00    +0.000 C 
BRANCH  19  20
ATOM     20  C   UNL     1       8.464  10.184  18.100  0.00  0.00    +0.000 C 
BRANCH  20  21
ATOM     21  C   UNL     1       9.815  10.623  18.660  0.00  0.00    +0.000 C 
BRANCH  21  22
ATOM     22  N   UNL     1      10.611  11.262  17.612  0.00  0.00    +0.000 N 
ATOM     23  H   UNL     1      10.149  11.227  16.705  0.00  0.00    +0.000 HD
BRANCH  22  24
ATOM     24  C   UNL     1      11.089  12.553  17.886  0.00  0.00    +0.000 A 
ATOM     25  C   UNL     1      10.738  13.172  19.090  0.00  0.00    +0.000 A 
ATOM     26  C   UNL     1      11.158  14.475  19.366  0.00  0.00    +0.000 A 
ATOM     27  C   UNL     1      11.900  15.143  18.410  0.00  0.00    +0.000 A 
ATOM     28  N   UNL     1      12.229  14.614  17.217  0.00  0.00    +0.000 NA
ATOM     29  C   UNL     1      11.800  13.350  16.980  0.00  0.00    +0.000 A 
ENDBRANCH  22  24
ENDBRANCH  21  22
ENDBRANCH  20  21
ENDBRANCH  19  20
ENDBRANCH   3  19
TORSDOF 7
ENDMDL
MODEL 6
REMARK VINA RESULT:      -7.3      2.287      4.206
REMARK  Name = 
REMARK  10 active torsions:
REMARK  status: ('A' for Active; 'I' for Inactive)
REMARK    1  A    between atoms: C_1  and  C_2
REMARK    2  A    between atoms: C_5  and  C_6
REMARK    3  A    between atoms: C_9  and  C_10
REMARK    4  A    between atoms: C_12  and  C_13
REMARK    5  A    between atoms: C_13  and  C_14
REMARK    6  A    between atoms: N_16  and  C_17
REMARK    7  A    between atoms: C_17  and  C_18
REMARK    8  A    between atoms: C_18  and  C_19
REMARK    9  A    between atoms: C_19  and  N_20
REMARK   10  A    between atoms: N_20  and  C_21
REMARK                            x       y       z     vdW  Elec       q    Type
REMARK                         _______ _______ _______ _____ _____    ______ ____
ROOT
ATOM      1  C   UNL     1       1.673   9.269  17.795  0.00  0.00    +0.000 C 
ATOM      2  O   UNL     1       2.340  10.297  17.724  0.00  0.00    +0.000 OA
ATOM      3  N   UNL     1       2.256   8.017  17.842  0.00  0.00    +0.000 N 
ATOM      4  H   UNL     1       1.670   7.205  17.980  0.00  0.00    +0.000 HD
ENDROOT
BRANCH   1   5
ATOM      5  C   UNL     1       0.151   9.269  17.902  0.00  0.00    +0.000 C 
BRANCH   5  17
ATOM      6  C   UNL     1      -1.432  12.026  17.626  0.00  0.00    +0.000 C 
ATOM      7  C   UNL     1      -1.028  11.304  18.857  0.00  0.00    +0.000 A 
ATOM      8  N   UNL     1      -1.328  11.806  20.084  0.00  0.00    +0.000 N 
ATOM      9  C   UNL     1      -0.874  10.997  21.092  0.00  0.00    +0.000 A 
ATOM     10  C   UNL     1      -0.996  11.192  22.481  0.00  0.00    +0.000 A 
ATOM     11  C   UNL     1      -1.674  12.372  23.117  0.00  0.00    +0.000 C 
ATOM     12  C   UNL     1      -0.453  10.205  23.302  0.00  0.00    +0.000 A 
ATOM     13  C   UNL     1       0.181   9.097  22.760  0.00  0.00    +0.000 A 
ATOM     14  C   UNL     1       0.322   8.909  21.364  0.00  0.00    +0.000 A 
ATOM     15  C   UNL     1       1.036   7.650  20.944  0.00  0.00    +0.000 C 
ATOM     16  C   UNL     1      -0.241   9.894  20.489  0.00  0.00    +0.000 A 
ATOM     17  C   UNL     1      -0.351  10.101  19.051  0.00  0.00    +0.000 A 
ATOM     18  H   UNL     1      -1.827  12.672  20.240  0.00  0.00    +0.000 HD
ENDBRANCH   5  17
ENDBRANCH   1   5
BRANCH   3  19
ATOM     19  C   UNL     1       3.697   7.849  17.750  0.00  0.00    +0.000 C 
BRANCH  19  20
ATOM     20  C   UNL     1       4.104   6.402  17.481  0.00  0.00    +0.000 C 
BRANCH  20  21
ATOM     21  C   UNL     1       2.933   5.449  17.704  0.00  0.00    +0.000 C 
BRANCH  21  22
ATOM     22  N   UNL     1       3.423   4.137  18.125  0.00  0.00    +0.000 N 
ATOM     23  H   UNL     1       4.441   4.095  18.141  0.00  0.00    +0.000 HD
BRANCH  22  24
ATOM     24  C   UNL     1       2.878   3.612  19.309  0.00  0.00    +0.000 A 
ATOM     25  C   UNL     1       1.547   3.895  19.632  0.00  0.00    +0.000 A 
ATOM     26  C   UNL     1       0.995   3.428  20.827  0.00  0.00    +0.000 A 
ATOM     27  C   UNL     1       1.802   2.710  21.689  0.00  0.00    +0.000 A 
ATOM     28  N   UNL     1       3.100   2.446  21.449  0.00  0.00    +0.000 NA
ATOM     29  C   UNL     1       3.605   2.919  20.284  0.00  0.00    +0.000 A 
ENDBRANCH  22  24
ENDBRANCH  21  22
ENDBRANCH  20  21
ENDBRANCH  19  20
ENDBRANCH   3  19
TORSDOF 7
ENDMDL
MODEL 7
REMARK VINA RESULT:      -7.3      5.338      8.439
REMARK  Name = 
REMARK  10 active torsions:
REMARK  status: ('A' for Active; 'I' for Inactive)
REMARK    1  A    between atoms: C_1  and  C_2
REMARK    2  A    between atoms: C_5  and  C_6
REMARK    3  A    between atoms: C_9  and  C_10
REMARK    4  A    between atoms: C_12  and  C_13
REMARK    5  A    between atoms: C_13  and  C_14
REMARK    6  A    between atoms: N_16  and  C_17
REMARK    7  A    between atoms: C_17  and  C_18
REMARK    8  A    between atoms: C_18  and  C_19
REMARK    9  A    between atoms: C_19  and  N_20
REMARK   10  A    between atoms: N_20  and  C_21
REMARK                            x       y       z     vdW  Elec       q    Type
REMARK                         _______ _______ _______ _____ _____    ______ ____
ROOT
ATOM      1  C   UNL     1       5.101   4.649  18.876  0.00  0.00    +0.000 C 
ATOM      2  O   UNL     1       5.732   3.748  19.419  0.00  0.00    +0.000 OA
ATOM      3  N   UNL     1       5.712   5.804  18.425  0.00  0.00    +0.000 N 
ATOM      4  H   UNL     1       5.165   6.484  17.914  0.00  0.00    +0.000 HD
ENDROOT
BRANCH   1   5
ATOM      5  C   UNL     1       3.605   4.564  18.588  0.00  0.00    +0.000 C 
BRANCH   5  17
ATOM      6  C   UNL     1       2.322   3.792  21.406  0.00  0.00    +0.000 C 
ATOM      7  C   UNL     1       2.252   5.079  20.673  0.00  0.00    +0.000 A 
ATOM      8  N   UNL     1       1.571   6.135  21.191  0.00  0.00    +0.000 N 
ATOM      9  C   UNL     1       1.623   7.230  20.370  0.00  0.00    +0.000 A 
ATOM     10  C   UNL     1       1.038   8.494  20.573  0.00  0.00    +0.000 A 
ATOM     11  C   UNL     1       0.221   8.869  21.777  0.00  0.00    +0.000 C 
ATOM     12  C   UNL     1       1.253   9.450  19.581  0.00  0.00    +0.000 A 
ATOM     13  C   UNL     1       2.001   9.150  18.453  0.00  0.00    +0.000 A 
ATOM     14  C   UNL     1       2.574   7.874  18.238  0.00  0.00    +0.000 A 
ATOM     15  C   UNL     1       3.358   7.717  16.961  0.00  0.00    +0.000 C 
ATOM     16  C   UNL     1       2.390   6.872  19.246  0.00  0.00    +0.000 A 
ATOM     17  C   UNL     1       2.793   5.487  19.454  0.00  0.00    +0.000 A 
ATOM     18  H   UNL     1       1.083   6.120  22.078  0.00  0.00    +0.000 HD
ENDBRANCH   5  17
ENDBRANCH   1   5
BRANCH   3  19
ATOM     19  C   UNL     1       7.132   6.038  18.625  0.00  0.00    +0.000 C 
BRANCH  19  20
ATOM     20  C   UNL     1       7.753   6.876  17.509  0.00  0.00    +0.000 C 
BRANCH  20  21
ATOM     21  C   UNL     1       7.699   8.364  17.842  0.00  0.00    +0.000 C 
BRANCH  21  22
ATOM     22  N   UNL     1       8.755   8.706  18.795  0.00  0.00    +0.000 N 
ATOM     23  H   UNL     1       9.598   8.155  18.647  0.00  0.00    +0.000 HD
BRANCH  22  24
ATOM     24  C   UNL     1       9.060  10.070  18.932  0.00  0.00    +0.000 A 
ATOM     25  C   UNL     1       9.464  10.558  20.179  0.00  0.00    +0.000 A 
ATOM     26  C   UNL     1       9.726  11.919  20.356  0.00  0.00    +0.000 A 
ATOM     27  C   UNL     1       9.546  12.768  19.281  0.00  0.00    +0.000 A 
ATOM     28  N   UNL     1       9.118  12.361  18.071  0.00  0.00    +0.000 NA
ATOM     29  C   UNL     1       8.868  11.036  17.936  0.00  0.00    +0.000 A 
ENDBRANCH  22  24
ENDBRANCH  21  22
ENDBRANCH  20  21
ENDBRANCH  19  20
ENDBRANCH   3  19
TORSDOF 7
ENDMDL
MODEL 8
REMARK VINA RESULT:      -7.3      6.181     10.290
REMARK  Name = 
REMARK  10 active torsions:
REMARK  status: ('A' for Active; 'I' for Inactive)
REMARK    1  A    between atoms: C_1  and  C_2
REMARK    2  A    between atoms: C_5  and  C_6
REMARK    3  A    between atoms: C_9  and  C_10
REMARK    4  A    between atoms: C_12  and  C_13
REMARK    5  A    between atoms: C_13  and  C_14
REMARK    6  A    between atoms: N_16  and  C_17
REMARK    7  A    between atoms: C_17  and  C_18
REMARK    8  A    between atoms: C_18  and  C_19
REMARK    9  A    between atoms: C_19  and  N_20
REMARK   10  A    between atoms: N_20  and  C_21
REMARK                            x       y       z     vdW  Elec       q    Type
REMARK                         _______ _______ _______ _____ _____    ______ ____
ROOT
ATOM      1  C   UNL     1       6.721   6.819  16.508  0.00  0.00    +0.000 C 
ATOM      2  O   UNL     1       7.718   6.177  16.195  0.00  0.00    +0.000 OA
ATOM      3  N   UNL     1       6.789   7.923  17.337  0.00  0.00    +0.000 N 
ATOM      4  H   UNL     1       5.954   8.468  17.504  0.00  0.00    +0.000 HD
ENDROOT
BRANCH   1   5
ATOM      5  C   UNL     1       5.327   6.509  15.972  0.00  0.00    +0.000 C 
BRANCH   5  17
ATOM      6  C   UNL     1       6.037   3.447  15.421  0.00  0.00    +0.000 C 
ATOM      7  C   UNL     1       5.041   4.017  16.360  0.00  0.00    +0.000 A 
ATOM      8  N   UNL     1       4.278   3.204  17.136  0.00  0.00    +0.000 N 
ATOM      9  C   UNL     1       3.423   3.914  17.936  0.00  0.00    +0.000 A 
ATOM     10  C   UNL     1       2.487   3.417  18.862  0.00  0.00    +0.000 A 
ATOM     11  C   UNL     1       2.259   1.958  19.140  0.00  0.00    +0.000 C 
ATOM     12  C   UNL     1       1.739   4.361  19.566  0.00  0.00    +0.000 A 
ATOM     13  C   UNL     1       1.915   5.717  19.344  0.00  0.00    +0.000 A 
ATOM     14  C   UNL     1       2.842   6.220  18.399  0.00  0.00    +0.000 A 
ATOM     15  C   UNL     1       2.909   7.721  18.283  0.00  0.00    +0.000 C 
ATOM     16  C   UNL     1       3.642   5.279  17.671  0.00  0.00    +0.000 A 
ATOM     17  C   UNL     1       4.689   5.332  16.659  0.00  0.00    +0.000 A 
ATOM     18  H   UNL     1       4.331   2.192  17.130  0.00  0.00    +0.000 HD
ENDBRANCH   5  17
ENDBRANCH   1   5
BRANCH   3  19
ATOM     19  C   UNL     1       8.046   8.348  17.931  0.00  0.00    +0.000 C 
BRANCH  19  20
ATOM     20  C   UNL     1       8.181   9.868  17.999  0.00  0.00    +0.000 C 
BRANCH  20  21
ATOM     21  C   UNL     1       9.479  10.276  18.689  0.00  0.00    +0.000 C 
BRANCH  21  22
ATOM     22  N   UNL     1       9.306  10.258  20.141  0.00  0.00    +0.000 N 
ATOM     23  H   UNL     1       9.930   9.593  20.594  0.00  0.00    +0.000 HD
BRANCH  22  24
ATOM     24  C   UNL     1       9.334  11.501  20.793  0.00  0.00    +0.000 A 
ATOM     25  C   UNL     1      10.188  12.502  20.320  0.00  0.00    +0.000 A 
ATOM     26  C   UNL     1      10.273  13.731  20.979  0.00  0.00    +0.000 A 
ATOM     27  C   UNL     1       9.519  13.918  22.122  0.00  0.00    +0.000 A 
ATOM     28  N   UNL     1       8.714  12.975  22.647  0.00  0.00    +0.000 NA
ATOM     29  C   UNL     1       8.659  11.794  21.985  0.00  0.00    +0.000 A 
ENDBRANCH  22  24
ENDBRANCH  21  22
ENDBRANCH  20  21
ENDBRANCH  19  20
ENDBRANCH   3  19
TORSDOF 7
ENDMDL
MODEL 9
REMARK VINA RESULT:      -7.3      6.089      9.725
REMARK  Name = 
REMARK  10 active torsions:
REMARK  status: ('A' for Active; 'I' for Inactive)
REMARK    1  A    between atoms: C_1  and  C_2
REMARK    2  A    between atoms: C_5  and  C_6
REMARK    3  A    between atoms: C_9  and  C_10
REMARK    4  A    between atoms: C_12  and  C_13
REMARK    5  A    between atoms: C_13  and  C_14
REMARK    6  A    between atoms: N_16  and  C_17
REMARK    7  A    between atoms: C_17  and  C_18
REMARK    8  A    between atoms: C_18  and  C_19
REMARK    9  A    between atoms: C_19  and  N_20
REMARK   10  A    between atoms: N_20  and  C_21
REMARK                            x       y       z     vdW  Elec       q    Type
REMARK                         _______ _______ _______ _____ _____    ______ ____
ROOT
ATOM      1  C   UNL     1       4.930   6.985  16.829  0.00  0.00    +0.000 C 
ATOM      2  O   UNL     1       5.323   6.878  15.672  0.00  0.00    +0.000 OA
ATOM      3  N   UNL     1       5.804   7.076  17.896  0.00  0.00    +0.000 N 
ATOM      4  H   UNL     1       5.435   7.241  18.823  0.00  0.00    +0.000 HD
ENDROOT
BRANCH   1   5
ATOM      5  C   UNL     1       3.454   7.091  17.202  0.00  0.00    +0.000 C 
BRANCH   5  17
ATOM      6  C   UNL     1       2.026   8.067  19.884  0.00  0.00    +0.000 C 
ATOM      7  C   UNL     1       2.468   6.702  19.509  0.00  0.00    +0.000 A 
ATOM      8  N   UNL     1       2.283   5.657  20.357  0.00  0.00    +0.000 N 
ATOM      9  C   UNL     1       2.754   4.483  19.833  0.00  0.00    +0.000 A 
ATOM     10  C   UNL     1       2.738   3.204  20.420  0.00  0.00    +0.000 A 
ATOM     11  C   UNL     1       2.178   2.900  21.781  0.00  0.00    +0.000 C 
ATOM     12  C   UNL     1       3.275   2.161  19.665  0.00  0.00    +0.000 A 
ATOM     13  C   UNL     1       3.802   2.394  18.404  0.00  0.00    +0.000 A 
ATOM     14  C   UNL     1       3.837   3.682  17.820  0.00  0.00    +0.000 A 
ATOM     15  C   UNL     1       4.443   3.759  16.442  0.00  0.00    +0.000 C 
ATOM     16  C   UNL     1       3.277   4.775  18.559  0.00  0.00    +0.000 A 
ATOM     17  C   UNL     1       3.082   6.205  18.360  0.00  0.00    +0.000 A 
ATOM     18  H   UNL     1       1.849   5.731  21.269  0.00  0.00    +0.000 HD
ENDBRANCH   5  17
ENDBRANCH   1   5
BRANCH   3  19
ATOM     19  C   UNL     1       7.242   6.990  17.707  0.00  0.00    +0.000 C 
BRANCH  19  20
ATOM     20  C   UNL     1       7.881   8.350  17.431  0.00  0.00    +0.000 C 
BRANCH  20  21
ATOM     21  C   UNL     1       8.668   8.845  18.641  0.00  0.00    +0.000 C 
BRANCH  21  22
ATOM     22  N   UNL     1       8.533  10.295  18.770  0.00  0.00    +0.000 N 
ATOM     23  H   UNL     1       7.837  10.555  19.467  0.00  0.00    +0.000 HD
BRANCH  22  24
ATOM     24  C   UNL     1       9.720  11.024  18.947  0.00  0.00    +0.000 A 
ATOM     25  C   UNL     1      10.529  11.294  17.839  0.00  0.00    +0.000 A 
ATOM     26  C   UNL     1      11.740  11.972  17.994  0.00  0.00    +0.000 A 
ATOM     27  C   UNL     1      12.130  12.340  19.267  0.00  0.00    +0.000 A 
ATOM     28  N   UNL     1      11.413  12.069  20.375  0.00  0.00    +0.000 NA
ATOM     29  C   UNL     1      10.247  11.404  20.188  0.00  0.00    +0.000 A 
ENDBRANCH  22  24
ENDBRANCH  21  22
ENDBRANCH  20  21
ENDBRANCH  19  20
ENDBRANCH   3  19
TORSDOF 7
ENDMDL
