MODEL 1
REMARK VINA RESULT:      -9.3      0.000      0.000
REMARK  Name = 
REMARK  6 active torsions:
REMARK  status: ('A' for Active; 'I' for Inactive)
REMARK    1  A    between atoms: C_2  and  C_5
REMARK    2  A    between atoms: N_3  and  O_4
REMARK    3  A    between atoms: C_5  and  S_6
REMARK    4  A    between atoms: S_6  and  C_9
REMARK    5  A    between atoms: C_12  and  O_13
REMARK    6  A    between atoms: O_13  and  C_14
REMARK                            x       y       z     vdW  Elec       q    Type
REMARK                         _______ _______ _______ _____ _____    ______ ____
ROOT
ATOM      1  S   UNL     1       3.858   5.443  18.613  0.00  0.00    +0.000 S 
ATOM      2  O   UNL     1       4.973   5.586  19.531  0.00  0.00    +0.000 OA
ATOM      3  O   UNL     1       4.115   5.280  17.191  0.00  0.00    +0.000 OA
ENDROOT
BRANCH   1   4
ATOM      4  C   UNL     1       2.838   4.062  19.140  0.00  0.00    +0.000 C 
ATOM      5  C   UNL     1       2.368   4.253  20.597  0.00  0.00    +0.000 C 
ATOM      6  C   UNL     1       1.372   3.177  21.027  0.00  0.00    +0.000 C 
ATOM      7  N   UNL     1       0.239   3.111  20.109  0.00  0.00    +0.000 NA
ATOM      8  C   UNL     1       0.660   2.815  18.744  0.00  0.00    +0.000 C 
ATOM      9  C   UNL     1       1.611   3.886  18.220  0.00  0.00    +0.000 C 
ATOM     10  H   UNL     1      -0.293   3.979  20.141  0.00  0.00    +0.000 HD
BRANCH   4  12
ATOM     11  O   UNL     1       3.837   2.138  18.020  0.00  0.00    +0.000 OA
ATOM     12  C   UNL     1       3.760   2.841  19.030  0.00  0.00    +0.000 C 
ATOM     13  N   UNL     1       4.578   2.579  20.113  0.00  0.00    +0.000 N 
ATOM     14  H   UNL     1       4.283   2.789  21.069  0.00  0.00    +0.000 HD
BRANCH  13  15
ATOM     15  O   UNL     1       5.379   1.416  19.974  0.00  0.00    +0.000 OA
ATOM     16  H   UNL     1       5.969   1.463  20.760  0.00  0.00    +0.000 HD
ENDBRANCH  13  15
ENDBRANCH   4  12
ENDBRANCH   1   4
BRANCH   1  17
ATOM     17  C   UNL     1       2.870   6.919  18.787  0.00  0.00    +0.000 A 
ATOM     18  C   UNL     1       2.220   7.179  19.997  0.00  0.00    +0.000 A 
ATOM     19  C   UNL     1       1.470   8.348  20.139  0.00  0.00    +0.000 A 
ATOM     20  C   UNL     1       1.384   9.264  19.087  0.00  0.00    +0.000 A 
ATOM     21  C   UNL     1       2.021   8.987  17.873  0.00  0.00    +0.000 A 
ATOM     22  C   UNL     1       2.799   7.835  17.734  0.00  0.00    +0.000 A 
BRANCH  20  23
ATOM     23  O   UNL     1       0.602  10.372  19.318  0.00  0.00    +0.000 OA
BRANCH  23  24
ATOM     24  C   UNL     1      -0.622  10.499  18.700  0.00  0.00    +0.000 A 
ATOM     25  C   UNL     1      -1.459  11.497  19.210  0.00  0.00    +0.000 A 
ATOM     26  C   UNL     1      -2.717  11.719  18.643  0.00  0.00    +0.000 A 
ATOM     27  C   UNL     1      -3.135  10.941  17.565  0.00  0.00    +0.000 A 
ATOM     28 CL   UNL     1      -4.692  11.195  16.879  0.00  0.00    +0.000 Cl
ATOM     29  C   UNL     1      -2.296   9.965  17.033  0.00  0.00    +0.000 A 
ATOM     30  C   UNL     1      -1.027   9.762  17.584  0.00  0.00    +0.000 A 
ENDBRANCH  23  24
ENDBRANCH  20  23
ENDBRANCH   1  17
TORSDOF 6
ENDMDL
MODEL 2
REMARK VINA RESULT:      -8.8      2.538      2.938
REMARK  Name = 
REMARK  6 active torsions:
REMARK  status: ('A' for Active; 'I' for Inactive)
REMARK    1  A    between atoms: C_2  and  C_5
REMARK    2  A    between atoms: N_3  and  O_4
REMARK    3  A    between atoms: C_5  and  S_6
REMARK    4  A    between atoms: S_6  and  C_9
REMARK    5  A    between atoms: C_12  and  O_13
REMARK    6  A    between atoms: O_13  and  C_14
REMARK                            x       y       z     vdW  Elec       q    Type
REMARK                         _______ _______ _______ _____ _____    ______ ____
ROOT
ATOM      1  S   UNL     1       4.018   5.187  18.736  0.00  0.00    +0.000 S 
ATOM      2  O   UNL     1       5.061   5.367  19.729  0.00  0.00    +0.000 OA
ATOM      3  O   UNL     1       4.382   4.943  17.349  0.00  0.00    +0.000 OA
ENDROOT
BRANCH   1   4
ATOM      4  C   UNL     1       2.937   3.851  19.255  0.00  0.00    +0.000 C 
ATOM      5  C   UNL     1       2.469   4.060  20.711  0.00  0.00    +0.000 C 
ATOM      6  C   UNL     1       1.426   3.027  21.134  0.00  0.00    +0.000 C 
ATOM      7  N   UNL     1       0.295   3.011  20.211  0.00  0.00    +0.000 NA
ATOM      8  C   UNL     1       0.709   2.699  18.848  0.00  0.00    +0.000 C 
ATOM      9  C   UNL     1       1.708   3.729  18.330  0.00  0.00    +0.000 C 
ATOM     10  H   UNL     1      -0.199   3.902  20.242  0.00  0.00    +0.000 HD
BRANCH   4  12
ATOM     11  O   UNL     1       3.772   1.825  18.182  0.00  0.00    +0.000 OA
ATOM     12  C   UNL     1       3.807   2.591  19.148  0.00  0.00    +0.000 C 
ATOM     13  N   UNL     1       4.706   2.366  20.173  0.00  0.00    +0.000 N 
ATOM     14  H   UNL     1       4.501   2.646  21.135  0.00  0.00    +0.000 HD
BRANCH  13  15
ATOM     15  O   UNL     1       5.453   1.168  20.042  0.00  0.00    +0.000 OA
ATOM     16  H   UNL     1       4.854   0.494  20.434  0.00  0.00    +0.000 HD
ENDBRANCH  13  15
ENDBRANCH   4  12
ENDBRANCH   1   4
BRANCH   1  17
ATOM     17  C   UNL     1       3.045   6.683  18.752  0.00  0.00    +0.000 A 
ATOM     18  C   UNL     1       2.351   7.046  19.910  0.00  0.00    +0.000 A 
ATOM     19  C   UNL     1       1.613   8.231  19.929  0.00  0.00    +0.000 A 
ATOM     20  C   UNL     1       1.582   9.061  18.804  0.00  0.00    +0.000 A 
ATOM     21  C   UNL     1       2.262   8.682  17.643  0.00  0.00    +0.000 A 
ATOM     22  C   UNL     1       3.028   7.513  17.627  0.00  0.00    +0.000 A 
BRANCH  20  23
ATOM     23  O   UNL     1       0.806  10.193  18.915  0.00  0.00    +0.000 OA
BRANCH  23  24
ATOM     24  C   UNL     1       1.396  11.423  19.101  0.00  0.00    +0.000 A 
ATOM     25  C   UNL     1       1.190  12.012  20.353  0.00  0.00    +0.000 A 
ATOM     26  C   UNL     1       1.758  13.254  20.650  0.00  0.00    +0.000 A 
ATOM     27  C   UNL     1       2.534  13.904  19.692  0.00  0.00    +0.000 A 
ATOM     28 CL   UNL     1       3.217  15.443  20.044  0.00  0.00    +0.000 Cl
ATOM     29  C   UNL     1       2.768  13.311  18.453  0.00  0.00    +0.000 A 
ATOM     30  C   UNL     1       2.221  12.056  18.168  0.00  0.00    +0.000 A 
ENDBRANCH  23  24
ENDBRANCH  20  23
ENDBRANCH   1  17
TORSDOF 6
ENDMDL
MODEL 3
REMARK VINA RESULT:      -8.7      2.546      3.198
REMARK  Name = 
REMARK  6 active torsions:
REMARK  status: ('A' for Active; 'I' for Inactive)
REMARK    1  A    between atoms: C_2  and  C_5
REMARK    2  A    between atoms: N_3  and  O_4
REMARK    3  A    between atoms: C_5  and  S_6
REMARK    4  A    between atoms: S_6  and  C_9
REMARK    5  A    between atoms: C_12  and  O_13
REMARK    6  A    between atoms: O_13  and  C_14
REMARK                            x       y       z     vdW  Elec       q    Type
REMARK                         _______ _______ _______ _____ _____    ______ ____
ROOT
ATOM      1  S   UNL     1       4.012   5.253  18.727  0.00  0.00    +0.000 S 
ATOM      2  O   UNL     1       5.074   5.398  19.705  0.00  0.00    +0.000 OA
ATOM      3  O   UNL     1       4.348   5.045  17.328  0.00  0.00    +0.000 OA
ENDROOT
BRANCH   1   4
ATOM      4  C   UNL     1       2.931   3.909  19.229  0.00  0.00    +0.000 C 
ATOM      5  C   UNL     1       2.456   4.104  20.684  0.00  0.00    +0.000 C 
ATOM      6  C   UNL     1       1.413   3.065  21.093  0.00  0.00    +0.000 C 
ATOM      7  N   UNL     1       0.286   3.056  20.165  0.00  0.00    +0.000 NA
ATOM      8  C   UNL     1       0.707   2.758  18.800  0.00  0.00    +0.000 C 
ATOM      9  C   UNL     1       1.706   3.794  18.297  0.00  0.00    +0.000 C 
ATOM     10  H   UNL     1      -0.210   3.945  20.203  0.00  0.00    +0.000 HD
BRANCH   4  12
ATOM     11  O   UNL     1       3.817   1.927  18.116  0.00  0.00    +0.000 OA
ATOM     12  C   UNL     1       3.803   2.652  19.113  0.00  0.00    +0.000 C 
ATOM     13  N   UNL     1       4.649   2.382  20.172  0.00  0.00    +0.000 N 
ATOM     14  H   UNL     1       4.395   2.622  21.133  0.00  0.00    +0.000 HD
BRANCH  13  15
ATOM     15  O   UNL     1       5.400   1.187  20.030  0.00  0.00    +0.000 OA
ATOM     16  H   UNL     1       4.748   0.566  19.636  0.00  0.00    +0.000 HD
ENDBRANCH  13  15
ENDBRANCH   4  12
ENDBRANCH   1   4
BRANCH   1  17
ATOM     17  C   UNL     1       3.050   6.754  18.802  0.00  0.00    +0.000 A 
ATOM     18  C   UNL     1       2.961   7.577  17.675  0.00  0.00    +0.000 A 
ATOM     19  C   UNL     1       2.185   8.736  17.727  0.00  0.00    +0.000 A 
ATOM     20  C   UNL     1       1.485   9.065  18.892  0.00  0.00    +0.000 A 
ATOM     21  C   UNL     1       1.596   8.249  20.021  0.00  0.00    +0.000 A 
ATOM     22  C   UNL     1       2.344   7.070  19.966  0.00  0.00    +0.000 A 
BRANCH  20  23
ATOM     23  O   UNL     1       0.770  10.240  18.850  0.00  0.00    +0.000 OA
BRANCH  23  24
ATOM     24  C   UNL     1       1.370  11.431  19.198  0.00  0.00    +0.000 A 
ATOM     25  C   UNL     1       2.129  12.043  18.195  0.00  0.00    +0.000 A 
ATOM     26  C   UNL     1       2.766  13.263  18.440  0.00  0.00    +0.000 A 
ATOM     27  C   UNL     1       2.640  13.868  19.689  0.00  0.00    +0.000 A 
ATOM     28 CL   UNL     1       3.441  15.358  20.002  0.00  0.00    +0.000 Cl
ATOM     29  C   UNL     1       1.862  13.279  20.683  0.00  0.00    +0.000 A 
ATOM     30  C   UNL     1       1.204  12.072  20.428  0.00  0.00    +0.000 A 
ENDBRANCH  23  24
ENDBRANCH  20  23
ENDBRANCH   1  17
TORSDOF 6
ENDMDL
MODEL 4
REMARK VINA RESULT:      -8.6      2.063      3.315
REMARK  Name = 
REMARK  6 active torsions:
REMARK  status: ('A' for Active; 'I' for Inactive)
REMARK    1  A    between atoms: C_2  and  C_5
REMARK    2  A    between atoms: N_3  and  O_4
REMARK    3  A    between atoms: C_5  and  S_6
REMARK    4  A    between atoms: S_6  and  C_9
REMARK    5  A    between atoms: C_12  and  O_13
REMARK    6  A    between atoms: O_13  and  C_14
REMARK                            x       y       z     vdW  Elec       q    Type
REMARK                         _______ _______ _______ _____ _____    ______ ____
ROOT
ATOM      1  S   UNL     1       2.500   4.611  18.734  0.00  0.00    +0.000 S 
ATOM      2  O   UNL     1       1.791   4.175  17.546  0.00  0.00    +0.000 OA
ATOM      3  O   UNL     1       2.172   4.022  20.023  0.00  0.00    +0.000 OA
ENDROOT
BRANCH   1   4
ATOM      4  C   UNL     1       4.265   4.398  18.475  0.00  0.00    +0.000 C 
ATOM      5  C   UNL     1       4.624   4.572  16.985  0.00  0.00    +0.000 C 
ATOM      6  C   UNL     1       6.134   4.553  16.750  0.00  0.00    +0.000 C 
ATOM      7  N   UNL     1       6.808   5.549  17.577  0.00  0.00    +0.000 NA
ATOM      8  C   UNL     1       6.571   5.327  18.999  0.00  0.00    +0.000 C 
ATOM      9  C   UNL     1       5.082   5.396  19.323  0.00  0.00    +0.000 C 
ATOM     10  H   UNL     1       6.519   6.488  17.306  0.00  0.00    +0.000 HD
BRANCH   4  12
ATOM     11  O   UNL     1       5.166   2.687  19.962  0.00  0.00    +0.000 OA
ATOM     12  C   UNL     1       4.548   2.961  18.931  0.00  0.00    +0.000 C 
ATOM     13  N   UNL     1       4.018   1.946  18.157  0.00  0.00    +0.000 N 
ATOM     14  H   UNL     1       3.912   2.046  17.144  0.00  0.00    +0.000 HD
BRANCH  13  15
ATOM     15  O   UNL     1       4.345   0.640  18.601  0.00  0.00    +0.000 OA
ATOM     16  H   UNL     1       3.641   0.452  19.261  0.00  0.00    +0.000 HD
ENDBRANCH  13  15
ENDBRANCH   4  12
ENDBRANCH   1   4
BRANCH   1  17
ATOM     17  C   UNL     1       2.201   6.364  18.884  0.00  0.00    +0.000 A 
ATOM     18  C   UNL     1       2.301   7.183  17.755  0.00  0.00    +0.000 A 
ATOM     19  C   UNL     1       2.039   8.550  17.869  0.00  0.00    +0.000 A 
ATOM     20  C   UNL     1       1.661   9.096  19.100  0.00  0.00    +0.000 A 
ATOM     21  C   UNL     1       1.584   8.274  20.229  0.00  0.00    +0.000 A 
ATOM     22  C   UNL     1       1.814   6.900  20.115  0.00  0.00    +0.000 A 
BRANCH  20  23
ATOM     23  O   UNL     1       1.450  10.455  19.113  0.00  0.00    +0.000 OA
BRANCH  23  24
ATOM     24  C   UNL     1       0.181  10.959  19.290  0.00  0.00    +0.000 A 
ATOM     25  C   UNL     1      -0.763  10.576  18.331  0.00  0.00    +0.000 A 
ATOM     26  C   UNL     1      -2.085  11.020  18.428  0.00  0.00    +0.000 A 
ATOM     27  C   UNL     1      -2.460  11.846  19.485  0.00  0.00    +0.000 A 
ATOM     28 CL   UNL     1      -4.080  12.414  19.595  0.00  0.00    +0.000 Cl
ATOM     29  C   UNL     1      -1.532  12.209  20.460  0.00  0.00    +0.000 A 
ATOM     30  C   UNL     1      -0.217  11.742  20.377  0.00  0.00    +0.000 A 
ENDBRANCH  23  24
ENDBRANCH  20  23
ENDBRANCH   1  17
TORSDOF 6
ENDMDL
MODEL 5
REMARK VINA RESULT:      -8.6      1.965      3.038
REMARK  Name = 
REMARK  6 active torsions:
REMARK  status: ('A' for Active; 'I' for Inactive)
REMARK    1  A    between atoms: C_2  and  C_5
REMARK    2  A    between atoms: N_3  and  O_4
REMARK    3  A    between atoms: C_5  and  S_6
REMARK    4  A    between atoms: S_6  and  C_9
REMARK    5  A    between atoms: C_12  and  O_13
REMARK    6  A    between atoms: O_13  and  C_14
REMARK                            x       y       z     vdW  Elec       q    Type
REMARK                         _______ _______ _______ _____ _____    ______ ____
ROOT
ATOM      1  S   UNL     1       2.527   4.649  19.479  0.00  0.00    +0.000 S 
ATOM      2  O   UNL     1       1.529   3.925  18.714  0.00  0.00    +0.000 OA
ATOM      3  O   UNL     1       2.651   4.407  20.907  0.00  0.00    +0.000 OA
ENDROOT
BRANCH   1   4
ATOM      4  C   UNL     1       4.142   4.378  18.742  0.00  0.00    +0.000 C 
ATOM      5  C   UNL     1       4.089   4.591  17.214  0.00  0.00    +0.000 C 
ATOM      6  C   UNL     1       5.475   4.523  16.575  0.00  0.00    +0.000 C 
ATOM      7  N   UNL     1       6.395   5.463  17.210  0.00  0.00    +0.000 NA
ATOM      8  C   UNL     1       6.544   5.199  18.636  0.00  0.00    +0.000 C 
ATOM      9  C   UNL     1       5.205   5.313  19.357  0.00  0.00    +0.000 C 
ATOM     10  H   UNL     1       6.087   6.421  17.051  0.00  0.00    +0.000 HD
BRANCH   4  12
ATOM     11  O   UNL     1       5.124   2.572  20.056  0.00  0.00    +0.000 OA
ATOM     12  C   UNL     1       4.471   2.916  19.067  0.00  0.00    +0.000 C 
ATOM     13  N   UNL     1       3.944   1.956  18.224  0.00  0.00    +0.000 N 
ATOM     14  H   UNL     1       3.808   2.137  17.227  0.00  0.00    +0.000 HD
BRANCH  13  15
ATOM     15  O   UNL     1       4.314   0.626  18.548  0.00  0.00    +0.000 OA
ATOM     16  H   UNL     1       3.582   0.096  18.160  0.00  0.00    +0.000 HD
ENDBRANCH  13  15
ENDBRANCH   4  12
ENDBRANCH   1   4
BRANCH   1  17
ATOM     17  C   UNL     1       2.148   6.382  19.287  0.00  0.00    +0.000 A 
ATOM     18  C   UNL     1       1.697   7.118  20.387  0.00  0.00    +0.000 A 
ATOM     19  C   UNL     1       1.427   8.480  20.241  0.00  0.00    +0.000 A 
ATOM     20  C   UNL     1       1.625   9.111  19.009  0.00  0.00    +0.000 A 
ATOM     21  C   UNL     1       2.057   8.364  17.908  0.00  0.00    +0.000 A 
ATOM     22  C   UNL     1       2.359   7.007  18.055  0.00  0.00    +0.000 A 
BRANCH  20  23
ATOM     23  O   UNL     1       1.307  10.449  18.962  0.00  0.00    +0.000 OA
BRANCH  23  24
ATOM     24  C   UNL     1      -0.010  10.849  18.920  0.00  0.00    +0.000 A 
ATOM     25  C   UNL     1      -0.811  10.201  17.974  0.00  0.00    +0.000 A 
ATOM     26  C   UNL     1      -2.167  10.521  17.860  0.00  0.00    +0.000 A 
ATOM     27  C   UNL     1      -2.719  11.490  18.695  0.00  0.00    +0.000 A 
ATOM     28 CL   UNL     1      -4.382  11.905  18.544  0.00  0.00    +0.000 Cl
ATOM     29  C   UNL     1      -1.935  12.120  19.660  0.00  0.00    +0.000 A 
ATOM     30  C   UNL     1      -0.585  11.779  19.791  0.00  0.00    +0.000 A 
ENDBRANCH  23  24
ENDBRANCH  20  23
ENDBRANCH   1  17
TORSDOF 6
ENDMDL
MODEL 6
REMARK VINA RESULT:      -8.5      2.056      3.053
REMARK  Name = 
REMARK  6 active torsions:
REMARK  status: ('A' for Active; 'I' for Inactive)
REMARK    1  A    between atoms: C_2  and  C_5
REMARK    2  A    between atoms: N_3  and  O_4
REMARK    3  A    between atoms: C_5  and  S_6
REMARK    4  A    between atoms: S_6  and  C_9
REMARK    5  A    between atoms: C_12  and  O_13
REMARK    6  A    between atoms: O_13  and  C_14
REMARK                            x       y       z     vdW  Elec       q    Type
REMARK                         _______ _______ _______ _____ _____    ______ ____
ROOT
ATOM      1  S   UNL     1       2.461   4.532  18.777  0.00  0.00    +0.000 S 
ATOM      2  O   UNL     1       1.755   4.077  17.594  0.00  0.00    +0.000 OA
ATOM      3  O   UNL     1       2.146   3.945  20.070  0.00  0.00    +0.000 OA
ENDROOT
BRANCH   1   4
ATOM      4  C   UNL     1       4.227   4.346  18.515  0.00  0.00    +0.000 C 
ATOM      5  C   UNL     1       4.581   4.529  17.024  0.00  0.00    +0.000 C 
ATOM      6  C   UNL     1       6.090   4.533  16.787  0.00  0.00    +0.000 C 
ATOM      7  N   UNL     1       6.752   5.537  17.615  0.00  0.00    +0.000 NA
ATOM      8  C   UNL     1       6.521   5.308  19.037  0.00  0.00    +0.000 C 
ATOM      9  C   UNL     1       5.031   5.353  19.364  0.00  0.00    +0.000 C 
ATOM     10  H   UNL     1       6.448   6.472  17.348  0.00  0.00    +0.000 HD
BRANCH   4  12
ATOM     11  O   UNL     1       5.163   2.644  19.991  0.00  0.00    +0.000 OA
ATOM     12  C   UNL     1       4.533   2.912  18.965  0.00  0.00    +0.000 C 
ATOM     13  N   UNL     1       4.009   1.892  18.194  0.00  0.00    +0.000 N 
ATOM     14  H   UNL     1       3.894   1.991  17.183  0.00  0.00    +0.000 HD
BRANCH  13  15
ATOM     15  O   UNL     1       4.357   0.589  18.633  0.00  0.00    +0.000 OA
ATOM     16  H   UNL     1       5.132   0.369  18.069  0.00  0.00    +0.000 HD
ENDBRANCH  13  15
ENDBRANCH   4  12
ENDBRANCH   1   4
BRANCH   1  17
ATOM     17  C   UNL     1       2.133   6.281  18.918  0.00  0.00    +0.000 A 
ATOM     18  C   UNL     1       1.780   6.821  20.158  0.00  0.00    +0.000 A 
ATOM     19  C   UNL     1       1.551   8.194  20.271  0.00  0.00    +0.000 A 
ATOM     20  C   UNL     1       1.694   9.028  19.158  0.00  0.00    +0.000 A 
ATOM     21  C   UNL     1       2.027   8.476  17.917  0.00  0.00    +0.000 A 
ATOM     22  C   UNL     1       2.288   7.108  17.803  0.00  0.00    +0.000 A 
BRANCH  20  23
ATOM     23  O   UNL     1       1.422  10.360  19.368  0.00  0.00    +0.000 OA
BRANCH  23  24
ATOM     24  C   UNL     1       0.122  10.813  19.363  0.00  0.00    +0.000 A 
ATOM     25  C   UNL     1      -0.198  11.750  20.351  0.00  0.00    +0.000 A 
ATOM     26  C   UNL     1      -1.487  12.285  20.424  0.00  0.00    +0.000 A 
ATOM     27  C   UNL     1      -2.454  11.882  19.506  0.00  0.00    +0.000 A 
ATOM     28 CL   UNL     1      -4.049  12.520  19.605  0.00  0.00    +0.000 Cl
ATOM     29  C   UNL     1      -2.136  10.971  18.500  0.00  0.00    +0.000 A 
ATOM     30  C   UNL     1      -0.839  10.457  18.412  0.00  0.00    +0.000 A 
ENDBRANCH  23  24
ENDBRANCH  20  23
ENDBRANCH   1  17
TORSDOF 6
ENDMDL
MODEL 7
REMARK VINA RESULT:      -8.5      2.604      3.120
REMARK  Name = 
REMARK  6 active torsions:
REMARK  status: ('A' for Active; 'I' for Inactive)
REMARK    1  A    between atoms: C_2  and  C_5
REMARK    2  A    between atoms: N_3  and  O_4
REMARK    3  A    between atoms: C_5  and  S_6
REMARK    4  A    between atoms: S_6  and  C_9
REMARK    5  A    between atoms: C_12  and  O_13
REMARK    6  A    between atoms: O_13  and  C_14
REMARK                            x       y       z     vdW  Elec       q    Type
REMARK                         _______ _______ _______ _____ _____    ______ ____
ROOT
ATOM      1  S   UNL     1       4.065   5.181  18.771  0.00  0.00    +0.000 S 
ATOM      2  O   UNL     1       5.135   5.410  19.725  0.00  0.00    +0.000 OA
ATOM      3  O   UNL     1       4.391   4.887  17.384  0.00  0.00    +0.000 OA
ENDROOT
BRANCH   1   4
ATOM      4  C   UNL     1       3.016   3.854  19.373  0.00  0.00    +0.000 C 
ATOM      5  C   UNL     1       2.612   4.100  20.842  0.00  0.00    +0.000 C 
ATOM      6  C   UNL     1       1.594   3.074  21.338  0.00  0.00    +0.000 C 
ATOM      7  N   UNL     1       0.423   3.030  20.468  0.00  0.00    +0.000 NA
ATOM      8  C   UNL     1       0.777   2.685  19.096  0.00  0.00    +0.000 C 
ATOM      9  C   UNL     1       1.747   3.704  18.507  0.00  0.00    +0.000 C 
ATOM     10  H   UNL     1      -0.074   3.920  20.498  0.00  0.00    +0.000 HD
BRANCH   4  12
ATOM     11  O   UNL     1       4.736   2.282  20.095  0.00  0.00    +0.000 OA
ATOM     12  C   UNL     1       3.885   2.596  19.259  0.00  0.00    +0.000 C 
ATOM     13  N   UNL     1       3.635   1.761  18.186  0.00  0.00    +0.000 N 
ATOM     14  H   UNL     1       3.319   2.129  17.285  0.00  0.00    +0.000 HD
BRANCH  13  15
ATOM     15  O   UNL     1       4.494   0.636  18.107  0.00  0.00    +0.000 OA
ATOM     16  H   UNL     1       3.928  -0.040  17.670  0.00  0.00    +0.000 HD
ENDBRANCH  13  15
ENDBRANCH   4  12
ENDBRANCH   1   4
BRANCH   1  17
ATOM     17  C   UNL     1       3.076   6.667  18.758  0.00  0.00    +0.000 A 
ATOM     18  C   UNL     1       2.357   7.029  19.900  0.00  0.00    +0.000 A 
ATOM     19  C   UNL     1       1.605   8.206  19.897  0.00  0.00    +0.000 A 
ATOM     20  C   UNL     1       1.587   9.029  18.766  0.00  0.00    +0.000 A 
ATOM     21  C   UNL     1       2.293   8.649  17.620  0.00  0.00    +0.000 A 
ATOM     22  C   UNL     1       3.072   7.489  17.628  0.00  0.00    +0.000 A 
BRANCH  20  23
ATOM     23  O   UNL     1       0.797  10.152  18.855  0.00  0.00    +0.000 OA
BRANCH  23  24
ATOM     24  C   UNL     1       1.351  11.364  19.204  0.00  0.00    +0.000 A 
ATOM     25  C   UNL     1       2.116  11.990  18.215  0.00  0.00    +0.000 A 
ATOM     26  C   UNL     1       2.708  13.231  18.462  0.00  0.00    +0.000 A 
ATOM     27  C   UNL     1       2.532  13.845  19.701  0.00  0.00    +0.000 A 
ATOM     28 CL   UNL     1       3.279  15.362  20.018  0.00  0.00    +0.000 Cl
ATOM     29  C   UNL     1       1.748  13.242  20.682  0.00  0.00    +0.000 A 
ATOM     30  C   UNL     1       1.134  12.013  20.423  0.00  0.00    +0.000 A 
ENDBRANCH  23  24
ENDBRANCH  20  23
ENDBRANCH   1  17
TORSDOF 6
ENDMDL
MODEL 8
REMARK VINA RESULT:      -8.5      2.119      2.550
REMARK  Name = 
REMARK  6 active torsions:
REMARK  status: ('A' for Active; 'I' for Inactive)
REMARK    1  A    between atoms: C_2  and  C_5
REMARK    2  A    between atoms: N_3  and  O_4
REMARK    3  A    between atoms: C_5  and  S_6
REMARK    4  A    between atoms: S_6  and  C_9
REMARK    5  A    between atoms: C_12  and  O_13
REMARK    6  A    between atoms: O_13  and  C_14
REMARK                            x       y       z     vdW  Elec       q    Type
REMARK                         _______ _______ _______ _____ _____    ______ ____
ROOT
ATOM      1  S   UNL     1       3.713   5.585  18.771  0.00  0.00    +0.000 S 
ATOM      2  O   UNL     1       4.834   5.729  19.681  0.00  0.00    +0.000 OA
ATOM      3  O   UNL     1       3.954   5.536  17.337  0.00  0.00    +0.000 OA
ENDROOT
BRANCH   1   4
ATOM      4  C   UNL     1       2.783   4.114  19.213  0.00  0.00    +0.000 C 
ATOM      5  C   UNL     1       2.289   4.197  20.673  0.00  0.00    +0.000 C 
ATOM      6  C   UNL     1       1.364   3.036  21.035  0.00  0.00    +0.000 C 
ATOM      7  N   UNL     1       0.245   2.943  20.101  0.00  0.00    +0.000 NA
ATOM      8  C   UNL     1       0.696   2.747  18.728  0.00  0.00    +0.000 C 
ATOM      9  C   UNL     1       1.579   3.905  18.272  0.00  0.00    +0.000 C 
ATOM     10  H   UNL     1      -0.344   3.772  20.172  0.00  0.00    +0.000 HD
BRANCH   4  12
ATOM     11  O   UNL     1       4.004   2.401  17.977  0.00  0.00    +0.000 OA
ATOM     12  C   UNL     1       3.786   2.964  19.052  0.00  0.00    +0.000 C 
ATOM     13  N   UNL     1       4.509   2.606  20.175  0.00  0.00    +0.000 N 
ATOM     14  H   UNL     1       4.109   2.678  21.113  0.00  0.00    +0.000 HD
BRANCH  13  15
ATOM     15  O   UNL     1       5.390   1.512  19.979  0.00  0.00    +0.000 OA
ATOM     16  H   UNL     1       5.793   1.712  19.104  0.00  0.00    +0.000 HD
ENDBRANCH  13  15
ENDBRANCH   4  12
ENDBRANCH   1   4
BRANCH   1  17
ATOM     17  C   UNL     1       2.645   6.985  19.060  0.00  0.00    +0.000 A 
ATOM     18  C   UNL     1       2.116   7.201  20.336  0.00  0.00    +0.000 A 
ATOM     19  C   UNL     1       1.304   8.312  20.568  0.00  0.00    +0.000 A 
ATOM     20  C   UNL     1       1.035   9.217  19.536  0.00  0.00    +0.000 A 
ATOM     21  C   UNL     1       1.551   8.984  18.257  0.00  0.00    +0.000 A 
ATOM     22  C   UNL     1       2.391   7.891  18.027  0.00  0.00    +0.000 A 
BRANCH  20  23
ATOM     23  O   UNL     1       0.204  10.265  19.859  0.00  0.00    +0.000 OA
BRANCH  23  24
ATOM     24  C   UNL     1       0.597  11.563  19.616  0.00  0.00    +0.000 A 
ATOM     25  C   UNL     1      -0.187  12.273  18.701  0.00  0.00    +0.000 A 
ATOM     26  C   UNL     1       0.116  13.603  18.397  0.00  0.00    +0.000 A 
ATOM     27  C   UNL     1       1.205  14.220  19.009  0.00  0.00    +0.000 A 
ATOM     28 CL   UNL     1       1.596  15.849  18.620  0.00  0.00    +0.000 Cl
ATOM     29  C   UNL     1       1.974  13.528  19.943  0.00  0.00    +0.000 A 
ATOM     30  C   UNL     1       1.653  12.207  20.267  0.00  0.00    +0.000 A 
ENDBRANCH  23  24
ENDBRANCH  20  23
ENDBRANCH   1  17
TORSDOF 6
ENDMDL
MODEL 9
REMARK VINA RESULT:      -8.4      2.074      3.078
REMARK  Name = 
REMARK  6 active torsions:
REMARK  status: ('A' for Active; 'I' for Inactive)
REMARK    1  A    between atoms: C_2  and  C_5
REMARK    2  A    between atoms: N_3  and  O_4
REMARK    3  A    between atoms: C_5  and  S_6
REMARK    4  A    between atoms: S_6  and  C_9
REMARK    5  A    between atoms: C_12  and  O_13
REMARK    6  A    between atoms: O_13  and  C_14
REMARK                            x       y       z     vdW  Elec       q    Type
REMARK                         _______ _______ _______ _____ _____    ______ ____
ROOT
ATOM      1  S   UNL     1       2.387   4.377  19.509  0.00  0.00    +0.000 S 
ATOM      2  O   UNL     1       1.280   3.760  18.801  0.00  0.00    +0.000 OA
ATOM      3  O   UNL     1       2.603   4.064  20.913  0.00  0.00    +0.000 OA
ENDROOT
BRANCH   1   4
ATOM      4  C   UNL     1       3.914   4.022  18.634  0.00  0.00    +0.000 C 
ATOM      5  C   UNL     1       3.723   4.184  17.112  0.00  0.00    +0.000 C 
ATOM      6  C   UNL     1       5.038   4.044  16.348  0.00  0.00    +0.000 C 
ATOM      7  N   UNL     1       6.045   4.971  16.856  0.00  0.00    +0.000 NA
ATOM      8  C   UNL     1       6.321   4.752  18.272  0.00  0.00    +0.000 C 
ATOM      9  C   UNL     1       5.061   4.939  19.111  0.00  0.00    +0.000 C 
ATOM     10  H   UNL     1       5.755   5.934  16.691  0.00  0.00    +0.000 HD
BRANCH   4  12
ATOM     11  O   UNL     1       3.775   1.603  18.350  0.00  0.00    +0.000 OA
ATOM     12  C   UNL     1       4.226   2.561  18.983  0.00  0.00    +0.000 C 
ATOM     13  N   UNL     1       5.107   2.344  20.025  0.00  0.00    +0.000 N 
ATOM     14  H   UNL     1       5.155   2.979  20.825  0.00  0.00    +0.000 HD
BRANCH  13  15
ATOM     15  O   UNL     1       5.326   0.977  20.330  0.00  0.00    +0.000 OA
ATOM     16  H   UNL     1       4.435   0.580  20.205  0.00  0.00    +0.000 HD
ENDBRANCH  13  15
ENDBRANCH   4  12
ENDBRANCH   1   4
BRANCH   1  17
ATOM     17  C   UNL     1       2.126   6.140  19.414  0.00  0.00    +0.000 A 
ATOM     18  C   UNL     1       2.270   6.796  18.188  0.00  0.00    +0.000 A 
ATOM     19  C   UNL     1       2.038   8.170  18.110  0.00  0.00    +0.000 A 
ATOM     20  C   UNL     1       1.645   8.885  19.246  0.00  0.00    +0.000 A 
ATOM     21  C   UNL     1       1.523   8.226  20.473  0.00  0.00    +0.000 A 
ATOM     22  C   UNL     1       1.722   6.845  20.551  0.00  0.00    +0.000 A 
BRANCH  20  23
ATOM     23  O   UNL     1       1.466  10.238  19.070  0.00  0.00    +0.000 OA
BRANCH  23  24
ATOM     24  C   UNL     1       0.222  10.802  19.245  0.00  0.00    +0.000 A 
ATOM     25  C   UNL     1       0.100  11.681  20.326  0.00  0.00    +0.000 A 
ATOM     26  C   UNL     1      -1.117  12.319  20.582  0.00  0.00    +0.000 A 
ATOM     27  C   UNL     1      -2.210  12.077  19.753  0.00  0.00    +0.000 A 
ATOM     28 CL   UNL     1      -3.716  12.843  20.078  0.00  0.00    +0.000 Cl
ATOM     29  C   UNL     1      -2.089  11.226  18.657  0.00  0.00    +0.000 A 
ATOM     30  C   UNL     1      -0.864  10.609  18.387  0.00  0.00    +0.000 A 
ENDBRANCH  23  24
ENDBRANCH  20  23
ENDBRANCH   1  17
TORSDOF 6
ENDMDL
