MODEL 1
REMARK VINA RESULT:      -8.7      0.000      0.000
REMARK  Name = 
REMARK  2 active torsions:
REMARK  status: ('A' for Active; 'I' for Inactive)
REMARK    1  A    between atoms: C_1  and  C_2
REMARK    2  A    between atoms: C_6  and  N_7
REMARK                            x       y       z     vdW  Elec       q    Type
REMARK                         _______ _______ _______ _____ _____    ______ ____
ROOT
ATOM      1  N   UNL     1       4.041   4.573  17.596  0.00  0.00    +0.000 N 
ATOM      2  C   UNL     1       4.076   4.004  16.333  0.00  0.00    +0.000 A 
ATOM      3  C   UNL     1       5.211   4.479  15.730  0.00  0.00    +0.000 A 
ATOM      4  C   UNL     1       5.836   5.300  16.688  0.00  0.00    +0.000 A 
ATOM      5  N   UNL     1       5.115   5.384  17.811  0.00  0.00    +0.000 NA
ATOM      6  C   UNL     1       7.120   5.951  16.418  0.00  0.00    +0.000 A 
ATOM      7  O   UNL     1       7.725   6.676  17.206  0.00  0.00    +0.000 OA
ATOM      8  N   UNL     1       7.645   5.683  15.158  0.00  0.00    +0.000 N 
ATOM      9  C   UNL     1       7.016   4.887  14.170  0.00  0.00    +0.000 A 
ATOM     10  C   UNL     1       7.634   4.739  12.929  0.00  0.00    +0.000 A 
ATOM     11  C   UNL     1       7.010   3.985  11.935  0.00  0.00    +0.000 A 
ATOM     12  C   UNL     1       5.777   3.373  12.179  0.00  0.00    +0.000 A 
ATOM     13  C   UNL     1       5.157   3.504  13.424  0.00  0.00    +0.000 A 
ATOM     14  C   UNL     1       5.774   4.259  14.422  0.00  0.00    +0.000 A 
ATOM     15  H   UNL     1       8.533   6.125  14.965  0.00  0.00    +0.000 HD
ENDROOT
BRANCH   1  21
ATOM     16  C   UNL     1       1.204   6.585  21.120  0.00  0.00    +0.000 C 
ATOM     17  C   UNL     1       1.662   5.374  20.360  0.00  0.00    +0.000 A 
ATOM     18  C   UNL     1       1.132   4.109  20.628  0.00  0.00    +0.000 A 
ATOM     19  C   UNL     1       1.553   2.998  19.896  0.00  0.00    +0.000 A 
ATOM     20  C   UNL     1       2.508   3.137  18.883  0.00  0.00    +0.000 A 
ATOM     21  C   UNL     1       3.058   4.395  18.612  0.00  0.00    +0.000 A 
ATOM     22  C   UNL     1       2.633   5.509  19.358  0.00  0.00    +0.000 A 
ENDBRANCH   1  21
TORSDOF 1
ENDMDL
MODEL 2
REMARK VINA RESULT:      -8.7      0.488      1.477
REMARK  Name = 
REMARK  2 active torsions:
REMARK  status: ('A' for Active; 'I' for Inactive)
REMARK    1  A    between atoms: C_1  and  C_2
REMARK    2  A    between atoms: C_6  and  N_7
REMARK                            x       y       z     vdW  Elec       q    Type
REMARK                         _______ _______ _______ _____ _____    ______ ____
ROOT
ATOM      1  N   UNL     1       4.157   4.704  17.565  0.00  0.00    +0.000 N 
ATOM      2  C   UNL     1       4.190   4.081  16.327  0.00  0.00    +0.000 A 
ATOM      3  C   UNL     1       5.301   4.562  15.685  0.00  0.00    +0.000 A 
ATOM      4  C   UNL     1       5.916   5.443  16.595  0.00  0.00    +0.000 A 
ATOM      5  N   UNL     1       5.209   5.555  17.726  0.00  0.00    +0.000 NA
ATOM      6  C   UNL     1       7.175   6.119  16.276  0.00  0.00    +0.000 A 
ATOM      7  O   UNL     1       7.770   6.896  17.021  0.00  0.00    +0.000 OA
ATOM      8  N   UNL     1       7.688   5.811  15.021  0.00  0.00    +0.000 N 
ATOM      9  C   UNL     1       7.069   4.953  14.079  0.00  0.00    +0.000 A 
ATOM     10  C   UNL     1       7.672   4.768  12.836  0.00  0.00    +0.000 A 
ATOM     11  C   UNL     1       7.055   3.953  11.886  0.00  0.00    +0.000 A 
ATOM     12  C   UNL     1       5.845   3.317  12.177  0.00  0.00    +0.000 A 
ATOM     13  C   UNL     1       5.240   3.485  13.426  0.00  0.00    +0.000 A 
ATOM     14  C   UNL     1       5.850   4.301  14.378  0.00  0.00    +0.000 A 
ATOM     15  H   UNL     1       8.559   6.269  14.793  0.00  0.00    +0.000 HD
ENDROOT
BRANCH   1  21
ATOM     16  C   UNL     1       0.322   2.174  19.410  0.00  0.00    +0.000 C 
ATOM     17  C   UNL     1       1.297   3.310  19.518  0.00  0.00    +0.000 A 
ATOM     18  C   UNL     1       1.276   4.179  20.613  0.00  0.00    +0.000 A 
ATOM     19  C   UNL     1       2.205   5.216  20.708  0.00  0.00    +0.000 A 
ATOM     20  C   UNL     1       3.170   5.397  19.712  0.00  0.00    +0.000 A 
ATOM     21  C   UNL     1       3.196   4.543  18.603  0.00  0.00    +0.000 A 
ATOM     22  C   UNL     1       2.253   3.505  18.511  0.00  0.00    +0.000 A 
ENDBRANCH   1  21
TORSDOF 1
ENDMDL
MODEL 3
REMARK VINA RESULT:      -8.7      1.129      1.217
REMARK  Name = 
REMARK  2 active torsions:
REMARK  status: ('A' for Active; 'I' for Inactive)
REMARK    1  A    between atoms: C_1  and  C_2
REMARK    2  A    between atoms: C_6  and  N_7
REMARK                            x       y       z     vdW  Elec       q    Type
REMARK                         _______ _______ _______ _____ _____    ______ ____
ROOT
ATOM      1  N   UNL     1       3.897   4.085  17.448  0.00  0.00    +0.000 N 
ATOM      2  C   UNL     1       4.131   3.658  16.150  0.00  0.00    +0.000 A 
ATOM      3  C   UNL     1       5.250   4.323  15.723  0.00  0.00    +0.000 A 
ATOM      4  C   UNL     1       5.667   5.108  16.815  0.00  0.00    +0.000 A 
ATOM      5  N   UNL     1       4.832   4.990  17.854  0.00  0.00    +0.000 NA
ATOM      6  C   UNL     1       6.878   5.929  16.751  0.00  0.00    +0.000 A 
ATOM      7  O   UNL     1       7.303   6.634  17.663  0.00  0.00    +0.000 OA
ATOM      8  N   UNL     1       7.555   5.856  15.538  0.00  0.00    +0.000 N 
ATOM      9  C   UNL     1       7.135   5.098  14.418  0.00  0.00    +0.000 A 
ATOM     10  C   UNL     1       7.887   5.153  13.245  0.00  0.00    +0.000 A 
ATOM     11  C   UNL     1       7.466   4.438  12.123  0.00  0.00    +0.000 A 
ATOM     12  C   UNL     1       6.303   3.665  12.172  0.00  0.00    +0.000 A 
ATOM     13  C   UNL     1       5.550   3.592  13.347  0.00  0.00    +0.000 A 
ATOM     14  C   UNL     1       5.964   4.307  14.471  0.00  0.00    +0.000 A 
ATOM     15  H   UNL     1       8.394   6.416  15.486  0.00  0.00    +0.000 HD
ENDROOT
BRANCH   1  21
ATOM     16  C   UNL     1       2.352   3.294  22.085  0.00  0.00    +0.000 C 
ATOM     17  C   UNL     1       2.079   3.285  20.609  0.00  0.00    +0.000 A 
ATOM     18  C   UNL     1       0.827   2.915  20.108  0.00  0.00    +0.000 A 
ATOM     19  C   UNL     1       0.584   2.935  18.734  0.00  0.00    +0.000 A 
ATOM     20  C   UNL     1       1.586   3.328  17.842  0.00  0.00    +0.000 A 
ATOM     21  C   UNL     1       2.849   3.689  18.327  0.00  0.00    +0.000 A 
ATOM     22  C   UNL     1       3.089   3.661  19.712  0.00  0.00    +0.000 A 
ENDBRANCH   1  21
TORSDOF 1
ENDMDL
MODEL 4
REMARK VINA RESULT:      -8.7      1.468      6.867
REMARK  Name = 
REMARK  2 active torsions:
REMARK  status: ('A' for Active; 'I' for Inactive)
REMARK    1  A    between atoms: C_1  and  C_2
REMARK    2  A    between atoms: C_6  and  N_7
REMARK                            x       y       z     vdW  Elec       q    Type
REMARK                         _______ _______ _______ _____ _____    ______ ____
ROOT
ATOM      1  N   UNL     1       5.476   4.330  15.811  0.00  0.00    +0.000 N 
ATOM      2  C   UNL     1       4.173   4.017  16.165  0.00  0.00    +0.000 A 
ATOM      3  C   UNL     1       4.085   4.220  17.518  0.00  0.00    +0.000 A 
ATOM      4  C   UNL     1       5.352   4.686  17.917  0.00  0.00    +0.000 A 
ATOM      5  N   UNL     1       6.208   4.726  16.890  0.00  0.00    +0.000 NA
ATOM      6  C   UNL     1       5.627   5.064  19.305  0.00  0.00    +0.000 A 
ATOM      7  O   UNL     1       6.704   5.482  19.724  0.00  0.00    +0.000 OA
ATOM      8  N   UNL     1       4.542   4.921  20.163  0.00  0.00    +0.000 N 
ATOM      9  C   UNL     1       3.270   4.423  19.788  0.00  0.00    +0.000 A 
ATOM     10  C   UNL     1       2.283   4.288  20.763  0.00  0.00    +0.000 A 
ATOM     11  C   UNL     1       1.036   3.767  20.414  0.00  0.00    +0.000 A 
ATOM     12  C   UNL     1       0.771   3.389  19.094  0.00  0.00    +0.000 A 
ATOM     13  C   UNL     1       1.750   3.534  18.107  0.00  0.00    +0.000 A 
ATOM     14  C   UNL     1       2.999   4.051  18.450  0.00  0.00    +0.000 A 
ATOM     15  H   UNL     1       4.721   5.183  21.122  0.00  0.00    +0.000 HD
ENDROOT
BRANCH   1  21
ATOM     16  C   UNL     1       5.539   2.359  11.269  0.00  0.00    +0.000 C 
ATOM     17  C   UNL     1       6.119   3.307  12.278  0.00  0.00    +0.000 A 
ATOM     18  C   UNL     1       7.201   4.131  11.957  0.00  0.00    +0.000 A 
ATOM     19  C   UNL     1       7.712   5.023  12.900  0.00  0.00    +0.000 A 
ATOM     20  C   UNL     1       7.146   5.107  14.176  0.00  0.00    +0.000 A 
ATOM     21  C   UNL     1       6.070   4.280  14.517  0.00  0.00    +0.000 A 
ATOM     22  C   UNL     1       5.564   3.379  13.564  0.00  0.00    +0.000 A 
ENDBRANCH   1  21
TORSDOF 1
ENDMDL
MODEL 5
REMARK VINA RESULT:      -8.5      1.694      6.977
REMARK  Name = 
REMARK  2 active torsions:
REMARK  status: ('A' for Active; 'I' for Inactive)
REMARK    1  A    between atoms: C_1  and  C_2
REMARK    2  A    between atoms: C_6  and  N_7
REMARK                            x       y       z     vdW  Elec       q    Type
REMARK                         _______ _______ _______ _____ _____    ______ ____
ROOT
ATOM      1  N   UNL     1       5.069   4.757  15.879  0.00  0.00    +0.000 N 
ATOM      2  C   UNL     1       4.694   3.824  16.832  0.00  0.00    +0.000 A 
ATOM      3  C   UNL     1       4.030   4.518  17.809  0.00  0.00    +0.000 A 
ATOM      4  C   UNL     1       4.007   5.857  17.376  0.00  0.00    +0.000 A 
ATOM      5  N   UNL     1       4.662   6.013  16.220  0.00  0.00    +0.000 NA
ATOM      6  C   UNL     1       3.327   6.901  18.147  0.00  0.00    +0.000 A 
ATOM      7  O   UNL     1       3.262   8.087  17.829  0.00  0.00    +0.000 OA
ATOM      8  N   UNL     1       2.725   6.449  19.316  0.00  0.00    +0.000 N 
ATOM      9  C   UNL     1       2.766   5.113  19.786  0.00  0.00    +0.000 A 
ATOM     10  C   UNL     1       2.157   4.806  21.002  0.00  0.00    +0.000 A 
ATOM     11  C   UNL     1       2.218   3.501  21.493  0.00  0.00    +0.000 A 
ATOM     12  C   UNL     1       2.878   2.503  20.770  0.00  0.00    +0.000 A 
ATOM     13  C   UNL     1       3.479   2.798  19.543  0.00  0.00    +0.000 A 
ATOM     14  C   UNL     1       3.424   4.101  19.048  0.00  0.00    +0.000 A 
ATOM     15  H   UNL     1       2.251   7.161  19.853  0.00  0.00    +0.000 HD
ENDROOT
BRANCH   1  21
ATOM     16  C   UNL     1       5.327   2.501  11.480  0.00  0.00    +0.000 C 
ATOM     17  C   UNL     1       5.930   3.421  12.501  0.00  0.00    +0.000 A 
ATOM     18  C   UNL     1       7.152   4.058  12.268  0.00  0.00    +0.000 A 
ATOM     19  C   UNL     1       7.686   4.929  13.219  0.00  0.00    +0.000 A 
ATOM     20  C   UNL     1       7.004   5.177  14.414  0.00  0.00    +0.000 A 
ATOM     21  C   UNL     1       5.786   4.537  14.668  0.00  0.00    +0.000 A 
ATOM     22  C   UNL     1       5.257   3.657  13.709  0.00  0.00    +0.000 A 
ENDBRANCH   1  21
TORSDOF 1
ENDMDL
MODEL 6
REMARK VINA RESULT:      -8.3      1.515      6.799
REMARK  Name = 
REMARK  2 active torsions:
REMARK  status: ('A' for Active; 'I' for Inactive)
REMARK    1  A    between atoms: C_1  and  C_2
REMARK    2  A    between atoms: C_6  and  N_7
REMARK                            x       y       z     vdW  Elec       q    Type
REMARK                         _______ _______ _______ _____ _____    ______ ____
ROOT
ATOM      1  N   UNL     1       5.363   4.210  15.784  0.00  0.00    +0.000 N 
ATOM      2  C   UNL     1       4.082   3.828  16.150  0.00  0.00    +0.000 A 
ATOM      3  C   UNL     1       3.996   4.022  17.504  0.00  0.00    +0.000 A 
ATOM      4  C   UNL     1       5.240   4.553  17.893  0.00  0.00    +0.000 A 
ATOM      5  N   UNL     1       6.083   4.642  16.858  0.00  0.00    +0.000 NA
ATOM      6  C   UNL     1       5.508   4.941  19.279  0.00  0.00    +0.000 A 
ATOM      7  O   UNL     1       6.566   5.415  19.690  0.00  0.00    +0.000 OA
ATOM      8  N   UNL     1       4.440   4.738  20.147  0.00  0.00    +0.000 N 
ATOM      9  C   UNL     1       3.193   4.174  19.782  0.00  0.00    +0.000 A 
ATOM     10  C   UNL     1       2.224   3.984  20.766  0.00  0.00    +0.000 A 
ATOM     11  C   UNL     1       1.004   3.398  20.427  0.00  0.00    +0.000 A 
ATOM     12  C   UNL     1       0.747   3.011  19.109  0.00  0.00    +0.000 A 
ATOM     13  C   UNL     1       1.706   3.211  18.112  0.00  0.00    +0.000 A 
ATOM     14  C   UNL     1       2.929   3.793  18.446  0.00  0.00    +0.000 A 
ATOM     15  H   UNL     1       4.614   5.006  21.106  0.00  0.00    +0.000 HD
ENDROOT
BRANCH   1  21
ATOM     16  C   UNL     1       8.817   5.946  12.691  0.00  0.00    +0.000 C 
ATOM     17  C   UNL     1       7.639   5.053  12.946  0.00  0.00    +0.000 A 
ATOM     18  C   UNL     1       7.134   4.217  11.946  0.00  0.00    +0.000 A 
ATOM     19  C   UNL     1       6.052   3.376  12.209  0.00  0.00    +0.000 A 
ATOM     20  C   UNL     1       5.461   3.356  13.476  0.00  0.00    +0.000 A 
ATOM     21  C   UNL     1       5.947   4.196  14.485  0.00  0.00    +0.000 A 
ATOM     22  C   UNL     1       7.033   5.045  14.211  0.00  0.00    +0.000 A 
ENDBRANCH   1  21
TORSDOF 1
ENDMDL
MODEL 7
REMARK VINA RESULT:      -8.3      2.895      4.750
REMARK  Name = 
REMARK  2 active torsions:
REMARK  status: ('A' for Active; 'I' for Inactive)
REMARK    1  A    between atoms: C_1  and  C_2
REMARK    2  A    between atoms: C_6  and  N_7
REMARK                            x       y       z     vdW  Elec       q    Type
REMARK                         _______ _______ _______ _____ _____    ______ ____
ROOT
ATOM      1  N   UNL     1       2.224   7.494  19.323  0.00  0.00    +0.000 N 
ATOM      2  C   UNL     1       2.980   7.492  18.161  0.00  0.00    +0.000 A 
ATOM      3  C   UNL     1       3.515   6.235  18.055  0.00  0.00    +0.000 A 
ATOM      4  C   UNL     1       3.021   5.515  19.158  0.00  0.00    +0.000 A 
ATOM      5  N   UNL     1       2.261   6.283  19.947  0.00  0.00    +0.000 NA
ATOM      6  C   UNL     1       3.340   4.100  19.355  0.00  0.00    +0.000 A 
ATOM      7  O   UNL     1       2.941   3.408  20.290  0.00  0.00    +0.000 OA
ATOM      8  N   UNL     1       4.156   3.554  18.370  0.00  0.00    +0.000 N 
ATOM      9  C   UNL     1       4.690   4.270  17.270  0.00  0.00    +0.000 A 
ATOM     10  C   UNL     1       5.534   3.608  16.380  0.00  0.00    +0.000 A 
ATOM     11  C   UNL     1       6.095   4.310  15.311  0.00  0.00    +0.000 A 
ATOM     12  C   UNL     1       5.807   5.665  15.126  0.00  0.00    +0.000 A 
ATOM     13  C   UNL     1       4.951   6.333  16.005  0.00  0.00    +0.000 A 
ATOM     14  C   UNL     1       4.390   5.639  17.077  0.00  0.00    +0.000 A 
ATOM     15  H   UNL     1       4.378   2.577  18.495  0.00  0.00    +0.000 HD
ENDROOT
BRANCH   1  21
ATOM     16  C   UNL     1      -0.015   9.482  23.266  0.00  0.00    +0.000 C 
ATOM     17  C   UNL     1       0.351   9.552  21.812  0.00  0.00    +0.000 A 
ATOM     18  C   UNL     1      -0.023  10.644  21.025  0.00  0.00    +0.000 A 
ATOM     19  C   UNL     1       0.346  10.704  19.680  0.00  0.00    +0.000 A 
ATOM     20  C   UNL     1       1.097   9.674  19.105  0.00  0.00    +0.000 A 
ATOM     21  C   UNL     1       1.469   8.567  19.877  0.00  0.00    +0.000 A 
ATOM     22  C   UNL     1       1.088   8.511  21.229  0.00  0.00    +0.000 A 
ENDBRANCH   1  21
TORSDOF 1
ENDMDL
MODEL 8
REMARK VINA RESULT:      -8.2      2.802      4.417
REMARK  Name = 
REMARK  2 active torsions:
REMARK  status: ('A' for Active; 'I' for Inactive)
REMARK    1  A    between atoms: C_1  and  C_2
REMARK    2  A    between atoms: C_6  and  N_7
REMARK                            x       y       z     vdW  Elec       q    Type
REMARK                         _______ _______ _______ _____ _____    ______ ____
ROOT
ATOM      1  N   UNL     1       2.465   7.084  19.233  0.00  0.00    +0.000 N 
ATOM      2  C   UNL     1       3.168   7.152  18.041  0.00  0.00    +0.000 A 
ATOM      3  C   UNL     1       3.767   5.930  17.879  0.00  0.00    +0.000 A 
ATOM      4  C   UNL     1       3.362   5.157  18.983  0.00  0.00    +0.000 A 
ATOM      5  N   UNL     1       2.596   5.862  19.823  0.00  0.00    +0.000 NA
ATOM      6  C   UNL     1       3.768   3.758  19.129  0.00  0.00    +0.000 A 
ATOM      7  O   UNL     1       3.450   3.022  20.062  0.00  0.00    +0.000 OA
ATOM      8  N   UNL     1       4.569   3.283  18.096  0.00  0.00    +0.000 N 
ATOM      9  C   UNL     1       5.013   4.054  16.994  0.00  0.00    +0.000 A 
ATOM     10  C   UNL     1       5.853   3.462  16.051  0.00  0.00    +0.000 A 
ATOM     11  C   UNL     1       6.326   4.219  14.979  0.00  0.00    +0.000 A 
ATOM     12  C   UNL     1       5.956   5.560  14.841  0.00  0.00    +0.000 A 
ATOM     13  C   UNL     1       5.103   6.158  15.773  0.00  0.00    +0.000 A 
ATOM     14  C   UNL     1       4.629   5.407  16.849  0.00  0.00    +0.000 A 
ATOM     15  H   UNL     1       4.851   2.317  18.186  0.00  0.00    +0.000 HD
ENDROOT
BRANCH   1  21
ATOM     16  C   UNL     1       0.138  11.436  18.839  0.00  0.00    +0.000 C 
ATOM     17  C   UNL     1       0.534  10.250  19.668  0.00  0.00    +0.000 A 
ATOM     18  C   UNL     1       0.129  10.132  21.001  0.00  0.00    +0.000 A 
ATOM     19  C   UNL     1       0.488   9.010  21.750  0.00  0.00    +0.000 A 
ATOM     20  C   UNL     1       1.252   7.989  21.177  0.00  0.00    +0.000 A 
ATOM     21  C   UNL     1       1.676   8.098  19.847  0.00  0.00    +0.000 A 
ATOM     22  C   UNL     1       1.317   9.234  19.100  0.00  0.00    +0.000 A 
ENDBRANCH   1  21
TORSDOF 1
ENDMDL
MODEL 9
REMARK VINA RESULT:      -8.1      2.000      7.046
REMARK  Name = 
REMARK  2 active torsions:
REMARK  status: ('A' for Active; 'I' for Inactive)
REMARK    1  A    between atoms: C_1  and  C_2
REMARK    2  A    between atoms: C_6  and  N_7
REMARK                            x       y       z     vdW  Elec       q    Type
REMARK                         _______ _______ _______ _____ _____    ______ ____
ROOT
ATOM      1  N   UNL     1       5.364   4.919  15.697  0.00  0.00    +0.000 N 
ATOM      2  C   UNL     1       4.627   6.046  16.027  0.00  0.00    +0.000 A 
ATOM      3  C   UNL     1       4.164   5.842  17.300  0.00  0.00    +0.000 A 
ATOM      4  C   UNL     1       4.682   4.595  17.699  0.00  0.00    +0.000 A 
ATOM      5  N   UNL     1       5.386   4.018  16.719  0.00  0.00    +0.000 NA
ATOM      6  C   UNL     1       4.439   4.058  19.039  0.00  0.00    +0.000 A 
ATOM      7  O   UNL     1       4.862   2.981  19.457  0.00  0.00    +0.000 OA
ATOM      8  N   UNL     1       3.670   4.880  19.855  0.00  0.00    +0.000 N 
ATOM      9  C   UNL     1       3.113   6.122  19.462  0.00  0.00    +0.000 A 
ATOM     10  C   UNL     1       2.320   6.824  20.369  0.00  0.00    +0.000 A 
ATOM     11  C   UNL     1       1.738   8.032  19.984  0.00  0.00    +0.000 A 
ATOM     12  C   UNL     1       1.952   8.543  18.701  0.00  0.00    +0.000 A 
ATOM     13  C   UNL     1       2.757   7.854  17.789  0.00  0.00    +0.000 A 
ATOM     14  C   UNL     1       3.339   6.645  18.167  0.00  0.00    +0.000 A 
ATOM     15  H   UNL     1       3.500   4.520  20.784  0.00  0.00    +0.000 HD
ENDROOT
BRANCH   1  21
ATOM     16  C   UNL     1       5.594   2.350  11.471  0.00  0.00    +0.000 C 
ATOM     17  C   UNL     1       6.181   3.375  12.397  0.00  0.00    +0.000 A 
ATOM     18  C   UNL     1       7.358   4.054  12.072  0.00  0.00    +0.000 A 
ATOM     19  C   UNL     1       7.877   5.020  12.935  0.00  0.00    +0.000 A 
ATOM     20  C   UNL     1       7.223   5.324  14.133  0.00  0.00    +0.000 A 
ATOM     21  C   UNL     1       6.050   4.644  14.480  0.00  0.00    +0.000 A 
ATOM     22  C   UNL     1       5.537   3.668  13.608  0.00  0.00    +0.000 A 
ENDBRANCH   1  21
TORSDOF 1
ENDMDL
