MODEL 1
REMARK VINA RESULT:      -7.6      0.000      0.000
REMARK  Name = 
REMARK  6 active torsions:
REMARK  status: ('A' for Active; 'I' for Inactive)
REMARK    1  A    between atoms: C_1  and  O_2
REMARK    2  A    between atoms: O_2  and  C_3
REMARK    3  A    between atoms: C_12  and  C_13
REMARK    4  A    between atoms: C_16  and  C_17
REMARK    5  A    between atoms: N_21  and  C_22
REMARK    6  A    between atoms: C_26  and  N_27
REMARK                            x       y       z     vdW  Elec       q    Type
REMARK                         _______ _______ _______ _____ _____    ______ ____
ROOT
ATOM      1  C   UNL     1       1.560  16.042  18.956  0.00  0.00    +0.000 A 
ATOM      2  C   UNL     1       0.716  16.975  19.569  0.00  0.00    +0.000 A 
ATOM      3  C   UNL     1      -0.317  16.547  20.389  0.00  0.00    +0.000 A 
ATOM      4  C   UNL     1      -0.528  15.185  20.575  0.00  0.00    +0.000 A 
ATOM      5  C   UNL     1       0.233  14.229  19.865  0.00  0.00    +0.000 A 
ATOM      6  C   UNL     1       1.325  14.659  19.071  0.00  0.00    +0.000 A 
ATOM      7  N   UNL     1       2.137  13.790  18.442  0.00  0.00    +0.000 NA
ATOM      8  C   UNL     1       1.959  12.461  18.559  0.00  0.00    +0.000 A 
ATOM      9  C   UNL     1       0.907  11.937  19.311  0.00  0.00    +0.000 A 
ATOM     10  C   UNL     1       0.493  10.620  19.668  0.00  0.00    +0.000 A 
ATOM     11  N   UNL     1      -0.614  10.663  20.418  0.00  0.00    +0.000 NA
ATOM     12  N   UNL     1      -0.993  11.974  20.425  0.00  0.00    +0.000 N 
ATOM     13  C   UNL     1      -0.004  12.813  19.905  0.00  0.00    +0.000 A 
ENDROOT
BRANCH  10  14
ATOM     14  C   UNL     1       1.143   9.363  19.263  0.00  0.00    +0.000 A 
ATOM     15  C   UNL     1       1.404   8.364  20.213  0.00  0.00    +0.000 A 
ATOM     16  C   UNL     1       2.218   7.271  19.904  0.00  0.00    +0.000 A 
ATOM     17  C   UNL     1       2.755   7.131  18.623  0.00  0.00    +0.000 A 
ATOM     18  C   UNL     1       3.689   5.999  18.309  0.00  0.00    +0.000 C 
ATOM     19  C   UNL     1       2.412   8.070  17.642  0.00  0.00    +0.000 A 
ATOM     20  C   UNL     1       1.615   9.180  17.958  0.00  0.00    +0.000 A 
ENDBRANCH  10  14
BRANCH  12  21
ATOM     21  C   UNL     1      -2.307  12.298  20.883  0.00  0.00    +0.000 A 
ATOM     22  C   UNL     1      -3.343  12.563  19.976  0.00  0.00    +0.000 A 
ATOM     23  C   UNL     1      -4.597  12.986  20.427  0.00  0.00    +0.000 A 
ATOM     24  C   UNL     1      -4.850  13.087  21.792  0.00  0.00    +0.000 A 
ATOM     25  C   UNL     1      -3.847  12.734  22.708  0.00  0.00    +0.000 A 
ATOM     26  C   UNL     1      -2.576  12.329  22.262  0.00  0.00    +0.000 A 
BRANCH  25  27
ATOM     27  N   UNL     1      -4.132  12.812  24.142  0.00  0.00    +0.000 N 
ATOM     28  O   UNL     1      -5.075  12.132  24.581  0.00  0.00    +0.000 OA
ATOM     29  O   UNL     1      -3.428  13.554  24.839  0.00  0.00    +0.000 OA
ENDBRANCH  25  27
ENDBRANCH  12  21
BRANCH   1  31
ATOM     30  C   UNL     1       2.311  17.332  17.111  0.00  0.00    +0.000 C 
ATOM     31  O   UNL     1       2.625  16.431  18.167  0.00  0.00    +0.000 OA
ENDBRANCH   1  31
TORSDOF 4
ENDMDL
MODEL 2
REMARK VINA RESULT:      -7.6      0.528      1.013
REMARK  Name = 
REMARK  6 active torsions:
REMARK  status: ('A' for Active; 'I' for Inactive)
REMARK    1  A    between atoms: C_1  and  O_2
REMARK    2  A    between atoms: O_2  and  C_3
REMARK    3  A    between atoms: C_12  and  C_13
REMARK    4  A    between atoms: C_16  and  C_17
REMARK    5  A    between atoms: N_21  and  C_22
REMARK    6  A    between atoms: C_26  and  N_27
REMARK                            x       y       z     vdW  Elec       q    Type
REMARK                         _______ _______ _______ _____ _____    ______ ____
ROOT
ATOM      1  C   UNL     1       1.615  15.973  18.600  0.00  0.00    +0.000 A 
ATOM      2  C   UNL     1       0.741  16.916  19.153  0.00  0.00    +0.000 A 
ATOM      3  C   UNL     1      -0.275  16.508  20.006  0.00  0.00    +0.000 A 
ATOM      4  C   UNL     1      -0.438  15.156  20.283  0.00  0.00    +0.000 A 
ATOM      5  C   UNL     1       0.353  14.181  19.634  0.00  0.00    +0.000 A 
ATOM      6  C   UNL     1       1.428  14.594  18.807  0.00  0.00    +0.000 A 
ATOM      7  N   UNL     1       2.267  13.714  18.234  0.00  0.00    +0.000 NA
ATOM      8  C   UNL     1       2.136  12.391  18.439  0.00  0.00    +0.000 A 
ATOM      9  C   UNL     1       1.104  11.882  19.230  0.00  0.00    +0.000 A 
ATOM     10  C   UNL     1       0.738  10.578  19.676  0.00  0.00    +0.000 A 
ATOM     11  N   UNL     1      -0.368  10.633  20.427  0.00  0.00    +0.000 NA
ATOM     12  N   UNL     1      -0.792  11.928  20.349  0.00  0.00    +0.000 N 
ATOM     13  C   UNL     1       0.166  12.763  19.769  0.00  0.00    +0.000 A 
ENDROOT
BRANCH  10  14
ATOM     14  C   UNL     1       1.430   9.320  19.352  0.00  0.00    +0.000 A 
ATOM     15  C   UNL     1       1.792   9.034  18.026  0.00  0.00    +0.000 A 
ATOM     16  C   UNL     1       2.237   7.761  17.660  0.00  0.00    +0.000 A 
ATOM     17  C   UNL     1       2.369   6.756  18.620  0.00  0.00    +0.000 A 
ATOM     18  C   UNL     1       2.774   5.368  18.218  0.00  0.00    +0.000 C 
ATOM     19  C   UNL     1       2.108   7.067  19.961  0.00  0.00    +0.000 A 
ATOM     20  C   UNL     1       1.639   8.337  20.326  0.00  0.00    +0.000 A 
ENDBRANCH  10  14
BRANCH  12  21
ATOM     21  C   UNL     1      -2.115  12.236  20.792  0.00  0.00    +0.000 A 
ATOM     22  C   UNL     1      -3.154  12.444  19.873  0.00  0.00    +0.000 A 
ATOM     23  C   UNL     1      -4.419  12.853  20.305  0.00  0.00    +0.000 A 
ATOM     24  C   UNL     1      -4.679  12.996  21.665  0.00  0.00    +0.000 A 
ATOM     25  C   UNL     1      -3.672  12.700  22.595  0.00  0.00    +0.000 A 
ATOM     26  C   UNL     1      -2.390  12.310  22.168  0.00  0.00    +0.000 A 
BRANCH  25  27
ATOM     27  N   UNL     1      -3.964  12.822  24.026  0.00  0.00    +0.000 N 
ATOM     28  O   UNL     1      -4.530  11.866  24.582  0.00  0.00    +0.000 OA
ATOM     29  O   UNL     1      -3.641  13.870  24.601  0.00  0.00    +0.000 OA
ENDBRANCH  25  27
ENDBRANCH  12  21
BRANCH   1  31
ATOM     30  C   UNL     1       3.857  16.738  18.449  0.00  0.00    +0.000 C 
ATOM     31  O   UNL     1       2.663  16.346  17.781  0.00  0.00    +0.000 OA
ENDBRANCH   1  31
TORSDOF 4
ENDMDL
MODEL 3
REMARK VINA RESULT:      -7.6      2.326      2.851
REMARK  Name = 
REMARK  6 active torsions:
REMARK  status: ('A' for Active; 'I' for Inactive)
REMARK    1  A    between atoms: C_1  and  O_2
REMARK    2  A    between atoms: O_2  and  C_3
REMARK    3  A    between atoms: C_12  and  C_13
REMARK    4  A    between atoms: C_16  and  C_17
REMARK    5  A    between atoms: N_21  and  C_22
REMARK    6  A    between atoms: C_26  and  N_27
REMARK                            x       y       z     vdW  Elec       q    Type
REMARK                         _______ _______ _______ _____ _____    ______ ____
ROOT
ATOM      1  C   UNL     1       1.603  15.939  18.625  0.00  0.00    +0.000 A 
ATOM      2  C   UNL     1       0.580  16.847  18.922  0.00  0.00    +0.000 A 
ATOM      3  C   UNL     1      -0.621  16.396  19.450  0.00  0.00    +0.000 A 
ATOM      4  C   UNL     1      -0.813  15.035  19.656  0.00  0.00    +0.000 A 
ATOM      5  C   UNL     1       0.158  14.094  19.244  0.00  0.00    +0.000 A 
ATOM      6  C   UNL     1       1.409  14.551  18.757  0.00  0.00    +0.000 A 
ATOM      7  N   UNL     1       2.402  13.705  18.432  0.00  0.00    +0.000 NA
ATOM      8  C   UNL     1       2.259  12.375  18.578  0.00  0.00    +0.000 A 
ATOM      9  C   UNL     1       1.063  11.824  19.042  0.00  0.00    +0.000 A 
ATOM     10  C   UNL     1       0.627  10.503  19.353  0.00  0.00    +0.000 A 
ATOM     11  N   UNL     1      -0.646  10.513  19.764  0.00  0.00    +0.000 NA
ATOM     12  N   UNL     1      -1.071  11.798  19.585  0.00  0.00    +0.000 N 
ATOM     13  C   UNL     1      -0.015  12.669  19.306  0.00  0.00    +0.000 A 
ENDROOT
BRANCH  10  14
ATOM     14  C   UNL     1       1.421   9.269  19.222  0.00  0.00    +0.000 A 
ATOM     15  C   UNL     1       1.996   8.927  17.988  0.00  0.00    +0.000 A 
ATOM     16  C   UNL     1       2.553   7.663  17.780  0.00  0.00    +0.000 A 
ATOM     17  C   UNL     1       2.584   6.726  18.814  0.00  0.00    +0.000 A 
ATOM     18  C   UNL     1       3.114   5.343  18.573  0.00  0.00    +0.000 C 
ATOM     19  C   UNL     1       2.106   7.100  20.077  0.00  0.00    +0.000 A 
ATOM     20  C   UNL     1       1.526   8.360  20.280  0.00  0.00    +0.000 A 
ENDBRANCH  10  14
BRANCH  12  21
ATOM     21  C   UNL     1      -2.474  12.062  19.641  0.00  0.00    +0.000 A 
ATOM     22  C   UNL     1      -3.070  12.555  20.811  0.00  0.00    +0.000 A 
ATOM     23  C   UNL     1      -4.457  12.707  20.898  0.00  0.00    +0.000 A 
ATOM     24  C   UNL     1      -5.259  12.428  19.795  0.00  0.00    +0.000 A 
ATOM     25  C   UNL     1      -4.663  12.022  18.592  0.00  0.00    +0.000 A 
ATOM     26  C   UNL     1      -3.270  11.845  18.504  0.00  0.00    +0.000 A 
BRANCH  25  27
ATOM     27  N   UNL     1      -5.512  11.762  17.427  0.00  0.00    +0.000 N 
ATOM     28  O   UNL     1      -5.014  11.131  16.480  0.00  0.00    +0.000 OA
ATOM     29  O   UNL     1      -6.674  12.189  17.443  0.00  0.00    +0.000 OA
ENDBRANCH  25  27
ENDBRANCH  12  21
BRANCH   1  31
ATOM     30  C   UNL     1       2.783  17.127  16.943  0.00  0.00    +0.000 C 
ATOM     31  O   UNL     1       2.826  16.355  18.138  0.00  0.00    +0.000 OA
ENDBRANCH   1  31
TORSDOF 4
ENDMDL
MODEL 4
REMARK VINA RESULT:      -7.5      2.388      2.784
REMARK  Name = 
REMARK  6 active torsions:
REMARK  status: ('A' for Active; 'I' for Inactive)
REMARK    1  A    between atoms: C_1  and  O_2
REMARK    2  A    between atoms: O_2  and  C_3
REMARK    3  A    between atoms: C_12  and  C_13
REMARK    4  A    between atoms: C_16  and  C_17
REMARK    5  A    between atoms: N_21  and  C_22
REMARK    6  A    between atoms: C_26  and  N_27
REMARK                            x       y       z     vdW  Elec       q    Type
REMARK                         _______ _______ _______ _____ _____    ______ ____
ROOT
ATOM      1  C   UNL     1       2.122  15.486  18.320  0.00  0.00    +0.000 A 
ATOM      2  C   UNL     1       1.181  16.470  18.645  0.00  0.00    +0.000 A 
ATOM      3  C   UNL     1      -0.029  16.113  19.221  0.00  0.00    +0.000 A 
ATOM      4  C   UNL     1      -0.314  14.771  19.447  0.00  0.00    +0.000 A 
ATOM      5  C   UNL     1       0.570  13.757  19.010  0.00  0.00    +0.000 A 
ATOM      6  C   UNL     1       1.831  14.118  18.472  0.00  0.00    +0.000 A 
ATOM      7  N   UNL     1       2.746  13.198  18.120  0.00  0.00    +0.000 NA
ATOM      8  C   UNL     1       2.511  11.883  18.284  0.00  0.00    +0.000 A 
ATOM      9  C   UNL     1       1.297  11.426  18.797  0.00  0.00    +0.000 A 
ATOM     10  C   UNL     1       0.776  10.142  19.136  0.00  0.00    +0.000 A 
ATOM     11  N   UNL     1      -0.477  10.250  19.593  0.00  0.00    +0.000 NA
ATOM     12  N   UNL     1      -0.812  11.562  19.417  0.00  0.00    +0.000 N 
ATOM     13  C   UNL     1       0.294  12.350  19.091  0.00  0.00    +0.000 A 
ENDROOT
BRANCH  10  14
ATOM     14  C   UNL     1       1.471   8.853  18.988  0.00  0.00    +0.000 A 
ATOM     15  C   UNL     1       1.536   7.958  20.067  0.00  0.00    +0.000 A 
ATOM     16  C   UNL     1       2.377   6.842  20.027  0.00  0.00    +0.000 A 
ATOM     17  C   UNL     1       3.140   6.574  18.889  0.00  0.00    +0.000 A 
ATOM     18  C   UNL     1       4.099   5.420  18.871  0.00  0.00    +0.000 C 
ATOM     19  C   UNL     1       3.000   7.407  17.771  0.00  0.00    +0.000 A 
ATOM     20  C   UNL     1       2.174   8.540  17.820  0.00  0.00    +0.000 A 
ENDBRANCH  10  14
BRANCH  12  21
ATOM     21  C   UNL     1      -2.189  11.929  19.523  0.00  0.00    +0.000 A 
ATOM     22  C   UNL     1      -2.665  12.633  20.638  0.00  0.00    +0.000 A 
ATOM     23  C   UNL     1      -4.030  12.894  20.789  0.00  0.00    +0.000 A 
ATOM     24  C   UNL     1      -4.927  12.509  19.798  0.00  0.00    +0.000 A 
ATOM     25  C   UNL     1      -4.448  11.885  18.636  0.00  0.00    +0.000 A 
ATOM     26  C   UNL     1      -3.079  11.600  18.486  0.00  0.00    +0.000 A 
BRANCH  25  27
ATOM     27  N   UNL     1      -5.396  11.513  17.583  0.00  0.00    +0.000 N 
ATOM     28  O   UNL     1      -4.933  11.231  16.465  0.00  0.00    +0.000 OA
ATOM     29  O   UNL     1      -6.603  11.507  17.858  0.00  0.00    +0.000 OA
ENDBRANCH  25  27
ENDBRANCH  12  21
BRANCH   1  31
ATOM     30  C   UNL     1       4.126  16.740  18.531  0.00  0.00    +0.000 C 
ATOM     31  O   UNL     1       3.354  15.807  17.784  0.00  0.00    +0.000 OA
ENDBRANCH   1  31
TORSDOF 4
ENDMDL
MODEL 5
REMARK VINA RESULT:      -7.3      1.265      1.691
REMARK  Name = 
REMARK  6 active torsions:
REMARK  status: ('A' for Active; 'I' for Inactive)
REMARK    1  A    between atoms: C_1  and  O_2
REMARK    2  A    between atoms: O_2  and  C_3
REMARK    3  A    between atoms: C_12  and  C_13
REMARK    4  A    between atoms: C_16  and  C_17
REMARK    5  A    between atoms: N_21  and  C_22
REMARK    6  A    between atoms: C_26  and  N_27
REMARK                            x       y       z     vdW  Elec       q    Type
REMARK                         _______ _______ _______ _____ _____    ______ ____
ROOT
ATOM      1  C   UNL     1       1.415  15.961  18.787  0.00  0.00    +0.000 A 
ATOM      2  C   UNL     1       0.340  16.815  19.061  0.00  0.00    +0.000 A 
ATOM      3  C   UNL     1      -0.872  16.294  19.489  0.00  0.00    +0.000 A 
ATOM      4  C   UNL     1      -1.023  14.917  19.615  0.00  0.00    +0.000 A 
ATOM      5  C   UNL     1       0.010  14.035  19.222  0.00  0.00    +0.000 A 
ATOM      6  C   UNL     1       1.268  14.562  18.838  0.00  0.00    +0.000 A 
ATOM      7  N   UNL     1       2.313  13.771  18.538  0.00  0.00    +0.000 NA
ATOM      8  C   UNL     1       2.214  12.431  18.609  0.00  0.00    +0.000 A 
ATOM      9  C   UNL     1       1.015  11.813  18.968  0.00  0.00    +0.000 A 
ATOM     10  C   UNL     1       0.613  10.463  19.186  0.00  0.00    +0.000 A 
ATOM     11  N   UNL     1      -0.682  10.405  19.514  0.00  0.00    +0.000 NA
ATOM     12  N   UNL     1      -1.146  11.681  19.370  0.00  0.00    +0.000 N 
ATOM     13  C   UNL     1      -0.110  12.604  19.203  0.00  0.00    +0.000 A 
ENDROOT
BRANCH  10  14
ATOM     14  C   UNL     1       1.462   9.268  19.046  0.00  0.00    +0.000 A 
ATOM     15  C   UNL     1       2.092   8.988  17.824  0.00  0.00    +0.000 A 
ATOM     16  C   UNL     1       2.709   7.754  17.598  0.00  0.00    +0.000 A 
ATOM     17  C   UNL     1       2.745   6.788  18.604  0.00  0.00    +0.000 A 
ATOM     18  C   UNL     1       3.340   5.436  18.341  0.00  0.00    +0.000 C 
ATOM     19  C   UNL     1       2.209   7.103  19.860  0.00  0.00    +0.000 A 
ATOM     20  C   UNL     1       1.569   8.331  20.080  0.00  0.00    +0.000 A 
ENDBRANCH  10  14
BRANCH  12  21
ATOM     21  C   UNL     1      -2.560  11.890  19.350  0.00  0.00    +0.000 A 
ATOM     22  C   UNL     1      -3.322  11.554  18.222  0.00  0.00    +0.000 A 
ATOM     23  C   UNL     1      -4.686  11.861  18.164  0.00  0.00    +0.000 A 
ATOM     24  C   UNL     1      -5.315  12.450  19.257  0.00  0.00    +0.000 A 
ATOM     25  C   UNL     1      -4.579  12.705  20.423  0.00  0.00    +0.000 A 
ATOM     26  C   UNL     1      -3.203  12.419  20.481  0.00  0.00    +0.000 A 
BRANCH  25  27
ATOM     27  N   UNL     1      -5.256  13.294  21.580  0.00  0.00    +0.000 N 
ATOM     28  O   UNL     1      -6.459  13.581  21.460  0.00  0.00    +0.000 OA
ATOM     29  O   UNL     1      -4.597  13.482  22.611  0.00  0.00    +0.000 OA
ENDBRANCH  25  27
ENDBRANCH  12  21
BRANCH   1  31
ATOM     30  C   UNL     1       2.677  17.131  17.152  0.00  0.00    +0.000 C 
ATOM     31  O   UNL     1       2.649  16.446  18.400  0.00  0.00    +0.000 OA
ENDBRANCH   1  31
TORSDOF 4
ENDMDL
MODEL 6
REMARK VINA RESULT:      -7.2      2.169      2.640
REMARK  Name = 
REMARK  6 active torsions:
REMARK  status: ('A' for Active; 'I' for Inactive)
REMARK    1  A    between atoms: C_1  and  O_2
REMARK    2  A    between atoms: O_2  and  C_3
REMARK    3  A    between atoms: C_12  and  C_13
REMARK    4  A    between atoms: C_16  and  C_17
REMARK    5  A    between atoms: N_21  and  C_22
REMARK    6  A    between atoms: C_26  and  N_27
REMARK                            x       y       z     vdW  Elec       q    Type
REMARK                         _______ _______ _______ _____ _____    ______ ____
ROOT
ATOM      1  C   UNL     1       0.673  16.591  18.894  0.00  0.00    +0.000 A 
ATOM      2  C   UNL     1      -0.371  17.411  19.336  0.00  0.00    +0.000 A 
ATOM      3  C   UNL     1      -1.460  16.857  19.993  0.00  0.00    +0.000 A 
ATOM      4  C   UNL     1      -1.523  15.481  20.183  0.00  0.00    +0.000 A 
ATOM      5  C   UNL     1      -0.540  14.627  19.632  0.00  0.00    +0.000 A 
ATOM      6  C   UNL     1       0.603  15.190  19.010  0.00  0.00    +0.000 A 
ATOM      7  N   UNL     1       1.610  14.431  18.545  0.00  0.00    +0.000 NA
ATOM      8  C   UNL     1       1.587  13.091  18.671  0.00  0.00    +0.000 A 
ATOM      9  C   UNL     1       0.503  12.439  19.260  0.00  0.00    +0.000 A 
ATOM     10  C   UNL     1       0.209  11.082  19.585  0.00  0.00    +0.000 A 
ATOM     11  N   UNL     1      -1.001  10.985  20.147  0.00  0.00    +0.000 NA
ATOM     12  N   UNL     1      -1.541  12.236  20.055  0.00  0.00    +0.000 N 
ATOM     13  C   UNL     1      -0.596  13.192  19.675  0.00  0.00    +0.000 A 
ENDROOT
BRANCH  10  14
ATOM     14  C   UNL     1       1.072   9.918  19.326  0.00  0.00    +0.000 A 
ATOM     15  C   UNL     1       1.629   9.722  18.053  0.00  0.00    +0.000 A 
ATOM     16  C   UNL     1       2.257   8.518  17.719  0.00  0.00    +0.000 A 
ATOM     17  C   UNL     1       2.376   7.499  18.665  0.00  0.00    +0.000 A 
ATOM     18  C   UNL     1       2.981   6.178  18.289  0.00  0.00    +0.000 C 
ATOM     19  C   UNL     1       1.914   7.730  19.967  0.00  0.00    +0.000 A 
ATOM     20  C   UNL     1       1.264   8.929  20.296  0.00  0.00    +0.000 A 
ENDBRANCH  10  14
BRANCH  12  21
ATOM     21  C   UNL     1      -2.943  12.387  20.288  0.00  0.00    +0.000 A 
ATOM     22  C   UNL     1      -3.430  12.736  21.556  0.00  0.00    +0.000 A 
ATOM     23  C   UNL     1      -4.806  12.776  21.806  0.00  0.00    +0.000 A 
ATOM     24  C   UNL     1      -5.709  12.528  20.777  0.00  0.00    +0.000 A 
ATOM     25  C   UNL     1      -5.230  12.269  19.485  0.00  0.00    +0.000 A 
ATOM     26  C   UNL     1      -3.848  12.206  19.229  0.00  0.00    +0.000 A 
BRANCH  25  27
ATOM     27  N   UNL     1      -6.188  12.042  18.400  0.00  0.00    +0.000 N 
ATOM     28  O   UNL     1      -5.735  11.734  17.285  0.00  0.00    +0.000 OA
ATOM     29  O   UNL     1      -7.394  12.177  18.648  0.00  0.00    +0.000 OA
ENDBRANCH  25  27
ENDBRANCH  12  21
BRANCH   1  31
ATOM     30  C   UNL     1       1.544  17.907  17.121  0.00  0.00    +0.000 C 
ATOM     31  O   UNL     1       1.793  17.110  18.274  0.00  0.00    +0.000 OA
ENDBRANCH   1  31
TORSDOF 4
ENDMDL
MODEL 7
REMARK VINA RESULT:      -7.2      1.386      1.696
REMARK  Name = 
REMARK  6 active torsions:
REMARK  status: ('A' for Active; 'I' for Inactive)
REMARK    1  A    between atoms: C_1  and  O_2
REMARK    2  A    between atoms: O_2  and  C_3
REMARK    3  A    between atoms: C_12  and  C_13
REMARK    4  A    between atoms: C_16  and  C_17
REMARK    5  A    between atoms: N_21  and  C_22
REMARK    6  A    between atoms: C_26  and  N_27
REMARK                            x       y       z     vdW  Elec       q    Type
REMARK                         _______ _______ _______ _____ _____    ______ ____
ROOT
ATOM      1  C   UNL     1       1.712  15.934  18.858  0.00  0.00    +0.000 A 
ATOM      2  C   UNL     1       1.036  16.895  19.617  0.00  0.00    +0.000 A 
ATOM      3  C   UNL     1       0.197  16.503  20.650  0.00  0.00    +0.000 A 
ATOM      4  C   UNL     1       0.009  15.150  20.907  0.00  0.00    +0.000 A 
ATOM      5  C   UNL     1       0.583  14.165  20.071  0.00  0.00    +0.000 A 
ATOM      6  C   UNL     1       1.485  14.558  19.050  0.00  0.00    +0.000 A 
ATOM      7  N   UNL     1       2.128  13.662  18.281  0.00  0.00    +0.000 NA
ATOM      8  C   UNL     1       1.957  12.339  18.462  0.00  0.00    +0.000 A 
ATOM      9  C   UNL     1       1.084  11.851  19.435  0.00  0.00    +0.000 A 
ATOM     10  C   UNL     1       0.736  10.549  19.901  0.00  0.00    +0.000 A 
ATOM     11  N   UNL     1      -0.183  10.628  20.871  0.00  0.00    +0.000 NA
ATOM     12  N   UNL     1      -0.529  11.947  20.931  0.00  0.00    +0.000 N 
ATOM     13  C   UNL     1       0.338  12.755  20.191  0.00  0.00    +0.000 A 
ENDROOT
BRANCH  10  14
ATOM     14  C   UNL     1       1.262   9.272  19.393  0.00  0.00    +0.000 A 
ATOM     15  C   UNL     1       1.549   8.223  20.280  0.00  0.00    +0.000 A 
ATOM     16  C   UNL     1       2.257   7.095  19.856  0.00  0.00    +0.000 A 
ATOM     17  C   UNL     1       2.659   6.973  18.525  0.00  0.00    +0.000 A 
ATOM     18  C   UNL     1       3.484   5.799  18.084  0.00  0.00    +0.000 C 
ATOM     19  C   UNL     1       2.285   7.969  17.614  0.00  0.00    +0.000 A 
ATOM     20  C   UNL     1       1.594   9.111  18.043  0.00  0.00    +0.000 A 
ENDBRANCH  10  14
BRANCH  12  21
ATOM     21  C   UNL     1      -1.708  12.305  21.655  0.00  0.00    +0.000 A 
ATOM     22  C   UNL     1      -1.659  12.570  23.031  0.00  0.00    +0.000 A 
ATOM     23  C   UNL     1      -2.830  12.812  23.755  0.00  0.00    +0.000 A 
ATOM     24  C   UNL     1      -4.058  12.855  23.101  0.00  0.00    +0.000 A 
ATOM     25  C   UNL     1      -4.106  12.682  21.710  0.00  0.00    +0.000 A 
ATOM     26  C   UNL     1      -2.934  12.417  20.977  0.00  0.00    +0.000 A 
BRANCH  25  27
ATOM     27  N   UNL     1      -5.398  12.761  21.025  0.00  0.00    +0.000 N 
ATOM     28  O   UNL     1      -6.243  11.888  21.285  0.00  0.00    +0.000 OA
ATOM     29  O   UNL     1      -5.578  13.685  20.220  0.00  0.00    +0.000 OA
ENDBRANCH  25  27
ENDBRANCH  12  21
BRANCH   1  31
ATOM     30  C   UNL     1       3.868  16.740  18.276  0.00  0.00    +0.000 C 
ATOM     31  O   UNL     1       2.587  16.287  17.849  0.00  0.00    +0.000 OA
ENDBRANCH   1  31
TORSDOF 4
ENDMDL
MODEL 8
REMARK VINA RESULT:      -7.0      0.990      1.175
REMARK  Name = 
REMARK  6 active torsions:
REMARK  status: ('A' for Active; 'I' for Inactive)
REMARK    1  A    between atoms: C_1  and  O_2
REMARK    2  A    between atoms: O_2  and  C_3
REMARK    3  A    between atoms: C_12  and  C_13
REMARK    4  A    between atoms: C_16  and  C_17
REMARK    5  A    between atoms: N_21  and  C_22
REMARK    6  A    between atoms: C_26  and  N_27
REMARK                            x       y       z     vdW  Elec       q    Type
REMARK                         _______ _______ _______ _____ _____    ______ ____
ROOT
ATOM      1  C   UNL     1       1.787  16.140  20.411  0.00  0.00    +0.000 A 
ATOM      2  C   UNL     1       0.910  17.002  21.080  0.00  0.00    +0.000 A 
ATOM      3  C   UNL     1      -0.240  16.502  21.674  0.00  0.00    +0.000 A 
ATOM      4  C   UNL     1      -0.531  15.146  21.574  0.00  0.00    +0.000 A 
ATOM      5  C   UNL     1       0.276  14.285  20.796  0.00  0.00    +0.000 A 
ATOM      6  C   UNL     1       1.481  14.778  20.235  0.00  0.00    +0.000 A 
ATOM      7  N   UNL     1       2.331  13.986  19.559  0.00  0.00    +0.000 NA
ATOM      8  C   UNL     1       2.083  12.672  19.402  0.00  0.00    +0.000 A 
ATOM      9  C   UNL     1       0.919  12.092  19.909  0.00  0.00    +0.000 A 
ATOM     10  C   UNL     1       0.407  10.762  19.960  0.00  0.00    +0.000 A 
ATOM     11  N   UNL     1      -0.787  10.742  20.564  0.00  0.00    +0.000 NA
ATOM     12  N   UNL     1      -1.107  12.053  20.771  0.00  0.00    +0.000 N 
ATOM     13  C   UNL     1      -0.023  12.904  20.541  0.00  0.00    +0.000 A 
ENDROOT
BRANCH  10  14
ATOM     14  C   UNL     1       1.051   9.558  19.409  0.00  0.00    +0.000 A 
ATOM     15  C   UNL     1       1.389   8.489  20.253  0.00  0.00    +0.000 A 
ATOM     16  C   UNL     1       2.199   7.444  19.800  0.00  0.00    +0.000 A 
ATOM     17  C   UNL     1       2.656   7.425  18.482  0.00  0.00    +0.000 A 
ATOM     18  C   UNL     1       3.587   6.344  18.014  0.00  0.00    +0.000 C 
ATOM     19  C   UNL     1       2.236   8.436  17.608  0.00  0.00    +0.000 A 
ATOM     20  C   UNL     1       1.442   9.497  18.067  0.00  0.00    +0.000 A 
ENDBRANCH  10  14
BRANCH  12  21
ATOM     21  C   UNL     1      -2.456  12.374  21.118  0.00  0.00    +0.000 A 
ATOM     22  C   UNL     1      -3.390  12.725  20.133  0.00  0.00    +0.000 A 
ATOM     23  C   UNL     1      -4.676  13.145  20.486  0.00  0.00    +0.000 A 
ATOM     24  C   UNL     1      -5.064  13.157  21.822  0.00  0.00    +0.000 A 
ATOM     25  C   UNL     1      -4.165  12.719  22.806  0.00  0.00    +0.000 A 
ATOM     26  C   UNL     1      -2.862  12.317  22.461  0.00  0.00    +0.000 A 
BRANCH  25  27
ATOM     27  N   UNL     1      -4.592  12.704  24.207  0.00  0.00    +0.000 N 
ATOM     28  O   UNL     1      -3.801  13.148  25.056  0.00  0.00    +0.000 OA
ATOM     29  O   UNL     1      -5.710  12.244  24.473  0.00  0.00    +0.000 OA
ENDBRANCH  25  27
ENDBRANCH  12  21
BRANCH   1  31
ATOM     30  C   UNL     1       3.905  17.158  20.751  0.00  0.00    +0.000 C 
ATOM     31  O   UNL     1       2.962  16.595  19.845  0.00  0.00    +0.000 OA
ENDBRANCH   1  31
TORSDOF 4
ENDMDL
MODEL 9
REMARK VINA RESULT:      -6.9      1.913      2.497
REMARK  Name = 
REMARK  6 active torsions:
REMARK  status: ('A' for Active; 'I' for Inactive)
REMARK    1  A    between atoms: C_1  and  O_2
REMARK    2  A    between atoms: O_2  and  C_3
REMARK    3  A    between atoms: C_12  and  C_13
REMARK    4  A    between atoms: C_16  and  C_17
REMARK    5  A    between atoms: N_21  and  C_22
REMARK    6  A    between atoms: C_26  and  N_27
REMARK                            x       y       z     vdW  Elec       q    Type
REMARK                         _______ _______ _______ _____ _____    ______ ____
ROOT
ATOM      1  C   UNL     1       0.496  15.847  20.499  0.00  0.00    +0.000 A 
ATOM      2  C   UNL     1      -0.701  16.556  20.652  0.00  0.00    +0.000 A 
ATOM      3  C   UNL     1      -1.918  15.895  20.558  0.00  0.00    +0.000 A 
ATOM      4  C   UNL     1      -1.942  14.533  20.280  0.00  0.00    +0.000 A 
ATOM      5  C   UNL     1      -0.749  13.829  19.997  0.00  0.00    +0.000 A 
ATOM      6  C   UNL     1       0.499  14.484  20.148  0.00  0.00    +0.000 A 
ATOM      7  N   UNL     1       1.668  13.843  19.977  0.00  0.00    +0.000 NA
ATOM      8  C   UNL     1       1.705  12.532  19.673  0.00  0.00    +0.000 A 
ATOM      9  C   UNL     1       0.531  11.799  19.495  0.00  0.00    +0.000 A 
ATOM     10  C   UNL     1       0.239  10.428  19.234  0.00  0.00    +0.000 A 
ATOM     11  N   UNL     1      -1.082  10.238  19.141  0.00  0.00    +0.000 NA
ATOM     12  N   UNL     1      -1.629  11.488  19.196  0.00  0.00    +0.000 N 
ATOM     13  C   UNL     1      -0.697  12.456  19.581  0.00  0.00    +0.000 A 
ENDROOT
BRANCH  10  14
ATOM     14  C   UNL     1       1.223   9.347  19.051  0.00  0.00    +0.000 A 
ATOM     15  C   UNL     1       1.890   9.199  17.826  0.00  0.00    +0.000 A 
ATOM     16  C   UNL     1       2.648   8.058  17.552  0.00  0.00    +0.000 A 
ATOM     17  C   UNL     1       2.789   7.057  18.515  0.00  0.00    +0.000 A 
ATOM     18  C   UNL     1       3.540   5.796  18.198  0.00  0.00    +0.000 C 
ATOM     19  C   UNL     1       2.210   7.248  19.776  0.00  0.00    +0.000 A 
ATOM     20  C   UNL     1       1.431   8.383  20.043  0.00  0.00    +0.000 A 
ENDBRANCH  10  14
BRANCH  12  21
ATOM     21  C   UNL     1      -2.997  11.646  18.814  0.00  0.00    +0.000 A 
ATOM     22  C   UNL     1      -3.392  11.520  17.475  0.00  0.00    +0.000 A 
ATOM     23  C   UNL     1      -4.710  11.784  17.091  0.00  0.00    +0.000 A 
ATOM     24  C   UNL     1      -5.663  12.114  18.049  0.00  0.00    +0.000 A 
ATOM     25  C   UNL     1      -5.297  12.152  19.403  0.00  0.00    +0.000 A 
ATOM     26  C   UNL     1      -3.968  11.910  19.795  0.00  0.00    +0.000 A 
BRANCH  25  27
ATOM     27  N   UNL     1      -6.313  12.469  20.409  0.00  0.00    +0.000 N 
ATOM     28  O   UNL     1      -6.088  12.131  21.583  0.00  0.00    +0.000 OA
ATOM     29  O   UNL     1      -7.344  13.046  20.037  0.00  0.00    +0.000 OA
ENDBRANCH  25  27
ENDBRANCH  12  21
BRANCH   1  31
ATOM     30  C   UNL     1       1.857  17.720  19.977  0.00  0.00    +0.000 C 
ATOM     31  O   UNL     1       1.726  16.462  20.629  0.00  0.00    +0.000 OA
ENDBRANCH   1  31
TORSDOF 4
ENDMDL
