MODEL 1
REMARK VINA RESULT:      -6.7      0.000      0.000
REMARK  Name = 
REMARK  9 active torsions:
REMARK  status: ('A' for Active; 'I' for Inactive)
REMARK    1  A    between atoms: C_1  and  C_2
REMARK    2  A    between atoms: C_2  and  O_3
REMARK    3  A    between atoms: O_3  and  C_4
REMARK    4  A    between atoms: C_4  and  C_6
REMARK    5  A    between atoms: C_8  and  S_9
REMARK    6  A    between atoms: S_9  and  C_10
REMARK    7  A    between atoms: C_10  and  C_11
REMARK    8  A    between atoms: C_15  and  C_16
REMARK    9  A    between atoms: C_15  and  C_17
REMARK                            x       y       z     vdW  Elec       q    Type
REMARK                         _______ _______ _______ _____ _____    ______ ____
ROOT
ATOM      1  C   UNL     1       6.578   5.115  18.241  0.00  0.00    +0.000 A 
ATOM      2  S   UNL     1       7.086   4.605  16.687  0.00  0.00    +0.000 S 
ATOM      3  C   UNL     1       5.512   4.159  16.204  0.00  0.00    +0.000 A 
ATOM      4  C   UNL     1       4.600   4.337  17.228  0.00  0.00    +0.000 A 
ATOM      5  C   UNL     1       5.216   4.883  18.421  0.00  0.00    +0.000 A 
ATOM      6  C   UNL     1       4.407   5.209  19.665  0.00  0.00    +0.000 C 
ATOM      7  C   UNL     1       2.987   4.573  19.650  0.00  0.00    +0.000 C 
ATOM      8  C   UNL     1       2.092   5.269  20.694  0.00  0.00    +0.000 C 
ATOM      9  C   UNL     1       3.064   3.077  20.018  0.00  0.00    +0.000 C 
ATOM     10  C   UNL     1       2.345   4.753  18.257  0.00  0.00    +0.000 C 
ATOM     11  C   UNL     1       3.163   4.061  17.180  0.00  0.00    +0.000 C 
ATOM     12  O   UNL     1       2.635   3.327  16.350  0.00  0.00    +0.000 OA
ENDROOT
BRANCH   1  13
ATOM     13  C   UNL     1       7.515   5.745  19.165  0.00  0.00    +0.000 C 
ATOM     14  O   UNL     1       7.619   5.471  20.355  0.00  0.00    +0.000 OA
BRANCH  13  15
ATOM     15  O   UNL     1       8.206   6.746  18.548  0.00  0.00    +0.000 OA
BRANCH  15  17
ATOM     16  C   UNL     1       8.104   9.040  17.871  0.00  0.00    +0.000 C 
ATOM     17  C   UNL     1       7.435   7.679  17.783  0.00  0.00    +0.000 C 
ENDBRANCH  15  17
ENDBRANCH  13  15
ENDBRANCH   1  13
BRANCH   3  18
ATOM     18  S   UNL     1       5.225   3.635  14.552  0.00  0.00    +0.000 S 
BRANCH  18  19
ATOM     19  C   UNL     1       6.686   4.342  13.736  0.00  0.00    +0.000 C 
ATOM     20  C   UNL     1       6.746   3.885  12.291  0.00  0.00    +0.000 C 
ENDBRANCH  18  19
ENDBRANCH   3  18
TORSDOF 5
ENDMDL
MODEL 2
REMARK VINA RESULT:      -6.7      3.238      4.982
REMARK  Name = 
REMARK  9 active torsions:
REMARK  status: ('A' for Active; 'I' for Inactive)
REMARK    1  A    between atoms: C_1  and  C_2
REMARK    2  A    between atoms: C_2  and  O_3
REMARK    3  A    between atoms: O_3  and  C_4
REMARK    4  A    between atoms: C_4  and  C_6
REMARK    5  A    between atoms: C_8  and  S_9
REMARK    6  A    between atoms: S_9  and  C_10
REMARK    7  A    between atoms: C_10  and  C_11
REMARK    8  A    between atoms: C_15  and  C_16
REMARK    9  A    between atoms: C_15  and  C_17
REMARK                            x       y       z     vdW  Elec       q    Type
REMARK                         _______ _______ _______ _____ _____    ______ ____
ROOT
ATOM      1  C   UNL     1       4.217   6.363  17.356  0.00  0.00    +0.000 A 
ATOM      2  S   UNL     1       3.468   7.813  17.872  0.00  0.00    +0.000 S 
ATOM      3  C   UNL     1       2.568   7.036  19.096  0.00  0.00    +0.000 A 
ATOM      4  C   UNL     1       2.782   5.670  19.089  0.00  0.00    +0.000 A 
ATOM      5  C   UNL     1       3.733   5.269  18.070  0.00  0.00    +0.000 A 
ATOM      6  C   UNL     1       4.164   3.823  17.898  0.00  0.00    +0.000 C 
ATOM      7  C   UNL     1       3.237   2.820  18.644  0.00  0.00    +0.000 C 
ATOM      8  C   UNL     1       3.948   1.460  18.788  0.00  0.00    +0.000 C 
ATOM      9  C   UNL     1       1.938   2.591  17.845  0.00  0.00    +0.000 C 
ATOM     10  C   UNL     1       2.914   3.354  20.057  0.00  0.00    +0.000 C 
ATOM     11  C   UNL     1       2.182   4.684  19.989  0.00  0.00    +0.000 C 
ATOM     12  O   UNL     1       1.164   4.886  20.644  0.00  0.00    +0.000 OA
ENDROOT
BRANCH   1  13
ATOM     13  C   UNL     1       5.254   6.382  16.330  0.00  0.00    +0.000 C 
ATOM     14  O   UNL     1       5.082   6.720  15.164  0.00  0.00    +0.000 OA
BRANCH  13  15
ATOM     15  O   UNL     1       6.428   5.888  16.816  0.00  0.00    +0.000 OA
BRANCH  15  17
ATOM     16  C   UNL     1       7.724   6.044  18.823  0.00  0.00    +0.000 C 
ATOM     17  C   UNL     1       7.227   6.787  17.595  0.00  0.00    +0.000 C 
ENDBRANCH  15  17
ENDBRANCH  13  15
ENDBRANCH   1  13
BRANCH   3  18
ATOM     18  S   UNL     1       1.599   7.993  20.205  0.00  0.00    +0.000 S 
BRANCH  18  19
ATOM     19  C   UNL     1       1.231   9.425  19.149  0.00  0.00    +0.000 C 
ATOM     20  C   UNL     1      -0.106  10.027  19.539  0.00  0.00    +0.000 C 
ENDBRANCH  18  19
ENDBRANCH   3  18
TORSDOF 5
ENDMDL
MODEL 3
REMARK VINA RESULT:      -6.7      3.708      5.932
REMARK  Name = 
REMARK  9 active torsions:
REMARK  status: ('A' for Active; 'I' for Inactive)
REMARK    1  A    between atoms: C_1  and  C_2
REMARK    2  A    between atoms: C_2  and  O_3
REMARK    3  A    between atoms: O_3  and  C_4
REMARK    4  A    between atoms: C_4  and  C_6
REMARK    5  A    between atoms: C_8  and  S_9
REMARK    6  A    between atoms: S_9  and  C_10
REMARK    7  A    between atoms: C_10  and  C_11
REMARK    8  A    between atoms: C_15  and  C_16
REMARK    9  A    between atoms: C_15  and  C_17
REMARK                            x       y       z     vdW  Elec       q    Type
REMARK                         _______ _______ _______ _____ _____    ______ ____
ROOT
ATOM      1  C   UNL     1       2.583   6.976  18.898  0.00  0.00    +0.000 A 
ATOM      2  S   UNL     1       1.663   6.204  20.118  0.00  0.00    +0.000 S 
ATOM      3  C   UNL     1       2.756   4.901  20.265  0.00  0.00    +0.000 A 
ATOM      4  C   UNL     1       3.793   5.008  19.356  0.00  0.00    +0.000 A 
ATOM      5  C   UNL     1       3.692   6.209  18.549  0.00  0.00    +0.000 A 
ATOM      6  C   UNL     1       4.741   6.569  17.511  0.00  0.00    +0.000 C 
ATOM      7  C   UNL     1       5.685   5.380  17.164  0.00  0.00    +0.000 C 
ATOM      8  C   UNL     1       6.950   5.907  16.458  0.00  0.00    +0.000 C 
ATOM      9  C   UNL     1       4.983   4.400  16.202  0.00  0.00    +0.000 C 
ATOM     10  C   UNL     1       6.113   4.653  18.457  0.00  0.00    +0.000 C 
ATOM     11  C   UNL     1       4.912   4.079  19.190  0.00  0.00    +0.000 C 
ATOM     12  O   UNL     1       4.905   2.921  19.594  0.00  0.00    +0.000 OA
ENDROOT
BRANCH   1  13
ATOM     13  C   UNL     1       2.200   8.289  18.391  0.00  0.00    +0.000 C 
ATOM     14  O   UNL     1       2.437   8.702  17.262  0.00  0.00    +0.000 OA
BRANCH  13  15
ATOM     15  O   UNL     1       1.613   9.035  19.369  0.00  0.00    +0.000 OA
BRANCH  15  17
ATOM     16  C   UNL     1      -0.471  10.026  20.007  0.00  0.00    +0.000 C 
ATOM     17  C   UNL     1       0.616   9.974  18.948  0.00  0.00    +0.000 C 
ENDBRANCH  15  17
ENDBRANCH  13  15
ENDBRANCH   1  13
BRANCH   3  18
ATOM     18  S   UNL     1       2.508   3.694  21.516  0.00  0.00    +0.000 S 
BRANCH  18  19
ATOM     19  C   UNL     1       1.072   2.817  20.832  0.00  0.00    +0.000 C 
ATOM     20  C   UNL     1       1.375   2.344  19.423  0.00  0.00    +0.000 C 
ENDBRANCH  18  19
ENDBRANCH   3  18
TORSDOF 5
ENDMDL
MODEL 4
REMARK VINA RESULT:      -6.5      3.071      4.116
REMARK  Name = 
REMARK  9 active torsions:
REMARK  status: ('A' for Active; 'I' for Inactive)
REMARK    1  A    between atoms: C_1  and  C_2
REMARK    2  A    between atoms: C_2  and  O_3
REMARK    3  A    between atoms: O_3  and  C_4
REMARK    4  A    between atoms: C_4  and  C_6
REMARK    5  A    between atoms: C_8  and  S_9
REMARK    6  A    between atoms: S_9  and  C_10
REMARK    7  A    between atoms: C_10  and  C_11
REMARK    8  A    between atoms: C_15  and  C_16
REMARK    9  A    between atoms: C_15  and  C_17
REMARK                            x       y       z     vdW  Elec       q    Type
REMARK                         _______ _______ _______ _____ _____    ______ ____
ROOT
ATOM      1  C   UNL     1       2.993   6.739  18.242  0.00  0.00    +0.000 A 
ATOM      2  S   UNL     1       4.294   6.979  17.155  0.00  0.00    +0.000 S 
ATOM      3  C   UNL     1       4.483   5.311  16.849  0.00  0.00    +0.000 A 
ATOM      4  C   UNL     1       3.606   4.556  17.606  0.00  0.00    +0.000 A 
ATOM      5  C   UNL     1       2.743   5.381  18.428  0.00  0.00    +0.000 A 
ATOM      6  C   UNL     1       1.664   4.781  19.314  0.00  0.00    +0.000 C 
ATOM      7  C   UNL     1       1.831   3.246  19.518  0.00  0.00    +0.000 C 
ATOM      8  C   UNL     1       0.514   2.644  20.046  0.00  0.00    +0.000 C 
ATOM      9  C   UNL     1       2.931   2.959  20.560  0.00  0.00    +0.000 C 
ATOM     10  C   UNL     1       2.174   2.570  18.172  0.00  0.00    +0.000 C 
ATOM     11  C   UNL     1       3.482   3.098  17.609  0.00  0.00    +0.000 C 
ATOM     12  O   UNL     1       4.353   2.336  17.200  0.00  0.00    +0.000 OA
ENDROOT
BRANCH   1  13
ATOM     13  C   UNL     1       2.272   7.874  18.808  0.00  0.00    +0.000 C 
ATOM     14  O   UNL     1       2.020   8.024  19.998  0.00  0.00    +0.000 OA
BRANCH  13  15
ATOM     15  O   UNL     1       1.836   8.711  17.824  0.00  0.00    +0.000 OA
BRANCH  15  17
ATOM     16  C   UNL     1      -0.156   9.999  18.147  0.00  0.00    +0.000 C 
ATOM     17  C   UNL     1       1.359   9.996  18.241  0.00  0.00    +0.000 C 
ENDBRANCH  15  17
ENDBRANCH  13  15
ENDBRANCH   1  13
BRANCH   3  18
ATOM     18  S   UNL     1       5.634   4.775  15.634  0.00  0.00    +0.000 S 
BRANCH  18  19
ATOM     19  C   UNL     1       7.178   5.391  16.366  0.00  0.00    +0.000 C 
ATOM     20  C   UNL     1       7.474   4.649  17.655  0.00  0.00    +0.000 C 
ENDBRANCH  18  19
ENDBRANCH   3  18
TORSDOF 5
ENDMDL
MODEL 5
REMARK VINA RESULT:      -6.5      2.753      4.376
REMARK  Name = 
REMARK  9 active torsions:
REMARK  status: ('A' for Active; 'I' for Inactive)
REMARK    1  A    between atoms: C_1  and  C_2
REMARK    2  A    between atoms: C_2  and  O_3
REMARK    3  A    between atoms: O_3  and  C_4
REMARK    4  A    between atoms: C_4  and  C_6
REMARK    5  A    between atoms: C_8  and  S_9
REMARK    6  A    between atoms: S_9  and  C_10
REMARK    7  A    between atoms: C_10  and  C_11
REMARK    8  A    between atoms: C_15  and  C_16
REMARK    9  A    between atoms: C_15  and  C_17
REMARK                            x       y       z     vdW  Elec       q    Type
REMARK                         _______ _______ _______ _____ _____    ______ ____
ROOT
ATOM      1  C   UNL     1       3.029   6.846  18.006  0.00  0.00    +0.000 A 
ATOM      2  S   UNL     1       4.533   7.226  17.281  0.00  0.00    +0.000 S 
ATOM      3  C   UNL     1       4.913   5.593  16.965  0.00  0.00    +0.000 A 
ATOM      4  C   UNL     1       3.937   4.744  17.453  0.00  0.00    +0.000 A 
ATOM      5  C   UNL     1       2.842   5.467  18.071  0.00  0.00    +0.000 A 
ATOM      6  C   UNL     1       1.628   4.753  18.640  0.00  0.00    +0.000 C 
ATOM      7  C   UNL     1       1.852   3.223  18.818  0.00  0.00    +0.000 C 
ATOM      8  C   UNL     1       0.494   2.512  18.982  0.00  0.00    +0.000 C 
ATOM      9  C   UNL     1       2.685   2.945  20.086  0.00  0.00    +0.000 C 
ATOM     10  C   UNL     1       2.559   2.646  17.572  0.00  0.00    +0.000 C 
ATOM     11  C   UNL     1       3.923   3.283  17.368  0.00  0.00    +0.000 C 
ATOM     12  O   UNL     1       4.920   2.601  17.156  0.00  0.00    +0.000 OA
ENDROOT
BRANCH   1  13
ATOM     13  C   UNL     1       2.112   7.901  18.421  0.00  0.00    +0.000 C 
ATOM     14  O   UNL     1       1.568   8.696  17.665  0.00  0.00    +0.000 OA
BRANCH  13  15
ATOM     15  O   UNL     1       2.003   7.943  19.780  0.00  0.00    +0.000 OA
BRANCH  15  17
ATOM     16  C   UNL     1       0.983   8.712  21.805  0.00  0.00    +0.000 C 
ATOM     17  C   UNL     1       1.187   8.986  20.325  0.00  0.00    +0.000 C 
ENDBRANCH  15  17
ENDBRANCH  13  15
ENDBRANCH   1  13
BRANCH   3  18
ATOM     18  S   UNL     1       6.360   5.197  16.050  0.00  0.00    +0.000 S 
BRANCH  18  19
ATOM     19  C   UNL     1       7.448   4.649  17.397  0.00  0.00    +0.000 C 
ATOM     20  C   UNL     1       7.647   5.775  18.394  0.00  0.00    +0.000 C 
ENDBRANCH  18  19
ENDBRANCH   3  18
TORSDOF 5
ENDMDL
MODEL 6
REMARK VINA RESULT:      -6.5      2.958      4.931
REMARK  Name = 
REMARK  9 active torsions:
REMARK  status: ('A' for Active; 'I' for Inactive)
REMARK    1  A    between atoms: C_1  and  C_2
REMARK    2  A    between atoms: C_2  and  O_3
REMARK    3  A    between atoms: O_3  and  C_4
REMARK    4  A    between atoms: C_4  and  C_6
REMARK    5  A    between atoms: C_8  and  S_9
REMARK    6  A    between atoms: S_9  and  C_10
REMARK    7  A    between atoms: C_10  and  C_11
REMARK    8  A    between atoms: C_15  and  C_16
REMARK    9  A    between atoms: C_15  and  C_17
REMARK                            x       y       z     vdW  Elec       q    Type
REMARK                         _______ _______ _______ _____ _____    ______ ____
ROOT
ATOM      1  C   UNL     1       4.872   5.762  16.832  0.00  0.00    +0.000 A 
ATOM      2  S   UNL     1       4.194   7.313  17.096  0.00  0.00    +0.000 S 
ATOM      3  C   UNL     1       3.144   6.760  18.322  0.00  0.00    +0.000 A 
ATOM      4  C   UNL     1       3.254   5.394  18.503  0.00  0.00    +0.000 A 
ATOM      5  C   UNL     1       4.252   4.804  17.630  0.00  0.00    +0.000 A 
ATOM      6  C   UNL     1       4.586   3.323  17.678  0.00  0.00    +0.000 C 
ATOM      7  C   UNL     1       3.529   2.487  18.458  0.00  0.00    +0.000 C 
ATOM      8  C   UNL     1       4.123   1.114  18.831  0.00  0.00    +0.000 C 
ATOM      9  C   UNL     1       2.285   2.240  17.581  0.00  0.00    +0.000 C 
ATOM     10  C   UNL     1       3.135   3.220  19.759  0.00  0.00    +0.000 C 
ATOM     11  C   UNL     1       2.513   4.574  19.462  0.00  0.00    +0.000 C 
ATOM     12  O   UNL     1       1.464   4.924  19.994  0.00  0.00    +0.000 OA
ENDROOT
BRANCH   1  13
ATOM     13  C   UNL     1       5.985   5.581  15.907  0.00  0.00    +0.000 C 
ATOM     14  O   UNL     1       7.135   5.951  16.111  0.00  0.00    +0.000 OA
BRANCH  13  15
ATOM     15  O   UNL     1       5.561   5.019  14.739  0.00  0.00    +0.000 OA
BRANCH  15  17
ATOM     16  C   UNL     1       5.995   3.647  12.826  0.00  0.00    +0.000 C 
ATOM     17  C   UNL     1       6.246   3.836  14.312  0.00  0.00    +0.000 C 
ENDBRANCH  15  17
ENDBRANCH  13  15
ENDBRANCH   1  13
BRANCH   3  18
ATOM     18  S   UNL     1       2.163   7.913  19.213  0.00  0.00    +0.000 S 
BRANCH  18  19
ATOM     19  C   UNL     1       1.818   9.119  17.898  0.00  0.00    +0.000 C 
ATOM     20  C   UNL     1       1.010  10.276  18.454  0.00  0.00    +0.000 C 
ENDBRANCH  18  19
ENDBRANCH   3  18
TORSDOF 5
ENDMDL
MODEL 7
REMARK VINA RESULT:      -6.5      2.784      3.815
REMARK  Name = 
REMARK  9 active torsions:
REMARK  status: ('A' for Active; 'I' for Inactive)
REMARK    1  A    between atoms: C_1  and  C_2
REMARK    2  A    between atoms: C_2  and  O_3
REMARK    3  A    between atoms: O_3  and  C_4
REMARK    4  A    between atoms: C_4  and  C_6
REMARK    5  A    between atoms: C_8  and  S_9
REMARK    6  A    between atoms: S_9  and  C_10
REMARK    7  A    between atoms: C_10  and  C_11
REMARK    8  A    between atoms: C_15  and  C_16
REMARK    9  A    between atoms: C_15  and  C_17
REMARK                            x       y       z     vdW  Elec       q    Type
REMARK                         _______ _______ _______ _____ _____    ______ ____
ROOT
ATOM      1  C   UNL     1       3.345   6.548  17.865  0.00  0.00    +0.000 A 
ATOM      2  S   UNL     1       4.838   6.624  17.031  0.00  0.00    +0.000 S 
ATOM      3  C   UNL     1       4.978   4.927  16.912  0.00  0.00    +0.000 A 
ATOM      4  C   UNL     1       3.930   4.289  17.550  0.00  0.00    +0.000 A 
ATOM      5  C   UNL     1       2.981   5.227  18.117  0.00  0.00    +0.000 A 
ATOM      6  C   UNL     1       1.721   4.763  18.828  0.00  0.00    +0.000 C 
ATOM      7  C   UNL     1       1.751   3.250  19.192  0.00  0.00    +0.000 C 
ATOM      8  C   UNL     1       0.324   2.761  19.508  0.00  0.00    +0.000 C 
ATOM      9  C   UNL     1       2.618   3.017  20.446  0.00  0.00    +0.000 C 
ATOM     10  C   UNL     1       2.297   2.433  18.001  0.00  0.00    +0.000 C 
ATOM     11  C   UNL     1       3.718   2.845  17.655  0.00  0.00    +0.000 C 
ATOM     12  O   UNL     1       4.601   2.009  17.488  0.00  0.00    +0.000 OA
ENDROOT
BRANCH   1  13
ATOM     13  C   UNL     1       2.603   7.763  18.182  0.00  0.00    +0.000 C 
ATOM     14  O   UNL     1       2.364   8.667  17.389  0.00  0.00    +0.000 OA
BRANCH  13  15
ATOM     15  O   UNL     1       2.280   7.804  19.506  0.00  0.00    +0.000 OA
BRANCH  15  17
ATOM     16  C   UNL     1       1.028   8.612  21.380  0.00  0.00    +0.000 C 
ATOM     17  C   UNL     1       1.314   8.787  19.900  0.00  0.00    +0.000 C 
ENDBRANCH  15  17
ENDBRANCH  13  15
ENDBRANCH   1  13
BRANCH   3  18
ATOM     18  S   UNL     1       6.299   4.226  15.992  0.00  0.00    +0.000 S 
BRANCH  18  19
ATOM     19  C   UNL     1       5.875   4.815  14.326  0.00  0.00    +0.000 C 
ATOM     20  C   UNL     1       6.158   3.731  13.304  0.00  0.00    +0.000 C 
ENDBRANCH  18  19
ENDBRANCH   3  18
TORSDOF 5
ENDMDL
MODEL 8
REMARK VINA RESULT:      -6.4      3.108      6.265
REMARK  Name = 
REMARK  9 active torsions:
REMARK  status: ('A' for Active; 'I' for Inactive)
REMARK    1  A    between atoms: C_1  and  C_2
REMARK    2  A    between atoms: C_2  and  O_3
REMARK    3  A    between atoms: O_3  and  C_4
REMARK    4  A    between atoms: C_4  and  C_6
REMARK    5  A    between atoms: C_8  and  S_9
REMARK    6  A    between atoms: S_9  and  C_10
REMARK    7  A    between atoms: C_10  and  C_11
REMARK    8  A    between atoms: C_15  and  C_16
REMARK    9  A    between atoms: C_15  and  C_17
REMARK                            x       y       z     vdW  Elec       q    Type
REMARK                         _______ _______ _______ _____ _____    ______ ____
ROOT
ATOM      1  C   UNL     1       3.701   4.115  19.586  0.00  0.00    +0.000 A 
ATOM      2  S   UNL     1       2.603   5.156  20.388  0.00  0.00    +0.000 S 
ATOM      3  C   UNL     1       2.858   6.440  19.293  0.00  0.00    +0.000 A 
ATOM      4  C   UNL     1       3.814   6.116  18.348  0.00  0.00    +0.000 A 
ATOM      5  C   UNL     1       4.318   4.767  18.519  0.00  0.00    +0.000 A 
ATOM      6  C   UNL     1       5.343   4.166  17.574  0.00  0.00    +0.000 C 
ATOM      7  C   UNL     1       6.037   5.231  16.675  0.00  0.00    +0.000 C 
ATOM      8  C   UNL     1       6.724   4.540  15.481  0.00  0.00    +0.000 C 
ATOM      9  C   UNL     1       7.123   5.983  17.472  0.00  0.00    +0.000 C 
ATOM     10  C   UNL     1       4.987   6.223  16.128  0.00  0.00    +0.000 C 
ATOM     11  C   UNL     1       4.291   6.965  17.256  0.00  0.00    +0.000 C 
ATOM     12  O   UNL     1       4.158   8.185  17.230  0.00  0.00    +0.000 OA
ENDROOT
BRANCH   1  13
ATOM     13  C   UNL     1       3.862   2.729  20.009  0.00  0.00    +0.000 C 
ATOM     14  O   UNL     1       4.933   2.193  20.268  0.00  0.00    +0.000 OA
BRANCH  13  15
ATOM     15  O   UNL     1       2.665   2.075  19.996  0.00  0.00    +0.000 OA
BRANCH  15  17
ATOM     16  C   UNL     1       0.643   2.336  18.741  0.00  0.00    +0.000 C 
ATOM     17  C   UNL     1       2.077   1.839  18.711  0.00  0.00    +0.000 C 
ENDBRANCH  15  17
ENDBRANCH  13  15
ENDBRANCH   1  13
BRANCH   3  18
ATOM     18  S   UNL     1       1.891   7.901  19.426  0.00  0.00    +0.000 S 
BRANCH  18  19
ATOM     19  C   UNL     1       1.187   7.667  21.084  0.00  0.00    +0.000 C 
ATOM     20  C   UNL     1       1.267   8.962  21.870  0.00  0.00    +0.000 C 
ENDBRANCH  18  19
ENDBRANCH   3  18
TORSDOF 5
ENDMDL
MODEL 9
REMARK VINA RESULT:      -6.4      2.959      3.865
REMARK  Name = 
REMARK  9 active torsions:
REMARK  status: ('A' for Active; 'I' for Inactive)
REMARK    1  A    between atoms: C_1  and  C_2
REMARK    2  A    between atoms: C_2  and  O_3
REMARK    3  A    between atoms: O_3  and  C_4
REMARK    4  A    between atoms: C_4  and  C_6
REMARK    5  A    between atoms: C_8  and  S_9
REMARK    6  A    between atoms: S_9  and  C_10
REMARK    7  A    between atoms: C_10  and  C_11
REMARK    8  A    between atoms: C_15  and  C_16
REMARK    9  A    between atoms: C_15  and  C_17
REMARK                            x       y       z     vdW  Elec       q    Type
REMARK                         _______ _______ _______ _____ _____    ______ ____
ROOT
ATOM      1  C   UNL     1       3.174   6.625  18.200  0.00  0.00    +0.000 A 
ATOM      2  S   UNL     1       4.639   6.955  17.376  0.00  0.00    +0.000 S 
ATOM      3  C   UNL     1       4.907   5.316  16.980  0.00  0.00    +0.000 A 
ATOM      4  C   UNL     1       3.926   4.501  17.514  0.00  0.00    +0.000 A 
ATOM      5  C   UNL     1       2.919   5.256  18.236  0.00  0.00    +0.000 A 
ATOM      6  C   UNL     1       1.715   4.585  18.872  0.00  0.00    +0.000 C 
ATOM      7  C   UNL     1       1.870   3.040  18.985  0.00  0.00    +0.000 C 
ATOM      8  C   UNL     1       0.492   2.393  19.229  0.00  0.00    +0.000 C 
ATOM      9  C   UNL     1       2.779   2.676  20.176  0.00  0.00    +0.000 C 
ATOM     10  C   UNL     1       2.451   2.472  17.671  0.00  0.00    +0.000 C 
ATOM     11  C   UNL     1       3.828   3.047  17.384  0.00  0.00    +0.000 C 
ATOM     12  O   UNL     1       4.769   2.323  17.076  0.00  0.00    +0.000 OA
ENDROOT
BRANCH   1  13
ATOM     13  C   UNL     1       2.347   7.710  18.717  0.00  0.00    +0.000 C 
ATOM     14  O   UNL     1       2.067   7.877  19.898  0.00  0.00    +0.000 OA
BRANCH  13  15
ATOM     15  O   UNL     1       1.852   8.471  17.700  0.00  0.00    +0.000 OA
BRANCH  15  17
ATOM     16  C   UNL     1       0.012   9.954  18.082  0.00  0.00    +0.000 C 
ATOM     17  C   UNL     1       1.524   9.829  18.017  0.00  0.00    +0.000 C 
ENDBRANCH  15  17
ENDBRANCH  13  15
ENDBRANCH   1  13
BRANCH   3  18
ATOM     18  S   UNL     1       6.258   4.881  15.946  0.00  0.00    +0.000 S 
BRANCH  18  19
ATOM     19  C   UNL     1       5.373   4.531  14.398  0.00  0.00    +0.000 C 
ATOM     20  C   UNL     1       6.284   3.795  13.434  0.00  0.00    +0.000 C 
ENDBRANCH  18  19
ENDBRANCH   3  18
TORSDOF 5
ENDMDL
