MODEL 1
REMARK VINA RESULT:      -6.7      0.000      0.000
REMARK  Name = 
REMARK  12 active torsions:
REMARK  status: ('A' for Active; 'I' for Inactive)
REMARK    1  A    between atoms: C_1  and  O_2
REMARK    2  A    between atoms: O_2  and  C_3
REMARK    3  A    between atoms: C_6  and  C_7
REMARK    4  A    between atoms: C_7  and  C_8
REMARK    5  A    between atoms: C_7  and  N_16
REMARK    6  A    between atoms: N_10  and  C_11
REMARK    7  A    between atoms: N_16  and  C_17
REMARK    8  A    between atoms: C_17  and  C_18
REMARK    9  A    between atoms: C_21  and  C_22
REMARK   10  A    between atoms: C_25  and  C_27
REMARK   11  A    between atoms: C_33  and  O_34
REMARK   12  A    between atoms: O_34  and  C_35
REMARK                            x       y       z     vdW  Elec       q    Type
REMARK                         _______ _______ _______ _____ _____    ______ ____
ROOT
ATOM      1  C   UNL     1      -1.649  12.918  19.928  0.00  0.00    +0.000 C 
ENDROOT
BRANCH   1   5
ATOM      2  C   UNL     1      -3.341  10.526  16.733  0.00  0.00    +0.000 A 
ATOM      3  C   UNL     1      -2.013  10.332  17.134  0.00  0.00    +0.000 A 
ATOM      4  C   UNL     1      -1.475  10.987  18.244  0.00  0.00    +0.000 A 
ATOM      5  C   UNL     1      -2.250  11.901  18.965  0.00  0.00    +0.000 A 
ATOM      6  C   UNL     1      -3.629  11.969  18.658  0.00  0.00    +0.000 A 
ATOM      7  C   UNL     1      -4.179  11.306  17.541  0.00  0.00    +0.000 A 
BRANCH   2   9
ATOM      8  C   UNL     1      -3.422  10.150  14.380  0.00  0.00    +0.000 C 
ATOM      9  O   UNL     1      -3.715   9.712  15.699  0.00  0.00    +0.000 OA
ENDBRANCH   2   9
BRANCH   7  10
ATOM     10  O   UNL     1      -5.546  11.222  17.500  0.00  0.00    +0.000 OA
ATOM     11  C   UNL     1      -6.191  10.680  18.648  0.00  0.00    +0.000 C 
ENDBRANCH   7  10
ENDBRANCH   1   5
BRANCH   1  12
ATOM     12  C   UNL     1      -2.243  12.957  21.390  0.00  0.00    +0.000 C 
ATOM     13  O   UNL     1      -2.483  11.916  22.009  0.00  0.00    +0.000 OA
ATOM     14  N   UNL     1      -2.537  14.200  21.911  0.00  0.00    +0.000 N 
ATOM     15  H   UNL     1      -2.622  14.963  21.244  0.00  0.00    +0.000 HD
BRANCH  14  16
ATOM     16  C   UNL     1      -3.058  14.384  23.255  0.00  0.00    +0.000 C 
ATOM     17  C   UNL     1      -1.940  14.532  24.287  0.00  0.00    +0.000 C 
ATOM     18  C   UNL     1      -2.638  15.144  25.495  0.00  0.00    +0.000 C 
ATOM     19  C   UNL     1      -3.788  15.977  24.932  0.00  0.00    +0.000 C 
ATOM     20  C   UNL     1      -3.829  15.691  23.430  0.00  0.00    +0.000 C 
ENDBRANCH  14  16
ENDBRANCH   1  12
BRANCH   1  21
ATOM     21  N   UNL     1      -0.165  13.033  19.873  0.00  0.00    +0.000 N 
ATOM     22  C   UNL     1       0.379  14.008  19.018  0.00  0.00    +0.000 C 
ATOM     23  O   UNL     1      -0.339  14.850  18.473  0.00  0.00    +0.000 OA
BRANCH  22  24
ATOM     24  C   UNL     1       1.845  14.052  18.769  0.00  0.00    +0.000 A 
ATOM     25  C   UNL     1       2.744  14.977  19.362  0.00  0.00    +0.000 A 
ATOM     26  C   UNL     1       3.978  14.726  18.802  0.00  0.00    +0.000 A 
ATOM     27  N   UNL     1       3.766  13.707  17.921  0.00  0.00    +0.000 N 
ATOM     28  N   UNL     1       2.500  13.267  17.891  0.00  0.00    +0.000 NA
ATOM     29  H   UNL     1       4.443  13.268  17.295  0.00  0.00    +0.000 HD
ENDBRANCH  22  24
BRANCH  21  30
ATOM     30  C   UNL     1       0.677  12.273  20.821  0.00  0.00    +0.000 C 
BRANCH  30  31
ATOM     31  C   UNL     1       0.819  10.767  20.657  0.00  0.00    +0.000 A 
ATOM     32  C   UNL     1       0.496   9.923  21.729  0.00  0.00    +0.000 A 
ATOM     33  C   UNL     1       0.770   8.555  21.675  0.00  0.00    +0.000 A 
ATOM     34  C   UNL     1       1.373   7.997  20.546  0.00  0.00    +0.000 A 
ATOM     35  C   UNL     1       1.924   6.602  20.601  0.00  0.00    +0.000 C 
ATOM     36  C   UNL     1       1.556   8.801  19.417  0.00  0.00    +0.000 A 
ATOM     37  C   UNL     1       1.265  10.174  19.467  0.00  0.00    +0.000 A 
ENDBRANCH  30  31
ENDBRANCH  21  30
ENDBRANCH   1  21
TORSDOF 9
ENDMDL
MODEL 2
REMARK VINA RESULT:      -6.5      2.287      6.110
REMARK  Name = 
REMARK  12 active torsions:
REMARK  status: ('A' for Active; 'I' for Inactive)
REMARK    1  A    between atoms: C_1  and  O_2
REMARK    2  A    between atoms: O_2  and  C_3
REMARK    3  A    between atoms: C_6  and  C_7
REMARK    4  A    between atoms: C_7  and  C_8
REMARK    5  A    between atoms: C_7  and  N_16
REMARK    6  A    between atoms: N_10  and  C_11
REMARK    7  A    between atoms: N_16  and  C_17
REMARK    8  A    between atoms: C_17  and  C_18
REMARK    9  A    between atoms: C_21  and  C_22
REMARK   10  A    between atoms: C_25  and  C_27
REMARK   11  A    between atoms: C_33  and  O_34
REMARK   12  A    between atoms: O_34  and  C_35
REMARK                            x       y       z     vdW  Elec       q    Type
REMARK                         _______ _______ _______ _____ _____    ______ ____
ROOT
ATOM      1  C   UNL     1      -0.318  10.792  19.417  0.00  0.00    +0.000 C 
ENDROOT
BRANCH   1   5
ATOM      2  C   UNL     1      -3.408  10.808  16.377  0.00  0.00    +0.000 A 
ATOM      3  C   UNL     1      -2.309   9.945  16.263  0.00  0.00    +0.000 A 
ATOM      4  C   UNL     1      -1.366   9.816  17.286  0.00  0.00    +0.000 A 
ATOM      5  C   UNL     1      -1.474  10.592  18.444  0.00  0.00    +0.000 A 
ATOM      6  C   UNL     1      -2.664  11.333  18.623  0.00  0.00    +0.000 A 
ATOM      7  C   UNL     1      -3.624  11.464  17.595  0.00  0.00    +0.000 A 
BRANCH   2   9
ATOM      8  C   UNL     1      -3.802  10.105  14.132  0.00  0.00    +0.000 C 
ATOM      9  O   UNL     1      -4.278  10.710  15.326  0.00  0.00    +0.000 OA
ENDBRANCH   2   9
BRANCH   7  10
ATOM     10  O   UNL     1      -4.842  11.970  17.966  0.00  0.00    +0.000 OA
ATOM     11  C   UNL     1      -5.841  11.027  18.341  0.00  0.00    +0.000 C 
ENDBRANCH   7  10
ENDBRANCH   1   5
BRANCH   1  12
ATOM     12  C   UNL     1       1.015  10.002  19.117  0.00  0.00    +0.000 C 
ATOM     13  O   UNL     1       1.926  10.513  18.458  0.00  0.00    +0.000 OA
ATOM     14  N   UNL     1       1.084   8.699  19.569  0.00  0.00    +0.000 N 
ATOM     15  H   UNL     1       0.200   8.253  19.802  0.00  0.00    +0.000 HD
BRANCH  14  16
ATOM     16  C   UNL     1       2.262   7.869  19.390  0.00  0.00    +0.000 C 
ATOM     17  C   UNL     1       2.174   6.570  20.191  0.00  0.00    +0.000 C 
ATOM     18  C   UNL     1       3.227   5.674  19.552  0.00  0.00    +0.000 C 
ATOM     19  C   UNL     1       3.308   6.110  18.090  0.00  0.00    +0.000 C 
ATOM     20  C   UNL     1       2.426   7.351  17.962  0.00  0.00    +0.000 C 
ENDBRANCH  14  16
ENDBRANCH   1  12
BRANCH   1  21
ATOM     21  N   UNL     1      -0.103  12.198  19.856  0.00  0.00    +0.000 N 
ATOM     22  C   UNL     1       0.307  12.409  21.184  0.00  0.00    +0.000 C 
ATOM     23  O   UNL     1       0.647  11.466  21.903  0.00  0.00    +0.000 OA
BRANCH  22  24
ATOM     24  C   UNL     1       0.356  13.786  21.744  0.00  0.00    +0.000 A 
ATOM     25  C   UNL     1      -0.773  14.625  21.944  0.00  0.00    +0.000 A 
ATOM     26  C   UNL     1      -0.280  15.830  22.397  0.00  0.00    +0.000 A 
ATOM     27  N   UNL     1       1.073  15.667  22.435  0.00  0.00    +0.000 N 
ATOM     28  N   UNL     1       1.486  14.446  22.068  0.00  0.00    +0.000 NA
ATOM     29  H   UNL     1       1.780  16.357  22.693  0.00  0.00    +0.000 HD
ENDBRANCH  22  24
BRANCH  21  30
ATOM     30  C   UNL     1      -0.145  13.301  18.871  0.00  0.00    +0.000 C 
BRANCH  30  31
ATOM     31  C   UNL     1       1.097  14.150  18.643  0.00  0.00    +0.000 A 
ATOM     32  C   UNL     1       2.317  13.523  18.350  0.00  0.00    +0.000 A 
ATOM     33  C   UNL     1       3.506  14.253  18.299  0.00  0.00    +0.000 A 
ATOM     34  C   UNL     1       3.505  15.628  18.541  0.00  0.00    +0.000 A 
ATOM     35  C   UNL     1       4.800  16.351  18.771  0.00  0.00    +0.000 C 
ATOM     36  C   UNL     1       2.277  16.283  18.681  0.00  0.00    +0.000 A 
ATOM     37  C   UNL     1       1.080  15.551  18.716  0.00  0.00    +0.000 A 
ENDBRANCH  30  31
ENDBRANCH  21  30
ENDBRANCH   1  21
TORSDOF 9
ENDMDL
MODEL 3
REMARK VINA RESULT:      -6.5      1.958      5.560
REMARK  Name = 
REMARK  12 active torsions:
REMARK  status: ('A' for Active; 'I' for Inactive)
REMARK    1  A    between atoms: C_1  and  O_2
REMARK    2  A    between atoms: O_2  and  C_3
REMARK    3  A    between atoms: C_6  and  C_7
REMARK    4  A    between atoms: C_7  and  C_8
REMARK    5  A    between atoms: C_7  and  N_16
REMARK    6  A    between atoms: N_10  and  C_11
REMARK    7  A    between atoms: N_16  and  C_17
REMARK    8  A    between atoms: C_17  and  C_18
REMARK    9  A    between atoms: C_21  and  C_22
REMARK   10  A    between atoms: C_25  and  C_27
REMARK   11  A    between atoms: C_33  and  O_34
REMARK   12  A    between atoms: O_34  and  C_35
REMARK                            x       y       z     vdW  Elec       q    Type
REMARK                         _______ _______ _______ _____ _____    ______ ____
ROOT
ATOM      1  C   UNL     1      -0.038  12.254  18.538  0.00  0.00    +0.000 C 
ENDROOT
BRANCH   1   5
ATOM      2  C   UNL     1      -4.316  11.552  18.504  0.00  0.00    +0.000 A 
ATOM      3  C   UNL     1      -3.727  12.273  19.551  0.00  0.00    +0.000 A 
ATOM      4  C   UNL     1      -2.377  12.634  19.529  0.00  0.00    +0.000 A 
ATOM      5  C   UNL     1      -1.561  12.236  18.465  0.00  0.00    +0.000 A 
ATOM      6  C   UNL     1      -2.193  11.656  17.341  0.00  0.00    +0.000 A 
ATOM      7  C   UNL     1      -3.557  11.294  17.356  0.00  0.00    +0.000 A 
BRANCH   2   9
ATOM      8  C   UNL     1      -6.157  10.080  18.862  0.00  0.00    +0.000 C 
ATOM      9  O   UNL     1      -5.667  11.396  18.654  0.00  0.00    +0.000 OA
ENDBRANCH   2   9
BRANCH   7  10
ATOM     10  O   UNL     1      -4.117  10.997  16.141  0.00  0.00    +0.000 OA
ATOM     11  C   UNL     1      -3.226  10.611  15.100  0.00  0.00    +0.000 C 
ENDBRANCH   7  10
ENDBRANCH   1   5
BRANCH   1  12
ATOM     12  C   UNL     1       0.656  13.666  18.658  0.00  0.00    +0.000 C 
ATOM     13  O   UNL     1      -0.011  14.695  18.811  0.00  0.00    +0.000 OA
ATOM     14  N   UNL     1       2.029  13.701  18.520  0.00  0.00    +0.000 N 
ATOM     15  H   UNL     1       2.461  12.892  18.080  0.00  0.00    +0.000 HD
BRANCH  14  16
ATOM     16  C   UNL     1       2.798  14.927  18.640  0.00  0.00    +0.000 C 
ATOM     17  C   UNL     1       3.304  15.148  20.065  0.00  0.00    +0.000 C 
ATOM     18  C   UNL     1       4.414  16.180  19.903  0.00  0.00    +0.000 C 
ATOM     19  C   UNL     1       4.994  15.948  18.509  0.00  0.00    +0.000 C 
ATOM     20  C   UNL     1       4.099  14.905  17.840  0.00  0.00    +0.000 C 
ENDBRANCH  14  16
ENDBRANCH   1  12
BRANCH   1  21
ATOM     21  N   UNL     1       0.560  11.208  19.412  0.00  0.00    +0.000 N 
ATOM     22  C   UNL     1       0.865   9.967  18.824  0.00  0.00    +0.000 C 
ATOM     23  O   UNL     1       0.806   9.810  17.602  0.00  0.00    +0.000 OA
BRANCH  22  24
ATOM     24  C   UNL     1       1.284   8.819  19.672  0.00  0.00    +0.000 A 
ATOM     25  C   UNL     1       2.152   7.775  19.257  0.00  0.00    +0.000 A 
ATOM     26  C   UNL     1       2.210   6.884  20.307  0.00  0.00    +0.000 A 
ATOM     27  N   UNL     1       1.393   7.410  21.263  0.00  0.00    +0.000 N 
ATOM     28  N   UNL     1       0.837   8.581  20.921  0.00  0.00    +0.000 NA
ATOM     29  H   UNL     1       1.159   7.014  22.175  0.00  0.00    +0.000 HD
ENDBRANCH  22  24
BRANCH  21  30
ATOM     30  C   UNL     1       0.979  11.539  20.790  0.00  0.00    +0.000 C 
BRANCH  30  31
ATOM     31  C   UNL     1      -0.055  12.040  21.789  0.00  0.00    +0.000 A 
ATOM     32  C   UNL     1      -0.930  11.125  22.392  0.00  0.00    +0.000 A 
ATOM     33  C   UNL     1      -1.995  11.562  23.181  0.00  0.00    +0.000 A 
ATOM     34  C   UNL     1      -2.212  12.926  23.387  0.00  0.00    +0.000 A 
ATOM     35  C   UNL     1      -3.505  13.400  23.985  0.00  0.00    +0.000 C 
ATOM     36  C   UNL     1      -1.257  13.834  22.918  0.00  0.00    +0.000 A 
ATOM     37  C   UNL     1      -0.177  13.393  22.138  0.00  0.00    +0.000 A 
ENDBRANCH  30  31
ENDBRANCH  21  30
ENDBRANCH   1  21
TORSDOF 9
ENDMDL
MODEL 4
REMARK VINA RESULT:      -6.5      1.871      5.836
REMARK  Name = 
REMARK  12 active torsions:
REMARK  status: ('A' for Active; 'I' for Inactive)
REMARK    1  A    between atoms: C_1  and  O_2
REMARK    2  A    between atoms: O_2  and  C_3
REMARK    3  A    between atoms: C_6  and  C_7
REMARK    4  A    between atoms: C_7  and  C_8
REMARK    5  A    between atoms: C_7  and  N_16
REMARK    6  A    between atoms: N_10  and  C_11
REMARK    7  A    between atoms: N_16  and  C_17
REMARK    8  A    between atoms: C_17  and  C_18
REMARK    9  A    between atoms: C_21  and  C_22
REMARK   10  A    between atoms: C_25  and  C_27
REMARK   11  A    between atoms: C_33  and  O_34
REMARK   12  A    between atoms: O_34  and  C_35
REMARK                            x       y       z     vdW  Elec       q    Type
REMARK                         _______ _______ _______ _____ _____    ______ ____
ROOT
ATOM      1  C   UNL     1      -0.294  11.477  19.860  0.00  0.00    +0.000 C 
ENDROOT
BRANCH   1   5
ATOM      2  C   UNL     1      -4.116  10.864  17.909  0.00  0.00    +0.000 A 
ATOM      3  C   UNL     1      -3.969  11.868  18.875  0.00  0.00    +0.000 A 
ATOM      4  C   UNL     1      -2.725  12.183  19.427  0.00  0.00    +0.000 A 
ATOM      5  C   UNL     1      -1.587  11.460  19.054  0.00  0.00    +0.000 A 
ATOM      6  C   UNL     1      -1.712  10.566  17.966  0.00  0.00    +0.000 A 
ATOM      7  C   UNL     1      -2.966  10.247  17.401  0.00  0.00    +0.000 A 
BRANCH   2   9
ATOM      8  C   UNL     1      -6.462  11.054  18.296  0.00  0.00    +0.000 C 
ATOM      9  O   UNL     1      -5.387  10.783  17.408  0.00  0.00    +0.000 OA
ENDBRANCH   2   9
BRANCH   7  10
ATOM     10  O   UNL     1      -2.939   9.592  16.198  0.00  0.00    +0.000 OA
ATOM     11  C   UNL     1      -2.918  10.402  15.027  0.00  0.00    +0.000 C 
ENDBRANCH   7  10
ENDBRANCH   1   5
BRANCH   1  12
ATOM     12  C   UNL     1       0.889  10.574  19.336  0.00  0.00    +0.000 C 
ATOM     13  O   UNL     1       1.663  10.979  18.463  0.00  0.00    +0.000 OA
ATOM     14  N   UNL     1       0.973   9.296  19.850  0.00  0.00    +0.000 N 
ATOM     15  H   UNL     1       0.136   8.931  20.298  0.00  0.00    +0.000 HD
BRANCH  14  16
ATOM     16  C   UNL     1       2.029   8.370  19.480  0.00  0.00    +0.000 C 
ATOM     17  C   UNL     1       1.934   7.053  20.251  0.00  0.00    +0.000 C 
ATOM     18  C   UNL     1       2.795   6.092  19.441  0.00  0.00    +0.000 C 
ATOM     19  C   UNL     1       2.707   6.576  17.995  0.00  0.00    +0.000 C 
ATOM     20  C   UNL     1       1.938   7.897  18.030  0.00  0.00    +0.000 C 
ENDBRANCH  14  16
ENDBRANCH   1  12
BRANCH   1  21
ATOM     21  N   UNL     1       0.134  12.824  20.330  0.00  0.00    +0.000 N 
ATOM     22  C   UNL     1       0.407  13.796  19.352  0.00  0.00    +0.000 C 
ATOM     23  O   UNL     1       0.133  13.601  18.165  0.00  0.00    +0.000 OA
BRANCH  22  24
ATOM     24  C   UNL     1       1.019  15.096  19.737  0.00  0.00    +0.000 A 
ATOM     25  C   UNL     1       2.409  15.318  19.922  0.00  0.00    +0.000 A 
ATOM     26  C   UNL     1       2.536  16.622  20.350  0.00  0.00    +0.000 A 
ATOM     27  N   UNL     1       1.260  17.100  20.412  0.00  0.00    +0.000 N 
ATOM     28  N   UNL     1       0.328  16.215  20.032  0.00  0.00    +0.000 NA
ATOM     29  H   UNL     1       0.951  18.024  20.718  0.00  0.00    +0.000 HD
ENDBRANCH  22  24
BRANCH  21  30
ATOM     30  C   UNL     1       0.091  13.160  21.769  0.00  0.00    +0.000 C 
BRANCH  30  31
ATOM     31  C   UNL     1      -1.253  13.248  22.478  0.00  0.00    +0.000 A 
ATOM     32  C   UNL     1      -1.785  12.105  23.092  0.00  0.00    +0.000 A 
ATOM     33  C   UNL     1      -3.083  12.102  23.605  0.00  0.00    +0.000 A 
ATOM     34  C   UNL     1      -3.882  13.244  23.517  0.00  0.00    +0.000 A 
ATOM     35  C   UNL     1      -5.354  13.155  23.802  0.00  0.00    +0.000 C 
ATOM     36  C   UNL     1      -3.308  14.429  23.048  0.00  0.00    +0.000 A 
ATOM     37  C   UNL     1      -1.997  14.435  22.547  0.00  0.00    +0.000 A 
ENDBRANCH  30  31
ENDBRANCH  21  30
ENDBRANCH   1  21
TORSDOF 9
ENDMDL
MODEL 5
REMARK VINA RESULT:      -6.4      2.129      6.149
REMARK  Name = 
REMARK  12 active torsions:
REMARK  status: ('A' for Active; 'I' for Inactive)
REMARK    1  A    between atoms: C_1  and  O_2
REMARK    2  A    between atoms: O_2  and  C_3
REMARK    3  A    between atoms: C_6  and  C_7
REMARK    4  A    between atoms: C_7  and  C_8
REMARK    5  A    between atoms: C_7  and  N_16
REMARK    6  A    between atoms: N_10  and  C_11
REMARK    7  A    between atoms: N_16  and  C_17
REMARK    8  A    between atoms: C_17  and  C_18
REMARK    9  A    between atoms: C_21  and  C_22
REMARK   10  A    between atoms: C_25  and  C_27
REMARK   11  A    between atoms: C_33  and  O_34
REMARK   12  A    between atoms: O_34  and  C_35
REMARK                            x       y       z     vdW  Elec       q    Type
REMARK                         _______ _______ _______ _____ _____    ______ ____
ROOT
ATOM      1  C   UNL     1      -0.647  10.708  19.455  0.00  0.00    +0.000 C 
ENDROOT
BRANCH   1   5
ATOM      2  C   UNL     1      -3.499  10.813  16.192  0.00  0.00    +0.000 A 
ATOM      3  C   UNL     1      -2.385   9.966  16.129  0.00  0.00    +0.000 A 
ATOM      4  C   UNL     1      -1.520   9.805  17.215  0.00  0.00    +0.000 A 
ATOM      5  C   UNL     1      -1.724  10.535  18.390  0.00  0.00    +0.000 A 
ATOM      6  C   UNL     1      -2.933  11.259  18.505  0.00  0.00    +0.000 A 
ATOM      7  C   UNL     1      -3.814  11.420  17.414  0.00  0.00    +0.000 A 
BRANCH   2   9
ATOM      8  C   UNL     1      -3.753  10.098  13.931  0.00  0.00    +0.000 C 
ATOM      9  O   UNL     1      -4.286  10.748  15.075  0.00  0.00    +0.000 OA
ENDBRANCH   2   9
BRANCH   7  10
ATOM     10  O   UNL     1      -5.063  11.900  17.710  0.00  0.00    +0.000 OA
ATOM     11  C   UNL     1      -5.264  12.395  19.030  0.00  0.00    +0.000 C 
ENDBRANCH   7  10
ENDBRANCH   1   5
BRANCH   1  12
ATOM     12  C   UNL     1       0.743  10.012  19.186  0.00  0.00    +0.000 C 
ATOM     13  O   UNL     1       1.609  10.559  18.496  0.00  0.00    +0.000 OA
ATOM     14  N   UNL     1       0.916   8.743  19.702  0.00  0.00    +0.000 N 
ATOM     15  H   UNL     1       0.071   8.241  19.963  0.00  0.00    +0.000 HD
BRANCH  14  16
ATOM     16  C   UNL     1       2.156   8.000  19.557  0.00  0.00    +0.000 C 
ATOM     17  C   UNL     1       2.073   6.617  20.203  0.00  0.00    +0.000 C 
ATOM     18  C   UNL     1       3.237   5.855  19.583  0.00  0.00    +0.000 C 
ATOM     19  C   UNL     1       3.431   6.455  18.191  0.00  0.00    +0.000 C 
ATOM     20  C   UNL     1       2.488   7.655  18.107  0.00  0.00    +0.000 C 
ENDBRANCH  14  16
ENDBRANCH   1  12
BRANCH   1  21
ATOM     21  N   UNL     1      -0.538  12.082  20.019  0.00  0.00    +0.000 N 
ATOM     22  C   UNL     1      -0.109  12.203  21.353  0.00  0.00    +0.000 C 
ATOM     23  O   UNL     1       0.329  11.231  21.972  0.00  0.00    +0.000 OA
BRANCH  22  24
ATOM     24  C   UNL     1      -0.159  13.522  22.039  0.00  0.00    +0.000 A 
ATOM     25  C   UNL     1      -1.341  14.151  22.510  0.00  0.00    +0.000 A 
ATOM     26  C   UNL     1      -0.954  15.380  23.001  0.00  0.00    +0.000 A 
ATOM     27  N   UNL     1       0.393  15.433  22.796  0.00  0.00    +0.000 N 
ATOM     28  N   UNL     1       0.904  14.327  22.239  0.00  0.00    +0.000 NA
ATOM     29  H   UNL     1       1.028  16.206  23.004  0.00  0.00    +0.000 HD
ENDBRANCH  22  24
BRANCH  21  30
ATOM     30  C   UNL     1      -0.700  13.262  19.144  0.00  0.00    +0.000 C 
BRANCH  30  31
ATOM     31  C   UNL     1       0.499  14.156  18.860  0.00  0.00    +0.000 A 
ATOM     32  C   UNL     1       0.353  15.549  18.930  0.00  0.00    +0.000 A 
ATOM     33  C   UNL     1       1.378  16.401  18.516  0.00  0.00    +0.000 A 
ATOM     34  C   UNL     1       2.576  15.881  18.023  0.00  0.00    +0.000 A 
ATOM     35  C   UNL     1       3.551  16.779  17.317  0.00  0.00    +0.000 C 
ATOM     36  C   UNL     1       2.788  14.500  18.094  0.00  0.00    +0.000 A 
ATOM     37  C   UNL     1       1.762  13.645  18.526  0.00  0.00    +0.000 A 
ENDBRANCH  30  31
ENDBRANCH  21  30
ENDBRANCH   1  21
TORSDOF 9
ENDMDL
MODEL 6
REMARK VINA RESULT:      -6.4      2.787      6.628
REMARK  Name = 
REMARK  12 active torsions:
REMARK  status: ('A' for Active; 'I' for Inactive)
REMARK    1  A    between atoms: C_1  and  O_2
REMARK    2  A    between atoms: O_2  and  C_3
REMARK    3  A    between atoms: C_6  and  C_7
REMARK    4  A    between atoms: C_7  and  C_8
REMARK    5  A    between atoms: C_7  and  N_16
REMARK    6  A    between atoms: N_10  and  C_11
REMARK    7  A    between atoms: N_16  and  C_17
REMARK    8  A    between atoms: C_17  and  C_18
REMARK    9  A    between atoms: C_21  and  C_22
REMARK   10  A    between atoms: C_25  and  C_27
REMARK   11  A    between atoms: C_33  and  O_34
REMARK   12  A    between atoms: O_34  and  C_35
REMARK                            x       y       z     vdW  Elec       q    Type
REMARK                         _______ _______ _______ _____ _____    ______ ____
ROOT
ATOM      1  C   UNL     1       0.437  10.656  19.120  0.00  0.00    +0.000 C 
ENDROOT
BRANCH   1   5
ATOM      2  C   UNL     1      -3.712  10.801  17.870  0.00  0.00    +0.000 A 
ATOM      3  C   UNL     1      -3.229  11.708  18.823  0.00  0.00    +0.000 A 
ATOM      4  C   UNL     1      -1.872  11.780  19.150  0.00  0.00    +0.000 A 
ATOM      5  C   UNL     1      -0.959  10.901  18.559  0.00  0.00    +0.000 A 
ATOM      6  C   UNL     1      -1.423  10.105  17.486  0.00  0.00    +0.000 A 
ATOM      7  C   UNL     1      -2.791  10.033  17.147  0.00  0.00    +0.000 A 
BRANCH   2   9
ATOM      8  C   UNL     1      -5.464  12.213  17.079  0.00  0.00    +0.000 C 
ATOM      9  O   UNL     1      -5.044  10.962  17.604  0.00  0.00    +0.000 OA
ENDBRANCH   2   9
BRANCH   7  10
ATOM     10  O   UNL     1      -3.085   9.454  15.940  0.00  0.00    +0.000 OA
ATOM     11  C   UNL     1      -2.972  10.282  14.786  0.00  0.00    +0.000 C 
ENDBRANCH   7  10
ENDBRANCH   1   5
BRANCH   1  12
ATOM     12  C   UNL     1       1.326   9.581  18.382  0.00  0.00    +0.000 C 
ATOM     13  O   UNL     1       1.851   9.827  17.291  0.00  0.00    +0.000 OA
ATOM     14  N   UNL     1       1.435   8.342  18.981  0.00  0.00    +0.000 N 
ATOM     15  H   UNL     1       0.732   8.114  19.680  0.00  0.00    +0.000 HD
BRANCH  14  16
ATOM     16  C   UNL     1       2.246   7.272  18.428  0.00  0.00    +0.000 C 
ATOM     17  C   UNL     1       3.550   7.795  17.825  0.00  0.00    +0.000 C 
ATOM     18  C   UNL     1       4.427   6.554  17.718  0.00  0.00    +0.000 C 
ATOM     19  C   UNL     1       3.983   5.635  18.856  0.00  0.00    +0.000 C 
ATOM     20  C   UNL     1       2.755   6.292  19.484  0.00  0.00    +0.000 C 
ENDBRANCH  14  16
ENDBRANCH   1  12
BRANCH   1  21
ATOM     21  N   UNL     1       1.177  11.884  19.520  0.00  0.00    +0.000 N 
ATOM     22  C   UNL     1       1.392  12.094  20.894  0.00  0.00    +0.000 C 
ATOM     23  O   UNL     1       1.139  11.214  21.720  0.00  0.00    +0.000 OA
BRANCH  22  24
ATOM     24  C   UNL     1       1.952  13.385  21.376  0.00  0.00    +0.000 A 
ATOM     25  C   UNL     1       1.181  14.512  21.764  0.00  0.00    +0.000 A 
ATOM     26  C   UNL     1       2.084  15.511  22.060  0.00  0.00    +0.000 A 
ATOM     27  N   UNL     1       3.310  14.959  21.833  0.00  0.00    +0.000 N 
ATOM     28  N   UNL     1       3.266  13.678  21.440  0.00  0.00    +0.000 NA
ATOM     29  H   UNL     1       4.224  15.406  21.916  0.00  0.00    +0.000 HD
ENDBRANCH  22  24
BRANCH  21  30
ATOM     30  C   UNL     1       1.810  12.740  18.494  0.00  0.00    +0.000 C 
BRANCH  30  31
ATOM     31  C   UNL     1       1.416  14.207  18.395  0.00  0.00    +0.000 A 
ATOM     32  C   UNL     1       2.413  15.179  18.230  0.00  0.00    +0.000 A 
ATOM     33  C   UNL     1       2.110  16.539  18.302  0.00  0.00    +0.000 A 
ATOM     34  C   UNL     1       0.801  16.962  18.540  0.00  0.00    +0.000 A 
ATOM     35  C   UNL     1       0.527  18.394  18.901  0.00  0.00    +0.000 C 
ATOM     36  C   UNL     1      -0.220  16.007  18.550  0.00  0.00    +0.000 A 
ATOM     37  C   UNL     1       0.083  14.640  18.462  0.00  0.00    +0.000 A 
ENDBRANCH  30  31
ENDBRANCH  21  30
ENDBRANCH   1  21
TORSDOF 9
ENDMDL
MODEL 7
REMARK VINA RESULT:      -6.4      2.142      6.102
REMARK  Name = 
REMARK  12 active torsions:
REMARK  status: ('A' for Active; 'I' for Inactive)
REMARK    1  A    between atoms: C_1  and  O_2
REMARK    2  A    between atoms: O_2  and  C_3
REMARK    3  A    between atoms: C_6  and  C_7
REMARK    4  A    between atoms: C_7  and  C_8
REMARK    5  A    between atoms: C_7  and  N_16
REMARK    6  A    between atoms: N_10  and  C_11
REMARK    7  A    between atoms: N_16  and  C_17
REMARK    8  A    between atoms: C_17  and  C_18
REMARK    9  A    between atoms: C_21  and  C_22
REMARK   10  A    between atoms: C_25  and  C_27
REMARK   11  A    between atoms: C_33  and  O_34
REMARK   12  A    between atoms: O_34  and  C_35
REMARK                            x       y       z     vdW  Elec       q    Type
REMARK                         _______ _______ _______ _____ _____    ______ ____
ROOT
ATOM      1  C   UNL     1       0.058  10.420  19.562  0.00  0.00    +0.000 C 
ENDROOT
BRANCH   1   5
ATOM      2  C   UNL     1      -3.725  10.858  17.491  0.00  0.00    +0.000 A 
ATOM      3  C   UNL     1      -3.361  11.764  18.496  0.00  0.00    +0.000 A 
ATOM      4  C   UNL     1      -2.096  11.736  19.090  0.00  0.00    +0.000 A 
ATOM      5  C   UNL     1      -1.168  10.756  18.722  0.00  0.00    +0.000 A 
ATOM      6  C   UNL     1      -1.479   9.954  17.600  0.00  0.00    +0.000 A 
ATOM      7  C   UNL     1      -2.753   9.981  16.992  0.00  0.00    +0.000 A 
BRANCH   2   9
ATOM      8  C   UNL     1      -5.709  12.180  17.522  0.00  0.00    +0.000 C 
ATOM      9  O   UNL     1      -4.957  11.118  16.955  0.00  0.00    +0.000 OA
ENDBRANCH   2   9
BRANCH   7  10
ATOM     10  O   UNL     1      -2.852   9.375  15.768  0.00  0.00    +0.000 OA
ATOM     11  C   UNL     1      -2.927  10.230  14.632  0.00  0.00    +0.000 C 
ENDBRANCH   7  10
ENDBRANCH   1   5
BRANCH   1  12
ATOM     12  C   UNL     1       1.163   9.517  18.887  0.00  0.00    +0.000 C 
ATOM     13  O   UNL     1       1.698   9.849  17.825  0.00  0.00    +0.000 OA
ATOM     14  N   UNL     1       1.451   8.317  19.505  0.00  0.00    +0.000 N 
ATOM     15  H   UNL     1       0.760   7.970  20.166  0.00  0.00    +0.000 HD
BRANCH  14  16
ATOM     16  C   UNL     1       2.467   7.405  19.010  0.00  0.00    +0.000 C 
ATOM     17  C   UNL     1       2.821   6.330  20.037  0.00  0.00    +0.000 C 
ATOM     18  C   UNL     1       3.522   5.255  19.215  0.00  0.00    +0.000 C 
ATOM     19  C   UNL     1       2.913   5.341  17.817  0.00  0.00    +0.000 C 
ATOM     20  C   UNL     1       2.000   6.567  17.821  0.00  0.00    +0.000 C 
ENDBRANCH  14  16
ENDBRANCH   1  12
BRANCH   1  21
ATOM     21  N   UNL     1       0.605  11.555  20.355  0.00  0.00    +0.000 N 
ATOM     22  C   UNL     1       1.204  12.613  19.648  0.00  0.00    +0.000 C 
ATOM     23  O   UNL     1       1.121  12.685  18.419  0.00  0.00    +0.000 OA
BRANCH  22  24
ATOM     24  C   UNL     1       1.937  13.682  20.377  0.00  0.00    +0.000 A 
ATOM     25  C   UNL     1       1.659  15.071  20.280  0.00  0.00    +0.000 A 
ATOM     26  C   UNL     1       2.614  15.708  21.043  0.00  0.00    +0.000 A 
ATOM     27  N   UNL     1       3.399  14.707  21.534  0.00  0.00    +0.000 N 
ATOM     28  N   UNL     1       3.009  13.479  21.169  0.00  0.00    +0.000 NA
ATOM     29  H   UNL     1       4.232  14.794  22.120  0.00  0.00    +0.000 HD
ENDBRANCH  22  24
BRANCH  21  30
ATOM     30  C   UNL     1       0.356  11.636  21.810  0.00  0.00    +0.000 C 
BRANCH  30  31
ATOM     31  C   UNL     1      -0.918  12.297  22.317  0.00  0.00    +0.000 A 
ATOM     32  C   UNL     1      -1.824  11.550  23.084  0.00  0.00    +0.000 A 
ATOM     33  C   UNL     1      -3.075  12.067  23.424  0.00  0.00    +0.000 A 
ATOM     34  C   UNL     1      -3.451  13.345  23.007  0.00  0.00    +0.000 A 
ATOM     35  C   UNL     1      -4.882  13.783  23.123  0.00  0.00    +0.000 C 
ATOM     36  C   UNL     1      -2.498  14.152  22.378  0.00  0.00    +0.000 A 
ATOM     37  C   UNL     1      -1.234  13.637  22.050  0.00  0.00    +0.000 A 
ENDBRANCH  30  31
ENDBRANCH  21  30
ENDBRANCH   1  21
TORSDOF 9
ENDMDL
MODEL 8
REMARK VINA RESULT:      -6.3      2.703      6.308
REMARK  Name = 
REMARK  12 active torsions:
REMARK  status: ('A' for Active; 'I' for Inactive)
REMARK    1  A    between atoms: C_1  and  O_2
REMARK    2  A    between atoms: O_2  and  C_3
REMARK    3  A    between atoms: C_6  and  C_7
REMARK    4  A    between atoms: C_7  and  C_8
REMARK    5  A    between atoms: C_7  and  N_16
REMARK    6  A    between atoms: N_10  and  C_11
REMARK    7  A    between atoms: N_16  and  C_17
REMARK    8  A    between atoms: C_17  and  C_18
REMARK    9  A    between atoms: C_21  and  C_22
REMARK   10  A    between atoms: C_25  and  C_27
REMARK   11  A    between atoms: C_33  and  O_34
REMARK   12  A    between atoms: O_34  and  C_35
REMARK                            x       y       z     vdW  Elec       q    Type
REMARK                         _______ _______ _______ _____ _____    ______ ____
ROOT
ATOM      1  C   UNL     1       0.716  10.902  19.106  0.00  0.00    +0.000 C 
ENDROOT
BRANCH   1   5
ATOM      2  C   UNL     1       2.303   6.973  20.024  0.00  0.00    +0.000 A 
ATOM      3  C   UNL     1       1.435   7.611  20.920  0.00  0.00    +0.000 A 
ATOM      4  C   UNL     1       0.799   8.814  20.599  0.00  0.00    +0.000 A 
ATOM      5  C   UNL     1       1.057   9.441  19.376  0.00  0.00    +0.000 A 
ATOM      6  C   UNL     1       1.801   8.715  18.417  0.00  0.00    +0.000 A 
ATOM      7  C   UNL     1       2.441   7.498  18.733  0.00  0.00    +0.000 A 
BRANCH   2   9
ATOM      8  C   UNL     1       1.775   4.713  20.569  0.00  0.00    +0.000 C 
ATOM      9  O   UNL     1       2.735   5.755  20.471  0.00  0.00    +0.000 OA
ENDBRANCH   2   9
BRANCH   7  10
ATOM     10  O   UNL     1       2.896   6.760  17.672  0.00  0.00    +0.000 OA
ATOM     11  C   UNL     1       4.261   6.937  17.305  0.00  0.00    +0.000 C 
ENDBRANCH   7  10
ENDBRANCH   1   5
BRANCH   1  12
ATOM     12  C   UNL     1      -0.693  11.201  18.462  0.00  0.00    +0.000 C 
ATOM     13  O   UNL     1      -0.958  12.312  17.992  0.00  0.00    +0.000 OA
ATOM     14  N   UNL     1      -1.629  10.187  18.509  0.00  0.00    +0.000 N 
ATOM     15  H   UNL     1      -1.459   9.444  19.182  0.00  0.00    +0.000 HD
BRANCH  14  16
ATOM     16  C   UNL     1      -2.953  10.315  17.926  0.00  0.00    +0.000 C 
ATOM     17  C   UNL     1      -3.684  11.559  18.431  0.00  0.00    +0.000 C 
ATOM     18  C   UNL     1      -4.803  11.761  17.418  0.00  0.00    +0.000 C 
ATOM     19  C   UNL     1      -4.271  11.207  16.097  0.00  0.00    +0.000 C 
ATOM     20  C   UNL     1      -2.929  10.550  16.417  0.00  0.00    +0.000 C 
ENDBRANCH  14  16
ENDBRANCH   1  12
BRANCH   1  21
ATOM     21  N   UNL     1       1.099  11.846  20.192  0.00  0.00    +0.000 N 
ATOM     22  C   UNL     1       1.826  12.993  19.829  0.00  0.00    +0.000 C 
ATOM     23  O   UNL     1       1.987  13.297  18.644  0.00  0.00    +0.000 OA
BRANCH  22  24
ATOM     24  C   UNL     1       2.404  13.877  20.876  0.00  0.00    +0.000 A 
ATOM     25  C   UNL     1       1.834  15.101  21.314  0.00  0.00    +0.000 A 
ATOM     26  C   UNL     1       2.721  15.635  22.224  0.00  0.00    +0.000 A 
ATOM     27  N   UNL     1       3.751  14.743  22.277  0.00  0.00    +0.000 N 
ATOM     28  N   UNL     1       3.583  13.668  21.495  0.00  0.00    +0.000 NA
ATOM     29  H   UNL     1       4.612  14.813  22.822  0.00  0.00    +0.000 HD
ENDBRANCH  22  24
BRANCH  21  30
ATOM     30  C   UNL     1       0.569  11.662  21.560  0.00  0.00    +0.000 C 
BRANCH  30  31
ATOM     31  C   UNL     1      -0.835  12.147  21.892  0.00  0.00    +0.000 A 
ATOM     32  C   UNL     1      -1.357  13.260  21.218  0.00  0.00    +0.000 A 
ATOM     33  C   UNL     1      -2.568  13.834  21.609  0.00  0.00    +0.000 A 
ATOM     34  C   UNL     1      -3.288  13.308  22.684  0.00  0.00    +0.000 A 
ATOM     35  C   UNL     1      -4.425  14.086  23.280  0.00  0.00    +0.000 C 
ATOM     36  C   UNL     1      -2.853  12.109  23.258  0.00  0.00    +0.000 A 
ATOM     37  C   UNL     1      -1.643  11.524  22.854  0.00  0.00    +0.000 A 
ENDBRANCH  30  31
ENDBRANCH  21  30
ENDBRANCH   1  21
TORSDOF 9
ENDMDL
MODEL 9
REMARK VINA RESULT:      -6.3      2.044      5.774
REMARK  Name = 
REMARK  12 active torsions:
REMARK  status: ('A' for Active; 'I' for Inactive)
REMARK    1  A    between atoms: C_1  and  O_2
REMARK    2  A    between atoms: O_2  and  C_3
REMARK    3  A    between atoms: C_6  and  C_7
REMARK    4  A    between atoms: C_7  and  C_8
REMARK    5  A    between atoms: C_7  and  N_16
REMARK    6  A    between atoms: N_10  and  C_11
REMARK    7  A    between atoms: N_16  and  C_17
REMARK    8  A    between atoms: C_17  and  C_18
REMARK    9  A    between atoms: C_21  and  C_22
REMARK   10  A    between atoms: C_25  and  C_27
REMARK   11  A    between atoms: C_33  and  O_34
REMARK   12  A    between atoms: O_34  and  C_35
REMARK                            x       y       z     vdW  Elec       q    Type
REMARK                         _______ _______ _______ _____ _____    ______ ____
ROOT
ATOM      1  C   UNL     1      -0.328  10.830  19.604  0.00  0.00    +0.000 C 
ENDROOT
BRANCH   1   5
ATOM      2  C   UNL     1      -3.437  10.933  16.584  0.00  0.00    +0.000 A 
ATOM      3  C   UNL     1      -2.322  10.099  16.423  0.00  0.00    +0.000 A 
ATOM      4  C   UNL     1      -1.370   9.938  17.433  0.00  0.00    +0.000 A 
ATOM      5  C   UNL     1      -1.486  10.655  18.628  0.00  0.00    +0.000 A 
ATOM      6  C   UNL     1      -2.690  11.363  18.849  0.00  0.00    +0.000 A 
ATOM      7  C   UNL     1      -3.657  11.525  17.834  0.00  0.00    +0.000 A 
BRANCH   2   9
ATOM      8  C   UNL     1      -3.881  10.197  14.360  0.00  0.00    +0.000 C 
ATOM      9  O   UNL     1      -4.311  10.870  15.534  0.00  0.00    +0.000 OA
ENDBRANCH   2   9
BRANCH   7  10
ATOM     10  O   UNL     1      -4.883  11.987  18.236  0.00  0.00    +0.000 OA
ATOM     11  C   UNL     1      -5.820  11.015  18.688  0.00  0.00    +0.000 C 
ENDBRANCH   7  10
ENDBRANCH   1   5
BRANCH   1  12
ATOM     12  C   UNL     1       0.992  10.020  19.300  0.00  0.00    +0.000 C 
ATOM     13  O   UNL     1       1.907  10.515  18.634  0.00  0.00    +0.000 OA
ATOM     14  N   UNL     1       1.045   8.719  19.758  0.00  0.00    +0.000 N 
ATOM     15  H   UNL     1       0.157   8.286  19.998  0.00  0.00    +0.000 HD
BRANCH  14  16
ATOM     16  C   UNL     1       2.211   7.871  19.577  0.00  0.00    +0.000 C 
ATOM     17  C   UNL     1       2.042   6.512  20.257  0.00  0.00    +0.000 C 
ATOM     18  C   UNL     1       3.109   5.642  19.605  0.00  0.00    +0.000 C 
ATOM     19  C   UNL     1       3.289   6.197  18.193  0.00  0.00    +0.000 C 
ATOM     20  C   UNL     1       2.447   7.471  18.122  0.00  0.00    +0.000 C 
ENDBRANCH  14  16
ENDBRANCH   1  12
BRANCH   1  21
ATOM     21  N   UNL     1      -0.091  12.230  20.051  0.00  0.00    +0.000 N 
ATOM     22  C   UNL     1       0.126  13.201  19.056  0.00  0.00    +0.000 C 
ATOM     23  O   UNL     1      -0.050  12.941  17.863  0.00  0.00    +0.000 OA
BRANCH  22  24
ATOM     24  C   UNL     1       0.556  14.575  19.431  0.00  0.00    +0.000 A 
ATOM     25  C   UNL     1      -0.249  15.739  19.321  0.00  0.00    +0.000 A 
ATOM     26  C   UNL     1       0.552  16.797  19.691  0.00  0.00    +0.000 A 
ATOM     27  N   UNL     1       1.762  16.239  19.982  0.00  0.00    +0.000 N 
ATOM     28  N   UNL     1       1.792  14.905  19.855  0.00  0.00    +0.000 NA
ATOM     29  H   UNL     1       2.620  16.716  20.266  0.00  0.00    +0.000 HD
ENDBRANCH  22  24
BRANCH  21  30
ATOM     30  C   UNL     1      -0.262  12.598  21.472  0.00  0.00    +0.000 C 
BRANCH  30  31
ATOM     31  C   UNL     1      -1.657  12.876  22.012  0.00  0.00    +0.000 A 
ATOM     32  C   UNL     1      -2.103  12.197  23.155  0.00  0.00    +0.000 A 
ATOM     33  C   UNL     1      -3.428  12.299  23.581  0.00  0.00    +0.000 A 
ATOM     34  C   UNL     1      -4.341  13.084  22.875  0.00  0.00    +0.000 A 
ATOM     35  C   UNL     1      -5.811  12.966  23.159  0.00  0.00    +0.000 C 
ATOM     36  C   UNL     1      -3.870  13.883  21.829  0.00  0.00    +0.000 A 
ATOM     37  C   UNL     1      -2.534  13.792  21.410  0.00  0.00    +0.000 A 
ENDBRANCH  30  31
ENDBRANCH  21  30
ENDBRANCH   1  21
TORSDOF 9
ENDMDL
