MODEL 1
REMARK VINA RESULT:      -7.3      0.000      0.000
REMARK  Name = 
REMARK  8 active torsions:
REMARK  status: ('A' for Active; 'I' for Inactive)
REMARK    1  A    between atoms: C_1  and  O_2
REMARK    2  A    between atoms: O_2  and  C_3
REMARK    3  A    between atoms: C_6  and  C_7
REMARK    4  A    between atoms: C_8  and  C_9
REMARK    5  A    between atoms: C_9  and  C_11
REMARK    6  A    between atoms: C_14  and  O_15
REMARK    7  A    between atoms: O_15  and  C_16
REMARK    8  A    between atoms: C_18  and  O_19
REMARK                            x       y       z     vdW  Elec       q    Type
REMARK                         _______ _______ _______ _____ _____    ______ ____
ROOT
ATOM      1  C   UNL     1       7.641   6.822  18.187  0.00  0.00    +0.000 C 
ATOM      2  O   UNL     1       7.889   6.304  19.279  0.00  0.00    +0.000 OA
ENDROOT
BRANCH   1   3
ATOM      3  C   UNL     1       6.999   6.030  17.100  0.00  0.00    +0.000 A 
ATOM      4  C   UNL     1       6.040   6.659  16.296  0.00  0.00    +0.000 A 
ATOM      5  C   UNL     1       5.430   5.958  15.250  0.00  0.00    +0.000 A 
ATOM      6  C   UNL     1       5.772   4.629  14.988  0.00  0.00    +0.000 A 
ATOM      7  C   UNL     1       6.727   3.997  15.783  0.00  0.00    +0.000 A 
ATOM      8  C   UNL     1       7.334   4.695  16.831  0.00  0.00    +0.000 A 
BRANCH   6   9
ATOM      9  O   UNL     1       5.106   4.059  13.939  0.00  0.00    +0.000 OA
ATOM     10  C   UNL     1       5.894   3.577  12.856  0.00  0.00    +0.000 C 
ENDBRANCH   6   9
BRANCH   8  11
ATOM     11  O   UNL     1       8.270   4.044  17.589  0.00  0.00    +0.000 OA
ATOM     12  H   UNL     1       7.899   3.806  18.454  0.00  0.00    +0.000 HD
ENDBRANCH   8  11
ENDBRANCH   1   3
BRANCH   1  14
ATOM     13  C   UNL     1       8.744   8.974  18.718  0.00  0.00    +0.000 C 
ATOM     14  C   UNL     1       7.995   8.232  17.885  0.00  0.00    +0.000 C 
BRANCH  13  18
ATOM     15  C   UNL     1       9.616  13.143  18.141  0.00  0.00    +0.000 A 
ATOM     16  C   UNL     1      10.465  12.336  18.896  0.00  0.00    +0.000 A 
ATOM     17  C   UNL     1      10.189  10.970  19.057  0.00  0.00    +0.000 A 
ATOM     18  C   UNL     1       9.043  10.398  18.491  0.00  0.00    +0.000 A 
ATOM     19  C   UNL     1       8.224  11.214  17.699  0.00  0.00    +0.000 A 
ATOM     20  C   UNL     1       8.502  12.572  17.533  0.00  0.00    +0.000 A 
BRANCH  15  22
ATOM     21  C   UNL     1      10.706  14.964  19.143  0.00  0.00    +0.000 C 
ATOM     22  O   UNL     1       9.948  14.468  18.044  0.00  0.00    +0.000 OA
ENDBRANCH  15  22
ENDBRANCH  13  18
ENDBRANCH   1  14
TORSDOF 6
ENDMDL
MODEL 2
REMARK VINA RESULT:      -7.2      2.604      3.193
REMARK  Name = 
REMARK  8 active torsions:
REMARK  status: ('A' for Active; 'I' for Inactive)
REMARK    1  A    between atoms: C_1  and  O_2
REMARK    2  A    between atoms: O_2  and  C_3
REMARK    3  A    between atoms: C_6  and  C_7
REMARK    4  A    between atoms: C_8  and  C_9
REMARK    5  A    between atoms: C_9  and  C_11
REMARK    6  A    between atoms: C_14  and  O_15
REMARK    7  A    between atoms: O_15  and  C_16
REMARK    8  A    between atoms: C_18  and  O_19
REMARK                            x       y       z     vdW  Elec       q    Type
REMARK                         _______ _______ _______ _____ _____    ______ ____
ROOT
ATOM      1  C   UNL     1       7.184   6.643  17.210  0.00  0.00    +0.000 C 
ATOM      2  O   UNL     1       7.692   6.169  16.190  0.00  0.00    +0.000 OA
ENDROOT
BRANCH   1   3
ATOM      3  C   UNL     1       5.864   6.155  17.698  0.00  0.00    +0.000 A 
ATOM      4  C   UNL     1       4.737   6.960  17.485  0.00  0.00    +0.000 A 
ATOM      5  C   UNL     1       3.475   6.528  17.907  0.00  0.00    +0.000 A 
ATOM      6  C   UNL     1       3.318   5.291  18.538  0.00  0.00    +0.000 A 
ATOM      7  C   UNL     1       4.434   4.485  18.752  0.00  0.00    +0.000 A 
ATOM      8  C   UNL     1       5.697   4.916  18.333  0.00  0.00    +0.000 A 
BRANCH   6   9
ATOM      9  O   UNL     1       2.035   4.987  18.899  0.00  0.00    +0.000 OA
ATOM     10  C   UNL     1       1.836   4.466  20.208  0.00  0.00    +0.000 C 
ENDBRANCH   6   9
BRANCH   8  11
ATOM     11  O   UNL     1       6.771   4.096  18.557  0.00  0.00    +0.000 OA
ATOM     12  H   UNL     1       6.888   3.481  17.815  0.00  0.00    +0.000 HD
ENDBRANCH   8  11
ENDBRANCH   1   3
BRANCH   1  14
ATOM     13  C   UNL     1       7.862   9.003  17.529  0.00  0.00    +0.000 C 
ATOM     14  C   UNL     1       7.833   7.736  17.977  0.00  0.00    +0.000 C 
BRANCH  13  18
ATOM     15  C   UNL     1       9.972  12.198  19.481  0.00  0.00    +0.000 A 
ATOM     16  C   UNL     1       9.268  12.427  18.300  0.00  0.00    +0.000 A 
ATOM     17  C   UNL     1       8.558  11.386  17.684  0.00  0.00    +0.000 A 
ATOM     18  C   UNL     1       8.569  10.093  18.223  0.00  0.00    +0.000 A 
ATOM     19  C   UNL     1       9.247   9.891  19.432  0.00  0.00    +0.000 A 
ATOM     20  C   UNL     1       9.947  10.928  20.050  0.00  0.00    +0.000 A 
BRANCH  15  22
ATOM     21  C   UNL     1      12.013  13.351  19.608  0.00  0.00    +0.000 C 
ATOM     22  O   UNL     1      10.650  13.263  20.012  0.00  0.00    +0.000 OA
ENDBRANCH  15  22
ENDBRANCH  13  18
ENDBRANCH   1  14
TORSDOF 6
ENDMDL
MODEL 3
REMARK VINA RESULT:      -7.2      5.326      6.355
REMARK  Name = 
REMARK  8 active torsions:
REMARK  status: ('A' for Active; 'I' for Inactive)
REMARK    1  A    between atoms: C_1  and  O_2
REMARK    2  A    between atoms: O_2  and  C_3
REMARK    3  A    between atoms: C_6  and  C_7
REMARK    4  A    between atoms: C_8  and  C_9
REMARK    5  A    between atoms: C_9  and  C_11
REMARK    6  A    between atoms: C_14  and  O_15
REMARK    7  A    between atoms: O_15  and  C_16
REMARK    8  A    between atoms: C_18  and  O_19
REMARK                            x       y       z     vdW  Elec       q    Type
REMARK                         _______ _______ _______ _____ _____    ______ ____
ROOT
ATOM      1  C   UNL     1       3.960   4.242  19.277  0.00  0.00    +0.000 C 
ATOM      2  O   UNL     1       3.908   3.214  19.959  0.00  0.00    +0.000 OA
ENDROOT
BRANCH   1   3
ATOM      3  C   UNL     1       4.994   4.397  18.215  0.00  0.00    +0.000 A 
ATOM      4  C   UNL     1       4.642   4.090  16.894  0.00  0.00    +0.000 A 
ATOM      5  C   UNL     1       5.577   4.244  15.865  0.00  0.00    +0.000 A 
ATOM      6  C   UNL     1       6.866   4.709  16.135  0.00  0.00    +0.000 A 
ATOM      7  C   UNL     1       7.222   5.018  17.446  0.00  0.00    +0.000 A 
ATOM      8  C   UNL     1       6.291   4.862  18.477  0.00  0.00    +0.000 A 
BRANCH   6   9
ATOM      9  O   UNL     1       7.680   4.816  15.042  0.00  0.00    +0.000 OA
ATOM     10  C   UNL     1       7.066   4.707  13.762  0.00  0.00    +0.000 C 
ENDBRANCH   6   9
BRANCH   8  11
ATOM     11  O   UNL     1       6.674   5.178  19.753  0.00  0.00    +0.000 OA
ATOM     12  H   UNL     1       6.427   6.092  19.965  0.00  0.00    +0.000 HD
ENDBRANCH   8  11
ENDBRANCH   1   3
BRANCH   1  14
ATOM     13  C   UNL     1       3.083   6.497  18.752  0.00  0.00    +0.000 C 
ATOM     14  C   UNL     1       3.033   5.381  19.497  0.00  0.00    +0.000 C 
BRANCH  13  18
ATOM     15  C   UNL     1       0.677   9.991  19.442  0.00  0.00    +0.000 A 
ATOM     16  C   UNL     1       1.179   9.712  18.172  0.00  0.00    +0.000 A 
ATOM     17  C   UNL     1       1.941   8.556  17.948  0.00  0.00    +0.000 A 
ATOM     18  C   UNL     1       2.236   7.677  18.998  0.00  0.00    +0.000 A 
ATOM     19  C   UNL     1       1.687   7.950  20.258  0.00  0.00    +0.000 A 
ATOM     20  C   UNL     1       0.924   9.097  20.480  0.00  0.00    +0.000 A 
BRANCH  15  22
ATOM     21  C   UNL     1       0.529  12.277  18.931  0.00  0.00    +0.000 C 
ATOM     22  O   UNL     1      -0.045  11.147  19.581  0.00  0.00    +0.000 OA
ENDBRANCH  15  22
ENDBRANCH  13  18
ENDBRANCH   1  14
TORSDOF 6
ENDMDL
MODEL 4
REMARK VINA RESULT:      -7.2      5.488      6.100
REMARK  Name = 
REMARK  8 active torsions:
REMARK  status: ('A' for Active; 'I' for Inactive)
REMARK    1  A    between atoms: C_1  and  O_2
REMARK    2  A    between atoms: O_2  and  C_3
REMARK    3  A    between atoms: C_6  and  C_7
REMARK    4  A    between atoms: C_8  and  C_9
REMARK    5  A    between atoms: C_9  and  C_11
REMARK    6  A    between atoms: C_14  and  O_15
REMARK    7  A    between atoms: O_15  and  C_16
REMARK    8  A    between atoms: C_18  and  O_19
REMARK                            x       y       z     vdW  Elec       q    Type
REMARK                         _______ _______ _______ _____ _____    ______ ____
ROOT
ATOM      1  C   UNL     1       4.875   4.289  18.921  0.00  0.00    +0.000 C 
ATOM      2  O   UNL     1       5.056   3.324  19.669  0.00  0.00    +0.000 OA
ENDROOT
BRANCH   1   3
ATOM      3  C   UNL     1       5.510   4.334  17.574  0.00  0.00    +0.000 A 
ATOM      4  C   UNL     1       4.696   4.151  16.449  0.00  0.00    +0.000 A 
ATOM      5  C   UNL     1       5.250   4.208  15.165  0.00  0.00    +0.000 A 
ATOM      6  C   UNL     1       6.613   4.456  14.986  0.00  0.00    +0.000 A 
ATOM      7  C   UNL     1       7.428   4.641  16.101  0.00  0.00    +0.000 A 
ATOM      8  C   UNL     1       6.877   4.580  17.385  0.00  0.00    +0.000 A 
BRANCH   6   9
ATOM      9  O   UNL     1       7.026   4.489  13.683  0.00  0.00    +0.000 OA
ATOM     10  C   UNL     1       6.294   3.702  12.750  0.00  0.00    +0.000 C 
ENDBRANCH   6   9
BRANCH   8  11
ATOM     11  O   UNL     1       7.707   4.770  18.457  0.00  0.00    +0.000 OA
ATOM     12  H   UNL     1       7.770   3.957  18.984  0.00  0.00    +0.000 HD
ENDBRANCH   8  11
ENDBRANCH   1   3
BRANCH   1  14
ATOM     13  C   UNL     1       3.243   6.096  18.469  0.00  0.00    +0.000 C 
ATOM     14  C   UNL     1       4.056   5.458  19.329  0.00  0.00    +0.000 C 
BRANCH  13  18
ATOM     15  C   UNL     1       0.960   9.585  19.512  0.00  0.00    +0.000 A 
ATOM     16  C   UNL     1       1.235   8.604  20.463  0.00  0.00    +0.000 A 
ATOM     17  C   UNL     1       2.005   7.481  20.123  0.00  0.00    +0.000 A 
ATOM     18  C   UNL     1       2.484   7.309  18.818  0.00  0.00    +0.000 A 
ATOM     19  C   UNL     1       2.234   8.325  17.887  0.00  0.00    +0.000 A 
ATOM     20  C   UNL     1       1.474   9.445  18.226  0.00  0.00    +0.000 A 
BRANCH  15  22
ATOM     21  C   UNL     1       0.224  11.764  19.045  0.00  0.00    +0.000 C 
ATOM     22  O   UNL     1       0.191  10.641  19.920  0.00  0.00    +0.000 OA
ENDBRANCH  15  22
ENDBRANCH  13  18
ENDBRANCH   1  14
TORSDOF 6
ENDMDL
MODEL 5
REMARK VINA RESULT:      -7.2      5.597      6.343
REMARK  Name = 
REMARK  8 active torsions:
REMARK  status: ('A' for Active; 'I' for Inactive)
REMARK    1  A    between atoms: C_1  and  O_2
REMARK    2  A    between atoms: O_2  and  C_3
REMARK    3  A    between atoms: C_6  and  C_7
REMARK    4  A    between atoms: C_8  and  C_9
REMARK    5  A    between atoms: C_9  and  C_11
REMARK    6  A    between atoms: C_14  and  O_15
REMARK    7  A    between atoms: O_15  and  C_16
REMARK    8  A    between atoms: C_18  and  O_19
REMARK                            x       y       z     vdW  Elec       q    Type
REMARK                         _______ _______ _______ _____ _____    ______ ____
ROOT
ATOM      1  C   UNL     1       3.652   4.044  17.527  0.00  0.00    +0.000 C 
ATOM      2  O   UNL     1       3.409   2.897  17.911  0.00  0.00    +0.000 OA
ENDROOT
BRANCH   1   3
ATOM      3  C   UNL     1       4.871   4.332  16.721  0.00  0.00    +0.000 A 
ATOM      4  C   UNL     1       4.715   4.615  15.357  0.00  0.00    +0.000 A 
ATOM      5  C   UNL     1       5.832   4.913  14.569  0.00  0.00    +0.000 A 
ATOM      6  C   UNL     1       7.112   4.940  15.128  0.00  0.00    +0.000 A 
ATOM      7  C   UNL     1       7.274   4.662  16.483  0.00  0.00    +0.000 A 
ATOM      8  C   UNL     1       6.160   4.361  17.272  0.00  0.00    +0.000 A 
BRANCH   6   9
ATOM      9  O   UNL     1       8.116   5.246  14.251  0.00  0.00    +0.000 OA
ATOM     10  C   UNL     1       7.794   5.230  12.865  0.00  0.00    +0.000 C 
ENDBRANCH   6   9
BRANCH   8  11
ATOM     11  O   UNL     1       6.356   4.095  18.601  0.00  0.00    +0.000 OA
ATOM     12  H   UNL     1       7.205   4.460  18.897  0.00  0.00    +0.000 HD
ENDBRANCH   8  11
ENDBRANCH   1   3
BRANCH   1  14
ATOM     13  C   UNL     1       3.271   6.359  18.319  0.00  0.00    +0.000 C 
ATOM     14  C   UNL     1       2.776   5.193  17.873  0.00  0.00    +0.000 C 
BRANCH  13  18
ATOM     15  C   UNL     1       0.751   9.593  19.608  0.00  0.00    +0.000 A 
ATOM     16  C   UNL     1       1.173   8.617  20.510  0.00  0.00    +0.000 A 
ATOM     17  C   UNL     1       2.019   7.580  20.088  0.00  0.00    +0.000 A 
ATOM     18  C   UNL     1       2.428   7.487  18.752  0.00  0.00    +0.000 A 
ATOM     19  C   UNL     1       2.028   8.500  17.870  0.00  0.00    +0.000 A 
ATOM     20  C   UNL     1       1.193   9.536  18.290  0.00  0.00    +0.000 A 
BRANCH  15  22
ATOM     21  C   UNL     1       0.571  11.776  20.453  0.00  0.00    +0.000 C 
ATOM     22  O   UNL     1      -0.085  10.563  20.096  0.00  0.00    +0.000 OA
ENDBRANCH  15  22
ENDBRANCH  13  18
ENDBRANCH   1  14
TORSDOF 6
ENDMDL
MODEL 6
REMARK VINA RESULT:      -7.2      5.419      6.100
REMARK  Name = 
REMARK  8 active torsions:
REMARK  status: ('A' for Active; 'I' for Inactive)
REMARK    1  A    between atoms: C_1  and  O_2
REMARK    2  A    between atoms: O_2  and  C_3
REMARK    3  A    between atoms: C_6  and  C_7
REMARK    4  A    between atoms: C_8  and  C_9
REMARK    5  A    between atoms: C_9  and  C_11
REMARK    6  A    between atoms: C_14  and  O_15
REMARK    7  A    between atoms: O_15  and  C_16
REMARK    8  A    between atoms: C_18  and  O_19
REMARK                            x       y       z     vdW  Elec       q    Type
REMARK                         _______ _______ _______ _____ _____    ______ ____
ROOT
ATOM      1  C   UNL     1       4.979   4.343  18.903  0.00  0.00    +0.000 C 
ATOM      2  O   UNL     1       5.141   3.354  19.623  0.00  0.00    +0.000 OA
ENDROOT
BRANCH   1   3
ATOM      3  C   UNL     1       5.587   4.401  17.544  0.00  0.00    +0.000 A 
ATOM      4  C   UNL     1       4.742   4.289  16.432  0.00  0.00    +0.000 A 
ATOM      5  C   UNL     1       5.271   4.360  15.138  0.00  0.00    +0.000 A 
ATOM      6  C   UNL     1       6.640   4.550  14.936  0.00  0.00    +0.000 A 
ATOM      7  C   UNL     1       7.486   4.663  16.037  0.00  0.00    +0.000 A 
ATOM      8  C   UNL     1       6.961   4.588  17.331  0.00  0.00    +0.000 A 
BRANCH   6   9
ATOM      9  O   UNL     1       7.027   4.604  13.625  0.00  0.00    +0.000 OA
ATOM     10  C   UNL     1       6.383   3.711  12.723  0.00  0.00    +0.000 C 
ENDBRANCH   6   9
BRANCH   8  11
ATOM     11  O   UNL     1       7.821   4.706  18.390  0.00  0.00    +0.000 OA
ATOM     12  H   UNL     1       7.328   4.729  19.226  0.00  0.00    +0.000 HD
ENDBRANCH   8  11
ENDBRANCH   1   3
BRANCH   1  14
ATOM     13  C   UNL     1       3.081   5.925  18.751  0.00  0.00    +0.000 C 
ATOM     14  C   UNL     1       4.213   5.531  19.357  0.00  0.00    +0.000 C 
BRANCH  13  18
ATOM     15  C   UNL     1       0.997   9.533  19.807  0.00  0.00    +0.000 A 
ATOM     16  C   UNL     1       1.447   9.327  18.505  0.00  0.00    +0.000 A 
ATOM     17  C   UNL     1       2.102   8.135  18.160  0.00  0.00    +0.000 A 
ATOM     18  C   UNL     1       2.343   7.145  19.122  0.00  0.00    +0.000 A 
ATOM     19  C   UNL     1       1.846   7.351  20.415  0.00  0.00    +0.000 A 
ATOM     20  C   UNL     1       1.188   8.534  20.757  0.00  0.00    +0.000 A 
BRANCH  15  22
ATOM     21  C   UNL     1       1.274  11.823  20.239  0.00  0.00    +0.000 C 
ATOM     22  O   UNL     1       0.380  10.728  20.065  0.00  0.00    +0.000 OA
ENDBRANCH  15  22
ENDBRANCH  13  18
ENDBRANCH   1  14
TORSDOF 6
ENDMDL
MODEL 7
REMARK VINA RESULT:      -7.2      2.558      3.128
REMARK  Name = 
REMARK  8 active torsions:
REMARK  status: ('A' for Active; 'I' for Inactive)
REMARK    1  A    between atoms: C_1  and  O_2
REMARK    2  A    between atoms: O_2  and  C_3
REMARK    3  A    between atoms: C_6  and  C_7
REMARK    4  A    between atoms: C_8  and  C_9
REMARK    5  A    between atoms: C_9  and  C_11
REMARK    6  A    between atoms: C_14  and  O_15
REMARK    7  A    between atoms: O_15  and  C_16
REMARK    8  A    between atoms: C_18  and  O_19
REMARK                            x       y       z     vdW  Elec       q    Type
REMARK                         _______ _______ _______ _____ _____    ______ ____
ROOT
ATOM      1  C   UNL     1       7.309   6.985  17.309  0.00  0.00    +0.000 C 
ATOM      2  O   UNL     1       7.774   6.592  16.235  0.00  0.00    +0.000 OA
ENDROOT
BRANCH   1   3
ATOM      3  C   UNL     1       6.051   6.399  17.851  0.00  0.00    +0.000 A 
ATOM      4  C   UNL     1       4.832   6.816  17.301  0.00  0.00    +0.000 A 
ATOM      5  C   UNL     1       3.629   6.273  17.767  0.00  0.00    +0.000 A 
ATOM      6  C   UNL     1       3.625   5.308  18.776  0.00  0.00    +0.000 A 
ATOM      7  C   UNL     1       4.834   4.887  19.327  0.00  0.00    +0.000 A 
ATOM      8  C   UNL     1       6.037   5.431  18.865  0.00  0.00    +0.000 A 
BRANCH   6   9
ATOM      9  O   UNL     1       2.386   4.858  19.139  0.00  0.00    +0.000 OA
ATOM     10  C   UNL     1       1.929   5.197  20.443  0.00  0.00    +0.000 C 
ENDBRANCH   6   9
BRANCH   8  11
ATOM     11  O   UNL     1       7.206   4.992  19.427  0.00  0.00    +0.000 OA
ATOM     12  H   UNL     1       7.937   5.071  18.793  0.00  0.00    +0.000 HD
ENDBRANCH   8  11
ENDBRANCH   1   3
BRANCH   1  14
ATOM     13  C   UNL     1       8.072   9.321  17.605  0.00  0.00    +0.000 C 
ATOM     14  C   UNL     1       7.946   8.075  18.090  0.00  0.00    +0.000 C 
BRANCH  13  18
ATOM     15  C   UNL     1      10.070  12.460  19.758  0.00  0.00    +0.000 A 
ATOM     16  C   UNL     1      10.081  11.150  20.236  0.00  0.00    +0.000 A 
ATOM     17  C   UNL     1       9.451  10.126  19.514  0.00  0.00    +0.000 A 
ATOM     18  C   UNL     1       8.774  10.403  18.319  0.00  0.00    +0.000 A 
ATOM     19  C   UNL     1       8.810  11.716  17.832  0.00  0.00    +0.000 A 
ATOM     20  C   UNL     1       9.443  12.734  18.547  0.00  0.00    +0.000 A 
BRANCH  15  22
ATOM     21  C   UNL     1      11.599  14.239  19.814  0.00  0.00    +0.000 C 
ATOM     22  O   UNL     1      10.696  13.403  20.529  0.00  0.00    +0.000 OA
ENDBRANCH  15  22
ENDBRANCH  13  18
ENDBRANCH   1  14
TORSDOF 6
ENDMDL
MODEL 8
REMARK VINA RESULT:      -7.0      2.606      3.492
REMARK  Name = 
REMARK  8 active torsions:
REMARK  status: ('A' for Active; 'I' for Inactive)
REMARK    1  A    between atoms: C_1  and  O_2
REMARK    2  A    between atoms: O_2  and  C_3
REMARK    3  A    between atoms: C_6  and  C_7
REMARK    4  A    between atoms: C_8  and  C_9
REMARK    5  A    between atoms: C_9  and  C_11
REMARK    6  A    between atoms: C_14  and  O_15
REMARK    7  A    between atoms: O_15  and  C_16
REMARK    8  A    between atoms: C_18  and  O_19
REMARK                            x       y       z     vdW  Elec       q    Type
REMARK                         _______ _______ _______ _____ _____    ______ ____
ROOT
ATOM      1  C   UNL     1       7.323   6.733  17.278  0.00  0.00    +0.000 C 
ATOM      2  O   UNL     1       7.833   6.254  16.261  0.00  0.00    +0.000 OA
ENDROOT
BRANCH   1   3
ATOM      3  C   UNL     1       5.991   6.265  17.752  0.00  0.00    +0.000 A 
ATOM      4  C   UNL     1       5.903   5.684  19.023  0.00  0.00    +0.000 A 
ATOM      5  C   UNL     1       4.666   5.252  19.514  0.00  0.00    +0.000 A 
ATOM      6  C   UNL     1       3.505   5.398  18.752  0.00  0.00    +0.000 A 
ATOM      7  C   UNL     1       3.584   5.976  17.487  0.00  0.00    +0.000 A 
ATOM      8  C   UNL     1       4.820   6.406  16.993  0.00  0.00    +0.000 A 
BRANCH   6   9
ATOM      9  O   UNL     1       2.363   4.937  19.347  0.00  0.00    +0.000 OA
ATOM     10  C   UNL     1       2.467   4.499  20.697  0.00  0.00    +0.000 C 
ENDBRANCH   6   9
BRANCH   8  11
ATOM     11  O   UNL     1       4.861   6.972  15.747  0.00  0.00    +0.000 OA
ATOM     12  H   UNL     1       4.573   7.898  15.786  0.00  0.00    +0.000 HD
ENDBRANCH   8  11
ENDBRANCH   1   3
BRANCH   1  14
ATOM     13  C   UNL     1       7.972   9.094  17.648  0.00  0.00    +0.000 C 
ATOM     14  C   UNL     1       7.982   7.813  18.055  0.00  0.00    +0.000 C 
BRANCH  13  18
ATOM     15  C   UNL     1      10.109  12.255  19.626  0.00  0.00    +0.000 A 
ATOM     16  C   UNL     1       9.497  12.473  18.392  0.00  0.00    +0.000 A 
ATOM     17  C   UNL     1       8.778  11.444  17.766  0.00  0.00    +0.000 A 
ATOM     18  C   UNL     1       8.686  10.174  18.350  0.00  0.00    +0.000 A 
ATOM     19  C   UNL     1       9.271   9.987  19.609  0.00  0.00    +0.000 A 
ATOM     20  C   UNL     1       9.981  11.012  20.236  0.00  0.00    +0.000 A 
BRANCH  15  22
ATOM     21  C   UNL     1      11.059  14.368  19.250  0.00  0.00    +0.000 C 
ATOM     22  O   UNL     1      10.804  13.306  20.163  0.00  0.00    +0.000 OA
ENDBRANCH  15  22
ENDBRANCH  13  18
ENDBRANCH   1  14
TORSDOF 6
ENDMDL
MODEL 9
REMARK VINA RESULT:      -6.9      2.602      3.295
REMARK  Name = 
REMARK  8 active torsions:
REMARK  status: ('A' for Active; 'I' for Inactive)
REMARK    1  A    between atoms: C_1  and  O_2
REMARK    2  A    between atoms: O_2  and  C_3
REMARK    3  A    between atoms: C_6  and  C_7
REMARK    4  A    between atoms: C_8  and  C_9
REMARK    5  A    between atoms: C_9  and  C_11
REMARK    6  A    between atoms: C_14  and  O_15
REMARK    7  A    between atoms: O_15  and  C_16
REMARK    8  A    between atoms: C_18  and  O_19
REMARK                            x       y       z     vdW  Elec       q    Type
REMARK                         _______ _______ _______ _____ _____    ______ ____
ROOT
ATOM      1  C   UNL     1       7.335   6.731  17.274  0.00  0.00    +0.000 C 
ATOM      2  O   UNL     1       7.833   6.345  16.212  0.00  0.00    +0.000 OA
ENDROOT
BRANCH   1   3
ATOM      3  C   UNL     1       6.088   6.107  17.798  0.00  0.00    +0.000 A 
ATOM      4  C   UNL     1       6.144   5.442  19.029  0.00  0.00    +0.000 A 
ATOM      5  C   UNL     1       4.990   4.862  19.567  0.00  0.00    +0.000 A 
ATOM      6  C   UNL     1       3.769   4.942  18.892  0.00  0.00    +0.000 A 
ATOM      7  C   UNL     1       3.706   5.604  17.667  0.00  0.00    +0.000 A 
ATOM      8  C   UNL     1       4.859   6.181  17.126  0.00  0.00    +0.000 A 
BRANCH   6   9
ATOM      9  O   UNL     1       2.719   4.337  19.526  0.00  0.00    +0.000 OA
ATOM     10  C   UNL     1       2.956   3.051  20.087  0.00  0.00    +0.000 C 
ENDBRANCH   6   9
BRANCH   8  11
ATOM     11  O   UNL     1       4.760   6.825  15.922  0.00  0.00    +0.000 OA
ATOM     12  H   UNL     1       5.324   6.395  15.260  0.00  0.00    +0.000 HD
ENDBRANCH   8  11
ENDBRANCH   1   3
BRANCH   1  14
ATOM     13  C   UNL     1       7.987   9.100  17.577  0.00  0.00    +0.000 C 
ATOM     14  C   UNL     1       7.920   7.847  18.058  0.00  0.00    +0.000 C 
BRANCH  13  18
ATOM     15  C   UNL     1       9.833  12.326  19.736  0.00  0.00    +0.000 A 
ATOM     16  C   UNL     1       9.859  11.026  20.239  0.00  0.00    +0.000 A 
ATOM     17  C   UNL     1       9.279   9.973  19.516  0.00  0.00    +0.000 A 
ATOM     18  C   UNL     1       8.637  10.211  18.294  0.00  0.00    +0.000 A 
ATOM     19  C   UNL     1       8.659  11.516  17.783  0.00  0.00    +0.000 A 
ATOM     20  C   UNL     1       9.242  12.562  18.499  0.00  0.00    +0.000 A 
BRANCH  15  22
ATOM     21  C   UNL     1      11.545  13.921  19.919  0.00  0.00    +0.000 C 
ATOM     22  O   UNL     1      10.409  13.298  20.510  0.00  0.00    +0.000 OA
ENDBRANCH  15  22
ENDBRANCH  13  18
ENDBRANCH   1  14
TORSDOF 6
ENDMDL
