MODEL 1
REMARK VINA RESULT:      -8.4      0.000      0.000
REMARK  Name = 
REMARK  6 active torsions:
REMARK  status: ('A' for Active; 'I' for Inactive)
REMARK    1  A    between atoms: C_1  and  C_2
REMARK    2  A    between atoms: C_3  and  C_4
REMARK    3  A    between atoms: N_6  and  N_7
REMARK    4  A    between atoms: C_8  and  C_9
REMARK    5  A    between atoms: C_12  and  N_13
REMARK    6  A    between atoms: N_20  and  C_21
REMARK                            x       y       z     vdW  Elec       q    Type
REMARK                         _______ _______ _______ _____ _____    ______ ____
ROOT
ATOM      1  C   UNL     1       7.240   7.106  17.263  0.00  0.00    +0.000 C 
ATOM      2  O   UNL     1       7.819   6.930  16.197  0.00  0.00    +0.000 OA
ATOM      3  N   UNL     1       7.361   8.257  18.035  0.00  0.00    +0.000 N 
ATOM      4  H   UNL     1       6.849   8.318  18.921  0.00  0.00    +0.000 HD
ENDROOT
BRANCH   1   7
ATOM      5  C   UNL     1       3.914   7.046  17.425  0.00  0.00    +0.000 C 
ATOM      6  C   UNL     1       4.939   6.068  17.907  0.00  0.00    +0.000 A 
ATOM      7  C   UNL     1       6.350   6.103  17.815  0.00  0.00    +0.000 A 
ATOM      8  N   UNL     1       6.756   4.946  18.377  0.00  0.00    +0.000 N 
ATOM      9  O   UNL     1       7.914   4.474  18.531  0.00  0.00    +0.000 OA
ATOM     10  C   UNL     1       5.737   4.258  18.805  0.00  0.00    +0.000 A 
ATOM     11  N   UNL     1       4.562   4.895  18.573  0.00  0.00    +0.000 N 
BRANCH  11  12
ATOM     12  C   UNL     1       3.201   4.505  18.891  0.00  0.00    +0.000 C 
ATOM     13  C   UNL     1       2.926   4.478  20.402  0.00  0.00    +0.000 C 
ATOM     14  C   UNL     1       1.414   4.474  20.627  0.00  0.00    +0.000 C 
ATOM     15  C   UNL     1       0.722   3.320  19.896  0.00  0.00    +0.000 C 
ATOM     16  C   UNL     1       1.162   3.161  18.437  0.00  0.00    +0.000 C 
ATOM     17  C   UNL     1       2.687   3.198  18.275  0.00  0.00    +0.000 C 
ENDBRANCH  11  12
ENDBRANCH   1   7
BRANCH   3  18
ATOM     18  N   UNL     1       8.148   9.297  17.620  0.00  0.00    +0.000 NA
ATOM     19  C   UNL     1       8.694  10.017  18.550  0.00  0.00    +0.000 C 
BRANCH  19  20
ATOM     20  C   UNL     1       9.542  11.124  18.195  0.00  0.00    +0.000 A 
ATOM     21  C   UNL     1      10.887  11.180  17.866  0.00  0.00    +0.000 A 
ATOM     22  C   UNL     1      11.204  12.541  17.631  0.00  0.00    +0.000 A 
ATOM     23  C   UNL     1      10.031  13.227  17.829  0.00  0.00    +0.000 A 
ATOM     24  O   UNL     1       9.007  12.389  18.165  0.00  0.00    +0.000 OA
BRANCH  23  25
ATOM     25  N   UNL     1       9.729  14.622  17.750  0.00  0.00    +0.000 N 
ATOM     26  O   UNL     1       8.591  14.956  18.109  0.00  0.00    +0.000 OA
ATOM     27  O   UNL     1      10.611  15.385  17.336  0.00  0.00    +0.000 OA
ENDBRANCH  23  25
ENDBRANCH  19  20
ENDBRANCH   3  18
TORSDOF 5
ENDMDL
MODEL 2
REMARK VINA RESULT:      -8.1      1.513      1.916
REMARK  Name = 
REMARK  6 active torsions:
REMARK  status: ('A' for Active; 'I' for Inactive)
REMARK    1  A    between atoms: C_1  and  C_2
REMARK    2  A    between atoms: C_3  and  C_4
REMARK    3  A    between atoms: N_6  and  N_7
REMARK    4  A    between atoms: C_8  and  C_9
REMARK    5  A    between atoms: C_12  and  N_13
REMARK    6  A    between atoms: N_20  and  C_21
REMARK                            x       y       z     vdW  Elec       q    Type
REMARK                         _______ _______ _______ _____ _____    ______ ____
ROOT
ATOM      1  C   UNL     1       7.554   6.753  17.916  0.00  0.00    +0.000 C 
ATOM      2  O   UNL     1       8.244   6.492  18.895  0.00  0.00    +0.000 OA
ATOM      3  N   UNL     1       7.681   7.915  17.160  0.00  0.00    +0.000 N 
ATOM      4  H   UNL     1       7.056   8.059  16.361  0.00  0.00    +0.000 HD
ENDROOT
BRANCH   1   7
ATOM      5  C   UNL     1       4.857   5.573  19.473  0.00  0.00    +0.000 C 
ATOM      6  C   UNL     1       5.388   5.317  18.097  0.00  0.00    +0.000 A 
ATOM      7  C   UNL     1       6.529   5.841  17.447  0.00  0.00    +0.000 A 
ATOM      8  N   UNL     1       6.495   5.299  16.211  0.00  0.00    +0.000 N 
ATOM      9  O   UNL     1       7.268   5.454  15.229  0.00  0.00    +0.000 OA
ATOM     10  C   UNL     1       5.473   4.502  16.085  0.00  0.00    +0.000 A 
ATOM     11  N   UNL     1       4.739   4.435  17.224  0.00  0.00    +0.000 N 
BRANCH  11  12
ATOM     12  C   UNL     1       3.544   3.672  17.529  0.00  0.00    +0.000 C 
ATOM     13  C   UNL     1       2.349   4.559  17.909  0.00  0.00    +0.000 C 
ATOM     14  C   UNL     1       1.068   3.732  17.803  0.00  0.00    +0.000 C 
ATOM     15  C   UNL     1       1.128   2.458  18.649  0.00  0.00    +0.000 C 
ATOM     16  C   UNL     1       2.429   1.665  18.479  0.00  0.00    +0.000 C 
ATOM     17  C   UNL     1       3.676   2.554  18.571  0.00  0.00    +0.000 C 
ENDBRANCH  11  12
ENDBRANCH   1   7
BRANCH   3  18
ATOM     18  N   UNL     1       8.628   8.851  17.473  0.00  0.00    +0.000 NA
ATOM     19  C   UNL     1       8.265   9.793  18.288  0.00  0.00    +0.000 C 
BRANCH  19  20
ATOM     20  C   UNL     1       9.205  10.811  18.672  0.00  0.00    +0.000 A 
ATOM     21  C   UNL     1       9.842  11.063  19.877  0.00  0.00    +0.000 A 
ATOM     22  C   UNL     1      10.645  12.216  19.693  0.00  0.00    +0.000 A 
ATOM     23  C   UNL     1      10.449  12.591  18.388  0.00  0.00    +0.000 A 
ATOM     24  O   UNL     1       9.585  11.751  17.745  0.00  0.00    +0.000 OA
BRANCH  23  25
ATOM     25  N   UNL     1      10.977  13.682  17.629  0.00  0.00    +0.000 N 
ATOM     26  O   UNL     1      10.776  14.815  18.088  0.00  0.00    +0.000 OA
ATOM     27  O   UNL     1      11.587  13.422  16.584  0.00  0.00    +0.000 OA
ENDBRANCH  23  25
ENDBRANCH  19  20
ENDBRANCH   3  18
TORSDOF 5
ENDMDL
MODEL 3
REMARK VINA RESULT:      -8.1      1.103      1.332
REMARK  Name = 
REMARK  6 active torsions:
REMARK  status: ('A' for Active; 'I' for Inactive)
REMARK    1  A    between atoms: C_1  and  C_2
REMARK    2  A    between atoms: C_3  and  C_4
REMARK    3  A    between atoms: N_6  and  N_7
REMARK    4  A    between atoms: C_8  and  C_9
REMARK    5  A    between atoms: C_12  and  N_13
REMARK    6  A    between atoms: N_20  and  C_21
REMARK                            x       y       z     vdW  Elec       q    Type
REMARK                         _______ _______ _______ _____ _____    ______ ____
ROOT
ATOM      1  C   UNL     1       7.743   7.347  17.830  0.00  0.00    +0.000 C 
ATOM      2  O   UNL     1       8.024   7.538  16.652  0.00  0.00    +0.000 OA
ATOM      3  N   UNL     1       8.262   8.091  18.885  0.00  0.00    +0.000 N 
ATOM      4  H   UNL     1       7.981   7.857  19.843  0.00  0.00    +0.000 HD
ENDROOT
BRANCH   1   7
ATOM      5  C   UNL     1       4.955   6.284  16.351  0.00  0.00    +0.000 C 
ATOM      6  C   UNL     1       5.618   5.855  17.622  0.00  0.00    +0.000 A 
ATOM      7  C   UNL     1       6.813   6.308  18.227  0.00  0.00    +0.000 A 
ATOM      8  N   UNL     1       6.948   5.542  19.330  0.00  0.00    +0.000 N 
ATOM      9  O   UNL     1       7.852   5.523  20.206  0.00  0.00    +0.000 OA
ATOM     10  C   UNL     1       5.950   4.713  19.440  0.00  0.00    +0.000 A 
ATOM     11  N   UNL     1       5.059   4.855  18.428  0.00  0.00    +0.000 N 
BRANCH  11  12
ATOM     12  C   UNL     1       3.813   4.158  18.166  0.00  0.00    +0.000 C 
ATOM     13  C   UNL     1       2.575   5.010  18.479  0.00  0.00    +0.000 C 
ATOM     14  C   UNL     1       1.359   4.381  17.799  0.00  0.00    +0.000 C 
ATOM     15  C   UNL     1       1.164   2.916  18.199  0.00  0.00    +0.000 C 
ATOM     16  C   UNL     1       2.449   2.082  18.133  0.00  0.00    +0.000 C 
ATOM     17  C   UNL     1       3.636   2.778  18.811  0.00  0.00    +0.000 C 
ENDBRANCH  11  12
ENDBRANCH   1   7
BRANCH   3  18
ATOM     18  N   UNL     1       9.131   9.121  18.653  0.00  0.00    +0.000 NA
ATOM     19  C   UNL     1       8.604  10.260  18.324  0.00  0.00    +0.000 C 
BRANCH  19  20
ATOM     20  C   UNL     1       9.450  11.396  18.069  0.00  0.00    +0.000 A 
ATOM     21  C   UNL     1      10.809  11.487  17.812  0.00  0.00    +0.000 A 
ATOM     22  C   UNL     1      11.115  12.862  17.664  0.00  0.00    +0.000 A 
ATOM     23  C   UNL     1       9.924  13.521  17.837  0.00  0.00    +0.000 A 
ATOM     24  O   UNL     1       8.897  12.653  18.077  0.00  0.00    +0.000 OA
BRANCH  23  25
ATOM     25  N   UNL     1       9.603  14.914  17.815  0.00  0.00    +0.000 N 
ATOM     26  O   UNL     1      10.500  15.675  17.426  0.00  0.00    +0.000 OA
ATOM     27  O   UNL     1       8.471  15.256  18.180  0.00  0.00    +0.000 OA
ENDBRANCH  23  25
ENDBRANCH  19  20
ENDBRANCH   3  18
TORSDOF 5
ENDMDL
MODEL 4
REMARK VINA RESULT:      -8.0      1.372      1.505
REMARK  Name = 
REMARK  6 active torsions:
REMARK  status: ('A' for Active; 'I' for Inactive)
REMARK    1  A    between atoms: C_1  and  C_2
REMARK    2  A    between atoms: C_3  and  C_4
REMARK    3  A    between atoms: N_6  and  N_7
REMARK    4  A    between atoms: C_8  and  C_9
REMARK    5  A    between atoms: C_12  and  N_13
REMARK    6  A    between atoms: N_20  and  C_21
REMARK                            x       y       z     vdW  Elec       q    Type
REMARK                         _______ _______ _______ _____ _____    ______ ____
ROOT
ATOM      1  C   UNL     1       7.763   7.601  17.847  0.00  0.00    +0.000 C 
ATOM      2  O   UNL     1       8.011   7.802  16.664  0.00  0.00    +0.000 OA
ATOM      3  N   UNL     1       8.291   8.352  18.893  0.00  0.00    +0.000 N 
ATOM      4  H   UNL     1       8.039   8.109  19.856  0.00  0.00    +0.000 HD
ENDROOT
BRANCH   1   7
ATOM      5  C   UNL     1       4.647   6.926  16.882  0.00  0.00    +0.000 C 
ATOM      6  C   UNL     1       5.537   6.248  17.877  0.00  0.00    +0.000 A 
ATOM      7  C   UNL     1       6.865   6.540  18.263  0.00  0.00    +0.000 A 
ATOM      8  N   UNL     1       7.178   5.581  19.159  0.00  0.00    +0.000 N 
ATOM      9  O   UNL     1       8.247   5.370  19.791  0.00  0.00    +0.000 OA
ATOM     10  C   UNL     1       6.168   4.782  19.351  0.00  0.00    +0.000 A 
ATOM     11  N   UNL     1       5.091   5.138  18.607  0.00  0.00    +0.000 N 
BRANCH  11  12
ATOM     12  C   UNL     1       3.770   4.546  18.521  0.00  0.00    +0.000 C 
ATOM     13  C   UNL     1       3.248   4.051  19.877  0.00  0.00    +0.000 C 
ATOM     14  C   UNL     1       1.737   3.838  19.776  0.00  0.00    +0.000 C 
ATOM     15  C   UNL     1       1.360   2.890  18.635  0.00  0.00    +0.000 C 
ATOM     16  C   UNL     1       2.061   3.210  17.310  0.00  0.00    +0.000 C 
ATOM     17  C   UNL     1       3.569   3.436  17.482  0.00  0.00    +0.000 C 
ENDBRANCH  11  12
ENDBRANCH   1   7
BRANCH   3  18
ATOM     18  N   UNL     1       9.131   9.402  18.643  0.00  0.00    +0.000 NA
ATOM     19  C   UNL     1       9.364  10.206  19.634  0.00  0.00    +0.000 C 
BRANCH  19  20
ATOM     20  C   UNL     1      10.243  11.331  19.454  0.00  0.00    +0.000 A 
ATOM     21  C   UNL     1      11.034  12.028  20.354  0.00  0.00    +0.000 A 
ATOM     22  C   UNL     1      11.673  13.066  19.631  0.00  0.00    +0.000 A 
ATOM     23  C   UNL     1      11.234  12.932  18.337  0.00  0.00    +0.000 A 
ATOM     24  O   UNL     1      10.370  11.883  18.203  0.00  0.00    +0.000 OA
BRANCH  23  25
ATOM     25  N   UNL     1      11.518  13.692  17.160  0.00  0.00    +0.000 N 
ATOM     26  O   UNL     1      10.915  14.768  17.045  0.00  0.00    +0.000 OA
ATOM     27  O   UNL     1      12.333  13.229  16.352  0.00  0.00    +0.000 OA
ENDBRANCH  23  25
ENDBRANCH  19  20
ENDBRANCH   3  18
TORSDOF 5
ENDMDL
MODEL 5
REMARK VINA RESULT:      -7.9      0.686      1.202
REMARK  Name = 
REMARK  6 active torsions:
REMARK  status: ('A' for Active; 'I' for Inactive)
REMARK    1  A    between atoms: C_1  and  C_2
REMARK    2  A    between atoms: C_3  and  C_4
REMARK    3  A    between atoms: N_6  and  N_7
REMARK    4  A    between atoms: C_8  and  C_9
REMARK    5  A    between atoms: C_12  and  N_13
REMARK    6  A    between atoms: N_20  and  C_21
REMARK                            x       y       z     vdW  Elec       q    Type
REMARK                         _______ _______ _______ _____ _____    ______ ____
ROOT
ATOM      1  C   UNL     1       6.576   7.145  17.378  0.00  0.00    +0.000 C 
ATOM      2  O   UNL     1       6.158   7.646  16.341  0.00  0.00    +0.000 OA
ATOM      3  N   UNL     1       7.664   7.635  18.096  0.00  0.00    +0.000 N 
ATOM      4  H   UNL     1       7.955   7.148  18.949  0.00  0.00    +0.000 HD
ENDROOT
BRANCH   1   7
ATOM      5  C   UNL     1       3.370   6.543  18.046  0.00  0.00    +0.000 C 
ATOM      6  C   UNL     1       4.594   5.710  18.268  0.00  0.00    +0.000 A 
ATOM      7  C   UNL     1       5.948   5.977  17.963  0.00  0.00    +0.000 A 
ATOM      8  N   UNL     1       6.608   4.862  18.341  0.00  0.00    +0.000 N 
ATOM      9  O   UNL     1       7.832   4.573  18.268  0.00  0.00    +0.000 OA
ATOM     10  C   UNL     1       5.787   3.991  18.854  0.00  0.00    +0.000 A 
ATOM     11  N   UNL     1       4.509   4.447  18.868  0.00  0.00    +0.000 N 
BRANCH  11  12
ATOM     12  C   UNL     1       3.293   3.822  19.354  0.00  0.00    +0.000 C 
ATOM     13  C   UNL     1       2.279   3.542  18.237  0.00  0.00    +0.000 C 
ATOM     14  C   UNL     1       1.248   2.535  18.748  0.00  0.00    +0.000 C 
ATOM     15  C   UNL     1       0.568   3.006  20.036  0.00  0.00    +0.000 C 
ATOM     16  C   UNL     1       1.545   3.530  21.095  0.00  0.00    +0.000 C 
ATOM     17  C   UNL     1       2.567   4.515  20.514  0.00  0.00    +0.000 C 
ENDBRANCH  11  12
ENDBRANCH   1   7
BRANCH   3  18
ATOM     18  N   UNL     1       8.335   8.749  17.673  0.00  0.00    +0.000 NA
ATOM     19  C   UNL     1       8.618   9.633  18.580  0.00  0.00    +0.000 C 
BRANCH  19  20
ATOM     20  C   UNL     1       9.328  10.831  18.217  0.00  0.00    +0.000 A 
ATOM     21  C   UNL     1      10.643  11.034  17.830  0.00  0.00    +0.000 A 
ATOM     22  C   UNL     1      10.806  12.426  17.618  0.00  0.00    +0.000 A 
ATOM     23  C   UNL     1       9.579  12.981  17.885  0.00  0.00    +0.000 A 
ATOM     24  O   UNL     1       8.664  12.033  18.245  0.00  0.00    +0.000 OA
BRANCH  23  25
ATOM     25  N   UNL     1       9.131  14.338  17.858  0.00  0.00    +0.000 N 
ATOM     26  O   UNL     1       7.909  14.512  17.962  0.00  0.00    +0.000 OA
ATOM     27  O   UNL     1       9.981  15.229  17.734  0.00  0.00    +0.000 OA
ENDBRANCH  23  25
ENDBRANCH  19  20
ENDBRANCH   3  18
TORSDOF 5
ENDMDL
MODEL 6
REMARK VINA RESULT:      -7.6      1.343      1.750
REMARK  Name = 
REMARK  6 active torsions:
REMARK  status: ('A' for Active; 'I' for Inactive)
REMARK    1  A    between atoms: C_1  and  C_2
REMARK    2  A    between atoms: C_3  and  C_4
REMARK    3  A    between atoms: N_6  and  N_7
REMARK    4  A    between atoms: C_8  and  C_9
REMARK    5  A    between atoms: C_12  and  N_13
REMARK    6  A    between atoms: N_20  and  C_21
REMARK                            x       y       z     vdW  Elec       q    Type
REMARK                         _______ _______ _______ _____ _____    ______ ____
ROOT
ATOM      1  C   UNL     1       7.505   6.740  17.963  0.00  0.00    +0.000 C 
ATOM      2  O   UNL     1       8.318   6.618  18.872  0.00  0.00    +0.000 OA
ATOM      3  N   UNL     1       7.461   7.830  17.098  0.00  0.00    +0.000 N 
ATOM      4  H   UNL     1       6.740   7.857  16.370  0.00  0.00    +0.000 HD
ENDROOT
BRANCH   1   7
ATOM      5  C   UNL     1       4.669   6.059  19.570  0.00  0.00    +0.000 C 
ATOM      6  C   UNL     1       5.304   5.411  18.380  0.00  0.00    +0.000 A 
ATOM      7  C   UNL     1       6.504   5.725  17.701  0.00  0.00    +0.000 A 
ATOM      8  N   UNL     1       6.559   4.841  16.682  0.00  0.00    +0.000 N 
ATOM      9  O   UNL     1       7.412   4.703  15.766  0.00  0.00    +0.000 OA
ATOM     10  C   UNL     1       5.536   4.037  16.713  0.00  0.00    +0.000 A 
ATOM     11  N   UNL     1       4.711   4.306  17.755  0.00  0.00    +0.000 N 
BRANCH  11  12
ATOM     12  C   UNL     1       3.480   3.661  18.172  0.00  0.00    +0.000 C 
ATOM     13  C   UNL     1       3.518   2.135  17.999  0.00  0.00    +0.000 C 
ATOM     14  C   UNL     1       2.392   1.517  18.827  0.00  0.00    +0.000 C 
ATOM     15  C   UNL     1       1.023   2.102  18.471  0.00  0.00    +0.000 C 
ATOM     16  C   UNL     1       1.006   3.632  18.392  0.00  0.00    +0.000 C 
ATOM     17  C   UNL     1       2.174   4.190  17.569  0.00  0.00    +0.000 C 
ENDBRANCH  11  12
ENDBRANCH   1   7
BRANCH   3  18
ATOM     18  N   UNL     1       8.365   8.850  17.214  0.00  0.00    +0.000 NA
ATOM     19  C   UNL     1       8.152   9.709  18.162  0.00  0.00    +0.000 C 
BRANCH  19  20
ATOM     20  C   UNL     1       9.062  10.806  18.353  0.00  0.00    +0.000 A 
ATOM     21  C   UNL     1      10.308  10.869  18.958  0.00  0.00    +0.000 A 
ATOM     22  C   UNL     1      10.741  12.217  18.884  0.00  0.00    +0.000 A 
ATOM     23  C   UNL     1       9.734  12.887  18.237  0.00  0.00    +0.000 A 
ATOM     24  O   UNL     1       8.707  12.053  17.899  0.00  0.00    +0.000 OA
BRANCH  23  25
ATOM     25  N   UNL     1       9.592  14.266  17.884  0.00  0.00    +0.000 N 
ATOM     26  O   UNL     1      10.642  14.884  17.662  0.00  0.00    +0.000 OA
ATOM     27  O   UNL     1       8.449  14.736  17.827  0.00  0.00    +0.000 OA
ENDBRANCH  23  25
ENDBRANCH  19  20
ENDBRANCH   3  18
TORSDOF 5
ENDMDL
MODEL 7
REMARK VINA RESULT:      -7.4      1.071      1.496
REMARK  Name = 
REMARK  6 active torsions:
REMARK  status: ('A' for Active; 'I' for Inactive)
REMARK    1  A    between atoms: C_1  and  C_2
REMARK    2  A    between atoms: C_3  and  C_4
REMARK    3  A    between atoms: N_6  and  N_7
REMARK    4  A    between atoms: C_8  and  C_9
REMARK    5  A    between atoms: C_12  and  N_13
REMARK    6  A    between atoms: N_20  and  C_21
REMARK                            x       y       z     vdW  Elec       q    Type
REMARK                         _______ _______ _______ _____ _____    ______ ____
ROOT
ATOM      1  C   UNL     1       7.548   7.567  17.877  0.00  0.00    +0.000 C 
ATOM      2  O   UNL     1       7.477   7.977  16.724  0.00  0.00    +0.000 OA
ATOM      3  N   UNL     1       8.353   8.138  18.858  0.00  0.00    +0.000 N 
ATOM      4  H   UNL     1       8.361   7.725  19.796  0.00  0.00    +0.000 HD
ENDROOT
BRANCH   1   7
ATOM      5  C   UNL     1       4.414   6.697  17.160  0.00  0.00    +0.000 C 
ATOM      6  C   UNL     1       5.436   6.053  18.045  0.00  0.00    +0.000 A 
ATOM      7  C   UNL     1       6.769   6.430  18.325  0.00  0.00    +0.000 A 
ATOM      8  N   UNL     1       7.229   5.466  19.151  0.00  0.00    +0.000 N 
ATOM      9  O   UNL     1       8.362   5.314  19.678  0.00  0.00    +0.000 OA
ATOM     10  C   UNL     1       6.299   4.588  19.398  0.00  0.00    +0.000 A 
ATOM     11  N   UNL     1       5.137   4.889  18.765  0.00  0.00    +0.000 N 
BRANCH  11  12
ATOM     12  C   UNL     1       3.859   4.203  18.770  0.00  0.00    +0.000 C 
ATOM     13  C   UNL     1       3.575   3.461  17.456  0.00  0.00    +0.000 C 
ATOM     14  C   UNL     1       2.449   2.454  17.692  0.00  0.00    +0.000 C 
ATOM     15  C   UNL     1       1.191   3.113  18.263  0.00  0.00    +0.000 C 
ATOM     16  C   UNL     1       1.469   4.064  19.433  0.00  0.00    +0.000 C 
ATOM     17  C   UNL     1       2.623   5.031  19.143  0.00  0.00    +0.000 C 
ENDBRANCH  11  12
ENDBRANCH   1   7
BRANCH   3  18
ATOM     18  N   UNL     1       9.121   9.235  18.581  0.00  0.00    +0.000 NA
ATOM     19  C   UNL     1       9.277  10.092  19.542  0.00  0.00    +0.000 C 
BRANCH  19  20
ATOM     20  C   UNL     1      10.077  11.269  19.332  0.00  0.00    +0.000 A 
ATOM     21  C   UNL     1      11.300  11.652  19.859  0.00  0.00    +0.000 A 
ATOM     22  C   UNL     1      11.607  12.927  19.322  0.00  0.00    +0.000 A 
ATOM     23  C   UNL     1      10.553  13.237  18.499  0.00  0.00    +0.000 A 
ATOM     24  O   UNL     1       9.615  12.245  18.483  0.00  0.00    +0.000 OA
BRANCH  23  25
ATOM     25  N   UNL     1      10.289  14.392  17.697  0.00  0.00    +0.000 N 
ATOM     26  O   UNL     1       9.188  14.933  17.865  0.00  0.00    +0.000 OA
ATOM     27  O   UNL     1      11.166  14.761  16.905  0.00  0.00    +0.000 OA
ENDBRANCH  23  25
ENDBRANCH  19  20
ENDBRANCH   3  18
TORSDOF 5
ENDMDL
MODEL 8
REMARK VINA RESULT:      -7.4      6.405      9.221
REMARK  Name = 
REMARK  6 active torsions:
REMARK  status: ('A' for Active; 'I' for Inactive)
REMARK    1  A    between atoms: C_1  and  C_2
REMARK    2  A    between atoms: C_3  and  C_4
REMARK    3  A    between atoms: N_6  and  N_7
REMARK    4  A    between atoms: C_8  and  C_9
REMARK    5  A    between atoms: C_12  and  N_13
REMARK    6  A    between atoms: N_20  and  C_21
REMARK                            x       y       z     vdW  Elec       q    Type
REMARK                         _______ _______ _______ _____ _____    ______ ____
ROOT
ATOM      1  C   UNL     1       1.413   8.522  20.490  0.00  0.00    +0.000 C 
ATOM      2  O   UNL     1       1.518   7.657  21.352  0.00  0.00    +0.000 OA
ATOM      3  N   UNL     1       1.853   8.372  19.178  0.00  0.00    +0.000 N 
ATOM      4  H   UNL     1       1.736   9.151  18.523  0.00  0.00    +0.000 HD
ENDROOT
BRANCH   1   7
ATOM      5  C   UNL     1      -0.138   9.596  23.235  0.00  0.00    +0.000 C 
ATOM      6  C   UNL     1       0.121  10.271  21.924  0.00  0.00    +0.000 A 
ATOM      7  C   UNL     1       0.796   9.803  20.773  0.00  0.00    +0.000 A 
ATOM      8  N   UNL     1       0.764  10.843  19.914  0.00  0.00    +0.000 N 
ATOM      9  O   UNL     1       1.241  10.960  18.754  0.00  0.00    +0.000 OA
ATOM     10  C   UNL     1       0.123  11.851  20.433  0.00  0.00    +0.000 A 
ATOM     11  N   UNL     1      -0.334  11.573  21.679  0.00  0.00    +0.000 N 
BRANCH  11  12
ATOM     12  C   UNL     1      -1.098  12.389  22.604  0.00  0.00    +0.000 C 
ATOM     13  C   UNL     1      -2.611  12.320  22.351  0.00  0.00    +0.000 C 
ATOM     14  C   UNL     1      -3.342  12.847  23.586  0.00  0.00    +0.000 C 
ATOM     15  C   UNL     1      -2.888  14.257  23.971  0.00  0.00    +0.000 C 
ATOM     16  C   UNL     1      -1.365  14.430  23.995  0.00  0.00    +0.000 C 
ATOM     17  C   UNL     1      -0.690  13.860  22.741  0.00  0.00    +0.000 C 
ENDBRANCH  11  12
ENDBRANCH   1   7
BRANCH   3  18
ATOM     18  N   UNL     1       2.429   7.202  18.765  0.00  0.00    +0.000 NA
ATOM     19  C   UNL     1       3.540   7.306  18.103  0.00  0.00    +0.000 C 
BRANCH  19  20
ATOM     20  C   UNL     1       4.213   6.121  17.640  0.00  0.00    +0.000 A 
ATOM     21  C   UNL     1       3.722   4.914  17.168  0.00  0.00    +0.000 A 
ATOM     22  C   UNL     1       4.839   4.093  16.877  0.00  0.00    +0.000 A 
ATOM     23  C   UNL     1       5.939   4.854  17.185  0.00  0.00    +0.000 A 
ATOM     24  O   UNL     1       5.586   6.090  17.644  0.00  0.00    +0.000 OA
BRANCH  23  25
ATOM     25  N   UNL     1       7.338   4.564  17.114  0.00  0.00    +0.000 N 
ATOM     26  O   UNL     1       7.839   4.562  15.981  0.00  0.00    +0.000 OA
ATOM     27  O   UNL     1       7.939   4.339  18.173  0.00  0.00    +0.000 OA
ENDBRANCH  23  25
ENDBRANCH  19  20
ENDBRANCH   3  18
TORSDOF 5
ENDMDL
MODEL 9
REMARK VINA RESULT:      -7.3      1.261      1.998
REMARK  Name = 
REMARK  6 active torsions:
REMARK  status: ('A' for Active; 'I' for Inactive)
REMARK    1  A    between atoms: C_1  and  C_2
REMARK    2  A    between atoms: C_3  and  C_4
REMARK    3  A    between atoms: N_6  and  N_7
REMARK    4  A    between atoms: C_8  and  C_9
REMARK    5  A    between atoms: C_12  and  N_13
REMARK    6  A    between atoms: N_20  and  C_21
REMARK                            x       y       z     vdW  Elec       q    Type
REMARK                         _______ _______ _______ _____ _____    ______ ____
ROOT
ATOM      1  C   UNL     1       7.238   6.934  17.889  0.00  0.00    +0.000 C 
ATOM      2  O   UNL     1       8.189   6.400  18.448  0.00  0.00    +0.000 OA
ATOM      3  N   UNL     1       7.242   8.246  17.425  0.00  0.00    +0.000 N 
ATOM      4  H   UNL     1       6.399   8.618  16.977  0.00  0.00    +0.000 HD
ENDROOT
BRANCH   1   7
ATOM      5  C   UNL     1       5.429   5.030  19.938  0.00  0.00    +0.000 C 
ATOM      6  C   UNL     1       5.229   5.393  18.499  0.00  0.00    +0.000 A 
ATOM      7  C   UNL     1       6.001   6.217  17.649  0.00  0.00    +0.000 A 
ATOM      8  N   UNL     1       5.330   6.220  16.477  0.00  0.00    +0.000 N 
ATOM      9  O   UNL     1       5.578   6.815  15.395  0.00  0.00    +0.000 OA
ATOM     10  C   UNL     1       4.269   5.468  16.552  0.00  0.00    +0.000 A 
ATOM     11  N   UNL     1       4.139   4.893  17.773  0.00  0.00    +0.000 N 
BRANCH  11  12
ATOM     12  C   UNL     1       3.129   3.986  18.283  0.00  0.00    +0.000 C 
ATOM     13  C   UNL     1       2.753   2.887  17.279  0.00  0.00    +0.000 C 
ATOM     14  C   UNL     1       2.026   1.767  18.024  0.00  0.00    +0.000 C 
ATOM     15  C   UNL     1       0.808   2.280  18.797  0.00  0.00    +0.000 C 
ATOM     16  C   UNL     1       1.089   3.537  19.628  0.00  0.00    +0.000 C 
ATOM     17  C   UNL     1       1.841   4.611  18.832  0.00  0.00    +0.000 C 
ENDBRANCH  11  12
ENDBRANCH   1   7
BRANCH   3  18
ATOM     18  N   UNL     1       8.355   9.030  17.561  0.00  0.00    +0.000 NA
ATOM     19  C   UNL     1       8.185  10.183  18.131  0.00  0.00    +0.000 C 
BRANCH  19  20
ATOM     20  C   UNL     1       9.308  11.064  18.317  0.00  0.00    +0.000 A 
ATOM     21  C   UNL     1      10.440  10.950  19.108  0.00  0.00    +0.000 A 
ATOM     22  C   UNL     1      11.202  12.130  18.920  0.00  0.00    +0.000 A 
ATOM     23  C   UNL     1      10.488  12.885  18.023  0.00  0.00    +0.000 A 
ATOM     24  O   UNL     1       9.338  12.257  17.637  0.00  0.00    +0.000 OA
BRANCH  23  25
ATOM     25  N   UNL     1      10.742  14.175  17.461  0.00  0.00    +0.000 N 
ATOM     26  O   UNL     1      10.239  15.138  18.054  0.00  0.00    +0.000 OA
ATOM     27  O   UNL     1      11.437  14.235  16.438  0.00  0.00    +0.000 OA
ENDBRANCH  23  25
ENDBRANCH  19  20
ENDBRANCH   3  18
TORSDOF 5
ENDMDL
