MODEL 1
REMARK VINA RESULT:      -8.2      0.000      0.000
REMARK  Name = 
REMARK  6 active torsions:
REMARK  status: ('A' for Active; 'I' for Inactive)
REMARK    1  A    between atoms: N_1  and  C_2
REMARK    2  A    between atoms: C_5  and  C_6
REMARK    3  A    between atoms: C_8  and  N_9
REMARK    4  A    between atoms: C_11  and  N_12
REMARK    5  A    between atoms: C_29  and  O_30
REMARK    6  A    between atoms: O_30  and  C_31
REMARK                            x       y       z     vdW  Elec       q    Type
REMARK                         _______ _______ _______ _____ _____    ______ ____
ROOT
ATOM      1  C   UNL     1       4.143   6.129  17.358  0.00  0.00    +0.000 A 
ATOM      2  C   UNL     1       3.400   7.287  17.255  0.00  0.00    +0.000 A 
ATOM      3  C   UNL     1       2.429   7.512  18.205  0.00  0.00    +0.000 A 
ATOM      4  N   UNL     1       2.177   6.614  19.166  0.00  0.00    +0.000 NA
ATOM      5  C   UNL     1       2.921   5.490  19.212  0.00  0.00    +0.000 A 
ATOM      6  N   UNL     1       2.672   4.614  20.234  0.00  0.00    +0.000 N 
ATOM      7  C   UNL     1       3.374   3.350  20.365  0.00  0.00    +0.000 C 
ATOM      8  C   UNL     1       2.617   2.638  21.491  0.00  0.00    +0.000 C 
ATOM      9  C   UNL     1       1.187   3.096  21.275  0.00  0.00    +0.000 C 
ATOM     10  F   UNL     1       0.640   2.349  20.275  0.00  0.00    +0.000 F 
ATOM     11  C   UNL     1       1.330   4.549  20.809  0.00  0.00    +0.000 C 
ATOM     12  N   UNL     1       3.910   5.232  18.337  0.00  0.00    +0.000 NA
ENDROOT
BRANCH   1  16
ATOM     13  C   UNL     1       7.358   5.214  14.706  0.00  0.00    +0.000 A 
ATOM     14  N   UNL     1       7.468   6.254  15.557  0.00  0.00    +0.000 NA
ATOM     15  C   UNL     1       6.414   6.538  16.370  0.00  0.00    +0.000 A 
ATOM     16  C   UNL     1       5.222   5.827  16.398  0.00  0.00    +0.000 A 
ATOM     17  C   UNL     1       5.137   4.773  15.472  0.00  0.00    +0.000 A 
ATOM     18  C   UNL     1       6.194   4.457  14.605  0.00  0.00    +0.000 A 
BRANCH  13  19
ATOM     19  N   UNL     1       8.527   4.931  14.008  0.00  0.00    +0.000 N 
ATOM     20  H   UNL     1       8.862   5.824  13.653  0.00  0.00    +0.000 HD
ATOM     21  H   UNL     1       8.347   4.296  13.233  0.00  0.00    +0.000 HD
ENDBRANCH  13  19
BRANCH  18  22
ATOM     22  O   UNL     1       5.967   3.339  13.862  0.00  0.00    +0.000 OA
BRANCH  22  23
ATOM     23  C   UNL     1       5.728   3.423  12.468  0.00  0.00    +0.000 C 
ATOM     24  F   UNL     1       6.618   4.166  11.777  0.00  0.00    +0.000 F 
ATOM     25  F   UNL     1       5.686   2.180  11.946  0.00  0.00    +0.000 F 
ATOM     26  F   UNL     1       4.511   3.989  12.283  0.00  0.00    +0.000 F 
ENDBRANCH  22  23
ENDBRANCH  18  22
ENDBRANCH   1  16
BRANCH   3  27
ATOM     27  N   UNL     1       1.698   8.716  18.145  0.00  0.00    +0.000 N 
ATOM     28  C   UNL     1       2.230  10.047  18.239  0.00  0.00    +0.000 C 
ATOM     29  C   UNL     1       1.031  10.432  19.119  0.00  0.00    +0.000 C 
ATOM     30  C   UNL     1       0.486   9.029  18.840  0.00  0.00    +0.000 C 
BRANCH  29  31
ATOM     31  N   UNL     1       1.467  10.745  20.499  0.00  0.00    +0.000 NA
ATOM     32  C   UNL     1       1.069   9.854  21.604  0.00  0.00    +0.000 C 
ATOM     33  C   UNL     1      -0.264  10.183  22.303  0.00  0.00    +0.000 C 
ATOM     34  O   UNL     1      -0.361  11.571  22.642  0.00  0.00    +0.000 OA
ATOM     35  C   UNL     1      -0.172  12.392  21.485  0.00  0.00    +0.000 C 
ATOM     36  C   UNL     1       1.206  12.150  20.856  0.00  0.00    +0.000 C 
ENDBRANCH  29  31
ENDBRANCH   3  27
TORSDOF 6
ENDMDL
MODEL 2
REMARK VINA RESULT:      -7.8      1.564      1.997
REMARK  Name = 
REMARK  6 active torsions:
REMARK  status: ('A' for Active; 'I' for Inactive)
REMARK    1  A    between atoms: N_1  and  C_2
REMARK    2  A    between atoms: C_5  and  C_6
REMARK    3  A    between atoms: C_8  and  N_9
REMARK    4  A    between atoms: C_11  and  N_12
REMARK    5  A    between atoms: C_29  and  O_30
REMARK    6  A    between atoms: O_30  and  C_31
REMARK                            x       y       z     vdW  Elec       q    Type
REMARK                         _______ _______ _______ _____ _____    ______ ____
ROOT
ATOM      1  C   UNL     1       4.249   6.153  17.373  0.00  0.00    +0.000 A 
ATOM      2  C   UNL     1       3.735   7.428  17.488  0.00  0.00    +0.000 A 
ATOM      3  C   UNL     1       2.805   7.657  18.476  0.00  0.00    +0.000 A 
ATOM      4  N   UNL     1       2.373   6.665  19.266  0.00  0.00    +0.000 NA
ATOM      5  C   UNL     1       2.895   5.432  19.100  0.00  0.00    +0.000 A 
ATOM      6  N   UNL     1       2.469   4.450  19.953  0.00  0.00    +0.000 N 
ATOM      7  C   UNL     1       2.923   3.076  19.847  0.00  0.00    +0.000 C 
ATOM      8  C   UNL     1       2.026   2.328  20.838  0.00  0.00    +0.000 C 
ATOM      9  C   UNL     1       0.709   3.074  20.728  0.00  0.00    +0.000 C 
ATOM     10  F   UNL     1       0.053   2.630  19.619  0.00  0.00    +0.000 F 
ATOM     11  C   UNL     1       1.127   4.534  20.527  0.00  0.00    +0.000 C 
ATOM     12  N   UNL     1       3.836   5.156  18.180  0.00  0.00    +0.000 NA
ENDROOT
BRANCH   1  16
ATOM     13  C   UNL     1       7.309   5.184  14.561  0.00  0.00    +0.000 A 
ATOM     14  N   UNL     1       7.472   6.232  15.392  0.00  0.00    +0.000 NA
ATOM     15  C   UNL     1       6.467   6.534  16.258  0.00  0.00    +0.000 A 
ATOM     16  C   UNL     1       5.272   5.832  16.358  0.00  0.00    +0.000 A 
ATOM     17  C   UNL     1       5.130   4.769  15.451  0.00  0.00    +0.000 A 
ATOM     18  C   UNL     1       6.136   4.435  14.532  0.00  0.00    +0.000 A 
BRANCH  13  19
ATOM     19  N   UNL     1       8.436   4.884  13.803  0.00  0.00    +0.000 N 
ATOM     20  H   UNL     1       8.116   4.261  13.063  0.00  0.00    +0.000 HD
ATOM     21  H   UNL     1       9.143   4.417  14.366  0.00  0.00    +0.000 HD
ENDBRANCH  13  19
BRANCH  18  22
ATOM     22  O   UNL     1       5.861   3.310  13.815  0.00  0.00    +0.000 OA
BRANCH  22  23
ATOM     23  C   UNL     1       5.617   3.373  12.421  0.00  0.00    +0.000 C 
ATOM     24  F   UNL     1       6.506   4.103  11.715  0.00  0.00    +0.000 F 
ATOM     25  F   UNL     1       5.571   2.122  11.918  0.00  0.00    +0.000 F 
ATOM     26  F   UNL     1       4.400   3.938  12.231  0.00  0.00    +0.000 F 
ENDBRANCH  22  23
ENDBRANCH  18  22
ENDBRANCH   1  16
BRANCH   3  27
ATOM     27  N   UNL     1       2.309   8.966  18.643  0.00  0.00    +0.000 N 
ATOM     28  C   UNL     1       1.453   9.430  19.699  0.00  0.00    +0.000 C 
ATOM     29  C   UNL     1       0.669  10.250  18.661  0.00  0.00    +0.000 C 
ATOM     30  C   UNL     1       1.720   9.804  17.642  0.00  0.00    +0.000 C 
BRANCH  29  31
ATOM     31  N   UNL     1      -0.710   9.729  18.508  0.00  0.00    +0.000 NA
ATOM     32  C   UNL     1      -1.343   9.737  17.178  0.00  0.00    +0.000 C 
ATOM     33  C   UNL     1      -2.133  11.005  16.803  0.00  0.00    +0.000 C 
ATOM     34  O   UNL     1      -3.025  11.407  17.849  0.00  0.00    +0.000 OA
ATOM     35  C   UNL     1      -2.318  11.588  19.080  0.00  0.00    +0.000 C 
ATOM     36  C   UNL     1      -1.627  10.289  19.515  0.00  0.00    +0.000 C 
ENDBRANCH  29  31
ENDBRANCH   3  27
TORSDOF 6
ENDMDL
MODEL 3
REMARK VINA RESULT:      -7.5      4.322      7.291
REMARK  Name = 
REMARK  6 active torsions:
REMARK  status: ('A' for Active; 'I' for Inactive)
REMARK    1  A    between atoms: N_1  and  C_2
REMARK    2  A    between atoms: C_5  and  C_6
REMARK    3  A    between atoms: C_8  and  N_9
REMARK    4  A    between atoms: C_11  and  N_12
REMARK    5  A    between atoms: C_29  and  O_30
REMARK    6  A    between atoms: O_30  and  C_31
REMARK                            x       y       z     vdW  Elec       q    Type
REMARK                         _______ _______ _______ _____ _____    ______ ____
ROOT
ATOM      1  C   UNL     1       1.042   9.441  18.376  0.00  0.00    +0.000 A 
ATOM      2  C   UNL     1      -0.207   9.292  17.811  0.00  0.00    +0.000 A 
ATOM      3  C   UNL     1      -1.048  10.383  17.818  0.00  0.00    +0.000 A 
ATOM      4  N   UNL     1      -0.687  11.533  18.401  0.00  0.00    +0.000 NA
ATOM      5  C   UNL     1       0.539  11.620  18.956  0.00  0.00    +0.000 A 
ATOM      6  N   UNL     1       0.897  12.823  19.502  0.00  0.00    +0.000 N 
ATOM      7  C   UNL     1       2.170  13.028  20.167  0.00  0.00    +0.000 C 
ATOM      8  C   UNL     1       2.024  14.419  20.793  0.00  0.00    +0.000 C 
ATOM      9  C   UNL     1       0.555  14.464  21.170  0.00  0.00    +0.000 C 
ATOM     10  F   UNL     1       0.389  13.790  22.343  0.00  0.00    +0.000 F 
ATOM     11  C   UNL     1      -0.140  13.703  20.037  0.00  0.00    +0.000 C 
ATOM     12  N   UNL     1       1.420  10.603  18.944  0.00  0.00    +0.000 NA
ENDROOT
BRANCH   1  16
ATOM     13  C   UNL     1       3.965   6.333  18.441  0.00  0.00    +0.000 A 
ATOM     14  N   UNL     1       4.055   7.317  17.525  0.00  0.00    +0.000 NA
ATOM     15  C   UNL     1       3.092   8.278  17.511  0.00  0.00    +0.000 A 
ATOM     16  C   UNL     1       2.013   8.329  18.383  0.00  0.00    +0.000 A 
ATOM     17  C   UNL     1       1.940   7.266  19.300  0.00  0.00    +0.000 A 
ATOM     18  C   UNL     1       2.903   6.247  19.337  0.00  0.00    +0.000 A 
BRANCH  13  19
ATOM     19  N   UNL     1       5.057   5.472  18.453  0.00  0.00    +0.000 N 
ATOM     20  H   UNL     1       4.917   4.834  17.673  0.00  0.00    +0.000 HD
ATOM     21  H   UNL     1       5.103   4.949  19.325  0.00  0.00    +0.000 HD
ENDBRANCH  13  19
BRANCH  18  22
ATOM     22  O   UNL     1       2.722   5.370  20.362  0.00  0.00    +0.000 OA
BRANCH  22  23
ATOM     23  C   UNL     1       2.050   4.139  20.161  0.00  0.00    +0.000 C 
ATOM     24  F   UNL     1       1.555   3.953  18.920  0.00  0.00    +0.000 F 
ATOM     25  F   UNL     1       2.880   3.121  20.466  0.00  0.00    +0.000 F 
ATOM     26  F   UNL     1       1.002   4.087  21.019  0.00  0.00    +0.000 F 
ENDBRANCH  22  23
ENDBRANCH  18  22
ENDBRANCH   1  16
BRANCH   3  27
ATOM     27  N   UNL     1      -2.307  10.264  17.195  0.00  0.00    +0.000 N 
ATOM     28  C   UNL     1      -2.916  11.214  16.307  0.00  0.00    +0.000 C 
ATOM     29  C   UNL     1      -4.261  10.960  17.006  0.00  0.00    +0.000 C 
ATOM     30  C   UNL     1      -3.542   9.871  17.805  0.00  0.00    +0.000 C 
BRANCH  29  31
ATOM     31  N   UNL     1      -4.715  12.168  17.733  0.00  0.00    +0.000 NA
ATOM     32  C   UNL     1      -4.747  12.157  19.207  0.00  0.00    +0.000 C 
ATOM     33  C   UNL     1      -6.056  11.674  19.859  0.00  0.00    +0.000 C 
ATOM     34  O   UNL     1      -7.206  12.304  19.281  0.00  0.00    +0.000 OA
ATOM     35  C   UNL     1      -7.235  12.105  17.864  0.00  0.00    +0.000 C 
ATOM     36  C   UNL     1      -5.983  12.692  17.198  0.00  0.00    +0.000 C 
ENDBRANCH  29  31
ENDBRANCH   3  27
TORSDOF 6
ENDMDL
MODEL 4
REMARK VINA RESULT:      -7.4      0.739      1.075
REMARK  Name = 
REMARK  6 active torsions:
REMARK  status: ('A' for Active; 'I' for Inactive)
REMARK    1  A    between atoms: N_1  and  C_2
REMARK    2  A    between atoms: C_5  and  C_6
REMARK    3  A    between atoms: C_8  and  N_9
REMARK    4  A    between atoms: C_11  and  N_12
REMARK    5  A    between atoms: C_29  and  O_30
REMARK    6  A    between atoms: O_30  and  C_31
REMARK                            x       y       z     vdW  Elec       q    Type
REMARK                         _______ _______ _______ _____ _____    ______ ____
ROOT
ATOM      1  C   UNL     1       4.262   6.120  17.315  0.00  0.00    +0.000 A 
ATOM      2  C   UNL     1       3.619   7.339  17.284  0.00  0.00    +0.000 A 
ATOM      3  C   UNL     1       2.686   7.596  18.263  0.00  0.00    +0.000 A 
ATOM      4  N   UNL     1       2.373   6.675  19.183  0.00  0.00    +0.000 NA
ATOM      5  C   UNL     1       3.020   5.491  19.158  0.00  0.00    +0.000 A 
ATOM      6  N   UNL     1       2.714   4.588  20.140  0.00  0.00    +0.000 N 
ATOM      7  C   UNL     1       3.308   3.265  20.194  0.00  0.00    +0.000 C 
ATOM      8  C   UNL     1       2.511   2.562  21.298  0.00  0.00    +0.000 C 
ATOM      9  C   UNL     1       1.122   3.149  21.134  0.00  0.00    +0.000 C 
ATOM     10  F   UNL     1       0.497   2.502  20.109  0.00  0.00    +0.000 F 
ATOM     11  C   UNL     1       1.380   4.607  20.738  0.00  0.00    +0.000 C 
ATOM     12  N   UNL     1       3.970   5.197  18.252  0.00  0.00    +0.000 NA
ENDROOT
BRANCH   1  16
ATOM     13  C   UNL     1       7.350   5.085  14.557  0.00  0.00    +0.000 A 
ATOM     14  N   UNL     1       7.529   6.117  15.405  0.00  0.00    +0.000 NA
ATOM     15  C   UNL     1       6.515   6.441  16.253  0.00  0.00    +0.000 A 
ATOM     16  C   UNL     1       5.296   5.778  16.318  0.00  0.00    +0.000 A 
ATOM     17  C   UNL     1       5.140   4.731  15.394  0.00  0.00    +0.000 A 
ATOM     18  C   UNL     1       6.154   4.375  14.493  0.00  0.00    +0.000 A 
BRANCH  13  19
ATOM     19  N   UNL     1       8.483   4.757  13.820  0.00  0.00    +0.000 N 
ATOM     20  H   UNL     1       8.142   4.312  12.970  0.00  0.00    +0.000 HD
ATOM     21  H   UNL     1       9.081   4.113  14.333  0.00  0.00    +0.000 HD
ENDBRANCH  13  19
BRANCH  18  22
ATOM     22  O   UNL     1       5.858   3.269  13.756  0.00  0.00    +0.000 OA
BRANCH  22  23
ATOM     23  C   UNL     1       5.617   3.361  12.363  0.00  0.00    +0.000 C 
ATOM     24  F   UNL     1       6.490   4.131  11.680  0.00  0.00    +0.000 F 
ATOM     25  F   UNL     1       5.604   2.123  11.829  0.00  0.00    +0.000 F 
ATOM     26  F   UNL     1       4.388   3.900  12.183  0.00  0.00    +0.000 F 
ENDBRANCH  22  23
ENDBRANCH  18  22
ENDBRANCH   1  16
BRANCH   3  27
ATOM     27  N   UNL     1       2.058   8.859  18.278  0.00  0.00    +0.000 N 
ATOM     28  C   UNL     1       2.063   9.804  19.360  0.00  0.00    +0.000 C 
ATOM     29  C   UNL     1       0.581  10.092  19.074  0.00  0.00    +0.000 C 
ATOM     30  C   UNL     1       0.725   9.169  17.862  0.00  0.00    +0.000 C 
BRANCH  29  31
ATOM     31  N   UNL     1      -0.272   9.636  20.196  0.00  0.00    +0.000 NA
ATOM     32  C   UNL     1      -1.097  10.616  20.924  0.00  0.00    +0.000 C 
ATOM     33  C   UNL     1      -0.438  11.299  22.137  0.00  0.00    +0.000 C 
ATOM     34  O   UNL     1       0.199  10.352  23.003  0.00  0.00    +0.000 OA
ATOM     35  C   UNL     1       1.147   9.561  22.281  0.00  0.00    +0.000 C 
ATOM     36  C   UNL     1       0.469   8.786  21.144  0.00  0.00    +0.000 C 
ENDBRANCH  29  31
ENDBRANCH   3  27
TORSDOF 6
ENDMDL
MODEL 5
REMARK VINA RESULT:      -7.4      4.168      6.985
REMARK  Name = 
REMARK  6 active torsions:
REMARK  status: ('A' for Active; 'I' for Inactive)
REMARK    1  A    between atoms: N_1  and  C_2
REMARK    2  A    between atoms: C_5  and  C_6
REMARK    3  A    between atoms: C_8  and  N_9
REMARK    4  A    between atoms: C_11  and  N_12
REMARK    5  A    between atoms: C_29  and  O_30
REMARK    6  A    between atoms: O_30  and  C_31
REMARK                            x       y       z     vdW  Elec       q    Type
REMARK                         _______ _______ _______ _____ _____    ______ ____
ROOT
ATOM      1  C   UNL     1       1.529   9.435  18.520  0.00  0.00    +0.000 A 
ATOM      2  C   UNL     1       2.224  10.603  18.756  0.00  0.00    +0.000 A 
ATOM      3  C   UNL     1       1.507  11.778  18.798  0.00  0.00    +0.000 A 
ATOM      4  N   UNL     1       0.188  11.795  18.565  0.00  0.00    +0.000 NA
ATOM      5  C   UNL     1      -0.441  10.626  18.322  0.00  0.00    +0.000 A 
ATOM      6  N   UNL     1      -1.796  10.670  18.137  0.00  0.00    +0.000 N 
ATOM      7  C   UNL     1      -2.578   9.488  17.824  0.00  0.00    +0.000 C 
ATOM      8  C   UNL     1      -3.962  10.055  17.492  0.00  0.00    +0.000 C 
ATOM      9  C   UNL     1      -3.631  11.376  16.823  0.00  0.00    +0.000 C 
ATOM     10  F   UNL     1      -3.291  11.130  15.526  0.00  0.00    +0.000 F 
ATOM     11  C   UNL     1      -2.404  11.881  17.588  0.00  0.00    +0.000 C 
ATOM     12  N   UNL     1       0.198   9.443  18.309  0.00  0.00    +0.000 NA
ENDROOT
BRANCH   1  16
ATOM     13  C   UNL     1       3.664   5.742  18.449  0.00  0.00    +0.000 A 
ATOM     14  N   UNL     1       3.830   6.629  17.448  0.00  0.00    +0.000 NA
ATOM     15  C   UNL     1       3.113   7.786  17.485  0.00  0.00    +0.000 A 
ATOM     16  C   UNL     1       2.219   8.131  18.489  0.00  0.00    +0.000 A 
ATOM     17  C   UNL     1       2.052   7.162  19.494  0.00  0.00    +0.000 A 
ATOM     18  C   UNL     1       2.759   5.951  19.486  0.00  0.00    +0.000 A 
BRANCH  13  19
ATOM     19  N   UNL     1       4.527   4.653  18.385  0.00  0.00    +0.000 N 
ATOM     20  H   UNL     1       4.817   4.585  17.411  0.00  0.00    +0.000 HD
ATOM     21  H   UNL     1       4.057   3.795  18.666  0.00  0.00    +0.000 HD
ENDBRANCH  13  19
BRANCH  18  22
ATOM     22  O   UNL     1       2.546   5.194  20.597  0.00  0.00    +0.000 OA
BRANCH  22  23
ATOM     23  C   UNL     1       1.630   4.113  20.581  0.00  0.00    +0.000 C 
ATOM     24  F   UNL     1       0.334   4.463  20.450  0.00  0.00    +0.000 F 
ATOM     25  F   UNL     1       1.963   3.260  19.590  0.00  0.00    +0.000 F 
ATOM     26  F   UNL     1       1.745   3.446  21.754  0.00  0.00    +0.000 F 
ENDBRANCH  22  23
ENDBRANCH  18  22
ENDBRANCH   1  16
BRANCH   3  27
ATOM     27  N   UNL     1       2.194  12.974  19.091  0.00  0.00    +0.000 N 
ATOM     28  C   UNL     1       2.286  13.616  20.373  0.00  0.00    +0.000 C 
ATOM     29  C   UNL     1       2.102  14.972  19.673  0.00  0.00    +0.000 C 
ATOM     30  C   UNL     1       2.155  14.199  18.352  0.00  0.00    +0.000 C 
BRANCH  29  31
ATOM     31  N   UNL     1       0.815  15.596  20.059  0.00  0.00    +0.000 NA
ATOM     32  C   UNL     1      -0.269  15.694  19.066  0.00  0.00    +0.000 C 
ATOM     33  C   UNL     1      -0.290  16.968  18.200  0.00  0.00    +0.000 C 
ATOM     34  O   UNL     1      -0.147  18.154  18.990  0.00  0.00    +0.000 OA
ATOM     35  C   UNL     1       1.041  18.094  19.785  0.00  0.00    +0.000 C 
ATOM     36  C   UNL     1       1.009  16.889  20.735  0.00  0.00    +0.000 C 
ENDBRANCH  29  31
ENDBRANCH   3  27
TORSDOF 6
ENDMDL
MODEL 6
REMARK VINA RESULT:      -7.3      4.141      7.765
REMARK  Name = 
REMARK  6 active torsions:
REMARK  status: ('A' for Active; 'I' for Inactive)
REMARK    1  A    between atoms: N_1  and  C_2
REMARK    2  A    between atoms: C_5  and  C_6
REMARK    3  A    between atoms: C_8  and  N_9
REMARK    4  A    between atoms: C_11  and  N_12
REMARK    5  A    between atoms: C_29  and  O_30
REMARK    6  A    between atoms: O_30  and  C_31
REMARK                            x       y       z     vdW  Elec       q    Type
REMARK                         _______ _______ _______ _____ _____    ______ ____
ROOT
ATOM      1  C   UNL     1       1.181  10.126  19.576  0.00  0.00    +0.000 A 
ATOM      2  C   UNL     1       0.147  10.181  20.487  0.00  0.00    +0.000 A 
ATOM      3  C   UNL     1      -0.344  11.423  20.823  0.00  0.00    +0.000 A 
ATOM      4  N   UNL     1       0.197  12.542  20.325  0.00  0.00    +0.000 NA
ATOM      5  C   UNL     1       1.219  12.432  19.451  0.00  0.00    +0.000 A 
ATOM      6  N   UNL     1       1.718  13.591  18.922  0.00  0.00    +0.000 N 
ATOM      7  C   UNL     1       2.845  13.607  18.007  0.00  0.00    +0.000 C 
ATOM      8  C   UNL     1       3.173  15.098  17.873  0.00  0.00    +0.000 C 
ATOM      9  C   UNL     1       2.860  15.635  19.257  0.00  0.00    +0.000 C 
ATOM     10  F   UNL     1       3.912  15.356  20.078  0.00  0.00    +0.000 F 
ATOM     11  C   UNL     1       1.636  14.826  19.699  0.00  0.00    +0.000 C 
ATOM     12  N   UNL     1       1.715  11.247  19.052  0.00  0.00    +0.000 NA
ENDROOT
BRANCH   1  16
ATOM     13  C   UNL     1       2.955   6.462  18.295  0.00  0.00    +0.000 A 
ATOM     14  N   UNL     1       2.819   7.480  17.422  0.00  0.00    +0.000 NA
ATOM     15  C   UNL     1       2.224   8.626  17.853  0.00  0.00    +0.000 A 
ATOM     16  C   UNL     1       1.745   8.833  19.140  0.00  0.00    +0.000 A 
ATOM     17  C   UNL     1       1.876   7.734  20.006  0.00  0.00    +0.000 A 
ATOM     18  C   UNL     1       2.469   6.530  19.598  0.00  0.00    +0.000 A 
BRANCH  13  19
ATOM     19  N   UNL     1       3.681   5.386  17.797  0.00  0.00    +0.000 N 
ATOM     20  H   UNL     1       3.301   4.558  18.254  0.00  0.00    +0.000 HD
ATOM     21  H   UNL     1       4.671   5.477  18.016  0.00  0.00    +0.000 HD
ENDBRANCH  13  19
BRANCH  18  22
ATOM     22  O   UNL     1       2.605   5.626  20.606  0.00  0.00    +0.000 OA
BRANCH  22  23
ATOM     23  C   UNL     1       1.782   4.475  20.672  0.00  0.00    +0.000 C 
ATOM     24  F   UNL     1       0.463   4.703  20.506  0.00  0.00    +0.000 F 
ATOM     25  F   UNL     1       2.196   3.576  19.755  0.00  0.00    +0.000 F 
ATOM     26  F   UNL     1       1.937   3.915  21.896  0.00  0.00    +0.000 F 
ENDBRANCH  22  23
ENDBRANCH  18  22
ENDBRANCH   1  16
BRANCH   3  27
ATOM     27  N   UNL     1      -1.437  11.494  21.712  0.00  0.00    +0.000 N 
ATOM     28  C   UNL     1      -2.659  12.221  21.509  0.00  0.00    +0.000 C 
ATOM     29  C   UNL     1      -2.611  12.652  22.983  0.00  0.00    +0.000 C 
ATOM     30  C   UNL     1      -1.393  11.737  23.122  0.00  0.00    +0.000 C 
BRANCH  29  31
ATOM     31  N   UNL     1      -2.398  14.114  23.100  0.00  0.00    +0.000 NA
ATOM     32  C   UNL     1      -1.741  14.655  24.303  0.00  0.00    +0.000 C 
ATOM     33  C   UNL     1      -2.664  15.029  25.478  0.00  0.00    +0.000 C 
ATOM     34  O   UNL     1      -3.782  15.815  25.050  0.00  0.00    +0.000 OA
ATOM     35  C   UNL     1      -4.511  15.144  24.019  0.00  0.00    +0.000 C 
ATOM     36  C   UNL     1      -3.621  14.877  22.798  0.00  0.00    +0.000 C 
ENDBRANCH  29  31
ENDBRANCH   3  27
TORSDOF 6
ENDMDL
MODEL 7
REMARK VINA RESULT:      -7.3      4.553      7.092
REMARK  Name = 
REMARK  6 active torsions:
REMARK  status: ('A' for Active; 'I' for Inactive)
REMARK    1  A    between atoms: N_1  and  C_2
REMARK    2  A    between atoms: C_5  and  C_6
REMARK    3  A    between atoms: C_8  and  N_9
REMARK    4  A    between atoms: C_11  and  N_12
REMARK    5  A    between atoms: C_29  and  O_30
REMARK    6  A    between atoms: O_30  and  C_31
REMARK                            x       y       z     vdW  Elec       q    Type
REMARK                         _______ _______ _______ _____ _____    ______ ____
ROOT
ATOM      1  C   UNL     1       0.920   9.509  18.571  0.00  0.00    +0.000 A 
ATOM      2  C   UNL     1      -0.335   9.359  18.020  0.00  0.00    +0.000 A 
ATOM      3  C   UNL     1      -1.068  10.499  17.777  0.00  0.00    +0.000 A 
ATOM      4  N   UNL     1      -0.602  11.709  18.114  0.00  0.00    +0.000 NA
ATOM      5  C   UNL     1       0.625  11.798  18.668  0.00  0.00    +0.000 A 
ATOM      6  N   UNL     1       1.093  13.051  18.957  0.00  0.00    +0.000 N 
ATOM      7  C   UNL     1       2.377  13.275  19.594  0.00  0.00    +0.000 C 
ATOM      8  C   UNL     1       2.361  14.774  19.910  0.00  0.00    +0.000 C 
ATOM      9  C   UNL     1       0.901  15.032  20.234  0.00  0.00    +0.000 C 
ATOM     10  F   UNL     1       0.667  14.640  21.518  0.00  0.00    +0.000 F 
ATOM     11  C   UNL     1       0.141  14.116  19.270  0.00  0.00    +0.000 C 
ATOM     12  N   UNL     1       1.405  10.725  18.891  0.00  0.00    +0.000 NA
ENDROOT
BRANCH   1  16
ATOM     13  C   UNL     1       3.277   6.041  19.366  0.00  0.00    +0.000 A 
ATOM     14  N   UNL     1       2.591   6.628  20.367  0.00  0.00    +0.000 NA
ATOM     15  C   UNL     1       1.872   7.749  20.088  0.00  0.00    +0.000 A 
ATOM     16  C   UNL     1       1.782   8.339  18.835  0.00  0.00    +0.000 A 
ATOM     17  C   UNL     1       2.538   7.715  17.829  0.00  0.00    +0.000 A 
ATOM     18  C   UNL     1       3.306   6.567  18.077  0.00  0.00    +0.000 A 
BRANCH  13  19
ATOM     19  N   UNL     1       3.878   4.839  19.723  0.00  0.00    +0.000 N 
ATOM     20  H   UNL     1       4.869   5.046  19.833  0.00  0.00    +0.000 HD
ATOM     21  H   UNL     1       3.750   4.135  19.000  0.00  0.00    +0.000 HD
ENDBRANCH  13  19
BRANCH  18  22
ATOM     22  O   UNL     1       3.878   6.046  16.957  0.00  0.00    +0.000 OA
BRANCH  22  23
ATOM     23  C   UNL     1       5.109   6.546  16.465  0.00  0.00    +0.000 C 
ATOM     24  F   UNL     1       5.747   7.406  17.284  0.00  0.00    +0.000 F 
ATOM     25  F   UNL     1       5.928   5.512  16.180  0.00  0.00    +0.000 F 
ATOM     26  F   UNL     1       4.862   7.207  15.308  0.00  0.00    +0.000 F 
ENDBRANCH  22  23
ENDBRANCH  18  22
ENDBRANCH   1  16
BRANCH   3  27
ATOM     27  N   UNL     1      -2.331  10.367  17.164  0.00  0.00    +0.000 N 
ATOM     28  C   UNL     1      -2.965  11.322  16.297  0.00  0.00    +0.000 C 
ATOM     29  C   UNL     1      -4.299  11.030  17.003  0.00  0.00    +0.000 C 
ATOM     30  C   UNL     1      -3.552   9.941  17.776  0.00  0.00    +0.000 C 
BRANCH  29  31
ATOM     31  N   UNL     1      -4.769  12.216  17.756  0.00  0.00    +0.000 NA
ATOM     32  C   UNL     1      -4.805  12.172  19.228  0.00  0.00    +0.000 C 
ATOM     33  C   UNL     1      -6.110  11.660  19.866  0.00  0.00    +0.000 C 
ATOM     34  O   UNL     1      -7.265  12.289  19.298  0.00  0.00    +0.000 OA
ATOM     35  C   UNL     1      -7.288  12.121  17.877  0.00  0.00    +0.000 C 
ATOM     36  C   UNL     1      -6.041  12.737  17.228  0.00  0.00    +0.000 C 
ENDBRANCH  29  31
ENDBRANCH   3  27
TORSDOF 6
ENDMDL
MODEL 8
REMARK VINA RESULT:      -7.2      4.142      7.268
REMARK  Name = 
REMARK  6 active torsions:
REMARK  status: ('A' for Active; 'I' for Inactive)
REMARK    1  A    between atoms: N_1  and  C_2
REMARK    2  A    between atoms: C_5  and  C_6
REMARK    3  A    between atoms: C_8  and  N_9
REMARK    4  A    between atoms: C_11  and  N_12
REMARK    5  A    between atoms: C_29  and  O_30
REMARK    6  A    between atoms: O_30  and  C_31
REMARK                            x       y       z     vdW  Elec       q    Type
REMARK                         _______ _______ _______ _____ _____    ______ ____
ROOT
ATOM      1  C   UNL     1       1.010   9.728  19.010  0.00  0.00    +0.000 A 
ATOM      2  C   UNL     1       1.540  10.878  19.557  0.00  0.00    +0.000 A 
ATOM      3  C   UNL     1       0.697  11.953  19.726  0.00  0.00    +0.000 A 
ATOM      4  N   UNL     1      -0.579  11.905  19.324  0.00  0.00    +0.000 NA
ATOM      5  C   UNL     1      -1.043  10.762  18.779  0.00  0.00    +0.000 A 
ATOM      6  N   UNL     1      -2.364  10.727  18.423  0.00  0.00    +0.000 N 
ATOM      7  C   UNL     1      -2.968   9.571  17.786  0.00  0.00    +0.000 C 
ATOM      8  C   UNL     1      -4.359  10.074  17.384  0.00  0.00    +0.000 C 
ATOM      9  C   UNL     1      -4.101  11.527  17.032  0.00  0.00    +0.000 C 
ATOM     10  F   UNL     1      -3.587  11.582  15.770  0.00  0.00    +0.000 F 
ATOM     11  C   UNL     1      -3.034  11.968  18.039  0.00  0.00    +0.000 C 
ATOM     12  N   UNL     1      -0.280   9.665  18.625  0.00  0.00    +0.000 NA
ENDROOT
BRANCH   1  16
ATOM     13  C   UNL     1       3.539   6.331  18.482  0.00  0.00    +0.000 A 
ATOM     14  N   UNL     1       3.510   7.296  17.541  0.00  0.00    +0.000 NA
ATOM     15  C   UNL     1       2.672   8.353  17.725  0.00  0.00    +0.000 A 
ATOM     16  C   UNL     1       1.839   8.521  18.822  0.00  0.00    +0.000 A 
ATOM     17  C   UNL     1       1.876   7.476  19.761  0.00  0.00    +0.000 A 
ATOM     18  C   UNL     1       2.714   6.361  19.603  0.00  0.00    +0.000 A 
BRANCH  13  19
ATOM     19  N   UNL     1       4.511   5.361  18.264  0.00  0.00    +0.000 N 
ATOM     20  H   UNL     1       5.243   5.817  17.723  0.00  0.00    +0.000 HD
ATOM     21  H   UNL     1       4.134   4.573  17.742  0.00  0.00    +0.000 HD
ENDBRANCH  13  19
BRANCH  18  22
ATOM     22  O   UNL     1       2.691   5.512  20.667  0.00  0.00    +0.000 OA
BRANCH  22  23
ATOM     23  C   UNL     1       1.938   4.313  20.629  0.00  0.00    +0.000 C 
ATOM     24  F   UNL     1       2.220   3.491  19.596  0.00  0.00    +0.000 F 
ATOM     25  F   UNL     1       2.107   3.643  21.788  0.00  0.00    +0.000 F 
ATOM     26  F   UNL     1       0.628   4.641  20.530  0.00  0.00    +0.000 F 
ENDBRANCH  22  23
ENDBRANCH  18  22
ENDBRANCH   1  16
BRANCH   3  27
ATOM     27  N   UNL     1       1.209  13.118  20.334  0.00  0.00    +0.000 N 
ATOM     28  C   UNL     1       0.868  14.475  20.006  0.00  0.00    +0.000 C 
ATOM     29  C   UNL     1       2.351  14.851  20.158  0.00  0.00    +0.000 C 
ATOM     30  C   UNL     1       2.579  13.413  20.627  0.00  0.00    +0.000 C 
BRANCH  29  31
ATOM     31  N   UNL     1       2.930  15.256  18.855  0.00  0.00    +0.000 NA
ATOM     32  C   UNL     1       4.033  14.469  18.278  0.00  0.00    +0.000 C 
ATOM     33  C   UNL     1       5.459  14.899  18.671  0.00  0.00    +0.000 C 
ATOM     34  O   UNL     1       5.649  16.312  18.533  0.00  0.00    +0.000 OA
ATOM     35  C   UNL     1       4.669  17.032  19.287  0.00  0.00    +0.000 C 
ATOM     36  C   UNL     1       3.249  16.693  18.815  0.00  0.00    +0.000 C 
ENDBRANCH  29  31
ENDBRANCH   3  27
TORSDOF 6
ENDMDL
MODEL 9
REMARK VINA RESULT:      -7.0      4.024      7.101
REMARK  Name = 
REMARK  6 active torsions:
REMARK  status: ('A' for Active; 'I' for Inactive)
REMARK    1  A    between atoms: N_1  and  C_2
REMARK    2  A    between atoms: C_5  and  C_6
REMARK    3  A    between atoms: C_8  and  N_9
REMARK    4  A    between atoms: C_11  and  N_12
REMARK    5  A    between atoms: C_29  and  O_30
REMARK    6  A    between atoms: O_30  and  C_31
REMARK                            x       y       z     vdW  Elec       q    Type
REMARK                         _______ _______ _______ _____ _____    ______ ____
ROOT
ATOM      1  C   UNL     1       0.984   9.634  19.100  0.00  0.00    +0.000 A 
ATOM      2  C   UNL     1       1.488  10.719  19.785  0.00  0.00    +0.000 A 
ATOM      3  C   UNL     1       0.627  11.756  20.066  0.00  0.00    +0.000 A 
ATOM      4  N   UNL     1      -0.643  11.737  19.643  0.00  0.00    +0.000 NA
ATOM      5  C   UNL     1      -1.082  10.659  18.962  0.00  0.00    +0.000 A 
ATOM      6  N   UNL     1      -2.398  10.648  18.585  0.00  0.00    +0.000 N 
ATOM      7  C   UNL     1      -2.976   9.566  17.810  0.00  0.00    +0.000 C 
ATOM      8  C   UNL     1      -4.369  10.093  17.449  0.00  0.00    +0.000 C 
ATOM      9  C   UNL     1      -4.130  11.580  17.272  0.00  0.00    +0.000 C 
ATOM     10  F   UNL     1      -3.601  11.789  16.033  0.00  0.00    +0.000 F 
ATOM     11  C   UNL     1      -3.083  11.915  18.339  0.00  0.00    +0.000 C 
ATOM     12  N   UNL     1      -0.301   9.598  18.693  0.00  0.00    +0.000 NA
ENDROOT
BRANCH   1  16
ATOM     13  C   UNL     1       3.571   6.355  18.228  0.00  0.00    +0.000 A 
ATOM     14  N   UNL     1       3.602   7.456  17.451  0.00  0.00    +0.000 NA
ATOM     15  C   UNL     1       2.744   8.473  17.737  0.00  0.00    +0.000 A 
ATOM     16  C   UNL     1       1.833   8.469  18.785  0.00  0.00    +0.000 A 
ATOM     17  C   UNL     1       1.812   7.289  19.549  0.00  0.00    +0.000 A 
ATOM     18  C   UNL     1       2.668   6.211  19.277  0.00  0.00    +0.000 A 
BRANCH  13  19
ATOM     19  N   UNL     1       4.564   5.427  17.931  0.00  0.00    +0.000 N 
ATOM     20  H   UNL     1       4.854   5.627  16.975  0.00  0.00    +0.000 HD
ATOM     21  H   UNL     1       4.209   4.476  17.993  0.00  0.00    +0.000 HD
ENDBRANCH  13  19
BRANCH  18  22
ATOM     22  O   UNL     1       2.576   5.205  20.190  0.00  0.00    +0.000 OA
BRANCH  22  23
ATOM     23  C   UNL     1       1.748   4.079  19.957  0.00  0.00    +0.000 C 
ATOM     24  F   UNL     1       1.224   3.999  18.717  0.00  0.00    +0.000 F 
ATOM     25  F   UNL     1       2.442   2.952  20.220  0.00  0.00    +0.000 F 
ATOM     26  F   UNL     1       0.709   4.134  20.825  0.00  0.00    +0.000 F 
ENDBRANCH  22  23
ENDBRANCH  18  22
ENDBRANCH   1  16
BRANCH   3  27
ATOM     27  N   UNL     1       1.114  12.849  20.813  0.00  0.00    +0.000 N 
ATOM     28  C   UNL     1       0.326  13.851  21.476  0.00  0.00    +0.000 C 
ATOM     29  C   UNL     1       1.327  14.913  20.996  0.00  0.00    +0.000 C 
ATOM     30  C   UNL     1       2.160  13.753  20.444  0.00  0.00    +0.000 C 
BRANCH  29  31
ATOM     31  N   UNL     1       0.695  15.836  20.024  0.00  0.00    +0.000 NA
ATOM     32  C   UNL     1       1.180  15.867  18.633  0.00  0.00    +0.000 C 
ATOM     33  C   UNL     1       2.321  16.856  18.329  0.00  0.00    +0.000 C 
ATOM     34  O   UNL     1       2.053  18.160  18.856  0.00  0.00    +0.000 OA
ATOM     35  C   UNL     1       1.791  18.096  20.261  0.00  0.00    +0.000 C 
ATOM     36  C   UNL     1       0.578  17.204  20.556  0.00  0.00    +0.000 C 
ENDBRANCH  29  31
ENDBRANCH   3  27
TORSDOF 6
ENDMDL
