MODEL 1
REMARK VINA RESULT:      -8.2      0.000      0.000
REMARK  Name = 
REMARK  4 active torsions:
REMARK  status: ('A' for Active; 'I' for Inactive)
REMARK    1  A    between atoms: C_3  and  C_4
REMARK    2  A    between atoms: C_4  and  C_5
REMARK    3  A    between atoms: C_11  and  C_12
REMARK    4  A    between atoms: N_18  and  C_19
REMARK                            x       y       z     vdW  Elec       q    Type
REMARK                         _______ _______ _______ _____ _____    ______ ____
ROOT
ATOM      1  O   UNL     1       3.180   2.974  16.560  0.00  0.00    +0.000 OA
ATOM      2  C   UNL     1       3.401   4.008  17.153  0.00  0.00    +0.000 C 
ATOM      3  C   UNL     1       4.072   5.342  16.779  0.00  0.00    +0.000 C 
ATOM      4  C   UNL     1       3.822   5.731  18.281  0.00  0.00    +0.000 C 
ATOM      5  N   UNL     1       3.146   4.435  18.410  0.00  0.00    +0.000 N 
ENDROOT
BRANCH   4   6
ATOM      6  C   UNL     1       2.985   7.053  18.550  0.00  0.00    +0.000 A 
ATOM      7  C   UNL     1       2.300   7.282  19.762  0.00  0.00    +0.000 A 
ATOM      8  C   UNL     1       1.516   8.420  19.966  0.00  0.00    +0.000 A 
ATOM      9  C   UNL     1       1.397   9.370  18.959  0.00  0.00    +0.000 A 
ATOM     10  C   UNL     1       2.084   9.197  17.764  0.00  0.00    +0.000 A 
ATOM     11  C   UNL     1       2.874   8.060  17.570  0.00  0.00    +0.000 A 
ENDBRANCH   4   6
BRANCH   5  12
ATOM     12  C   UNL     1       2.596   3.801  19.523  0.00  0.00    +0.000 A 
ATOM     13  C   UNL     1       3.411   3.122  20.435  0.00  0.00    +0.000 A 
ATOM     14  C   UNL     1       2.853   2.458  21.531  0.00  0.00    +0.000 A 
ATOM     15  C   UNL     1       1.471   2.440  21.705  0.00  0.00    +0.000 A 
ATOM     16  C   UNL     1       0.651   3.116  20.808  0.00  0.00    +0.000 A 
ATOM     17  C   UNL     1       1.214   3.816  19.737  0.00  0.00    +0.000 A 
ENDBRANCH   5  12
BRANCH   3  18
ATOM     18  C   UNL     1       5.495   5.173  16.277  0.00  0.00    +0.000 C 
BRANCH  18  19
ATOM     19  C   UNL     1       6.467   5.940  17.140  0.00  0.00    +0.000 A 
ATOM     20  C   UNL     1       6.740   7.289  16.883  0.00  0.00    +0.000 A 
ATOM     21  C   UNL     1       7.650   7.991  17.677  0.00  0.00    +0.000 A 
ATOM     22  C   UNL     1       8.285   7.356  18.744  0.00  0.00    +0.000 A 
ATOM     23  C   UNL     1       8.015   6.018  19.013  0.00  0.00    +0.000 A 
ATOM     24  C   UNL     1       7.119   5.309  18.210  0.00  0.00    +0.000 A 
ENDBRANCH  18  19
ENDBRANCH   3  18
TORSDOF 4
ENDMDL
MODEL 2
REMARK VINA RESULT:      -8.2      0.128      1.706
REMARK  Name = 
REMARK  4 active torsions:
REMARK  status: ('A' for Active; 'I' for Inactive)
REMARK    1  A    between atoms: C_3  and  C_4
REMARK    2  A    between atoms: C_4  and  C_5
REMARK    3  A    between atoms: C_11  and  C_12
REMARK    4  A    between atoms: N_18  and  C_19
REMARK                            x       y       z     vdW  Elec       q    Type
REMARK                         _______ _______ _______ _____ _____    ______ ____
ROOT
ATOM      1  O   UNL     1       3.238   2.886  16.505  0.00  0.00    +0.000 OA
ATOM      2  C   UNL     1       3.439   3.922  17.102  0.00  0.00    +0.000 C 
ATOM      3  C   UNL     1       4.094   5.267  16.735  0.00  0.00    +0.000 C 
ATOM      4  C   UNL     1       3.827   5.649  18.236  0.00  0.00    +0.000 C 
ATOM      5  N   UNL     1       3.169   4.344  18.358  0.00  0.00    +0.000 N 
ENDROOT
BRANCH   4   6
ATOM      6  C   UNL     1       2.969   6.959  18.500  0.00  0.00    +0.000 A 
ATOM      7  C   UNL     1       2.826   7.978  17.537  0.00  0.00    +0.000 A 
ATOM      8  C   UNL     1       2.121   9.154  17.800  0.00  0.00    +0.000 A 
ATOM      9  C   UNL     1       1.530   9.344  19.043  0.00  0.00    +0.000 A 
ATOM     10  C   UNL     1       1.618   8.348  20.008  0.00  0.00    +0.000 A 
ATOM     11  C   UNL     1       2.319   7.170  19.734  0.00  0.00    +0.000 A 
ENDBRANCH   4   6
BRANCH   5  12
ATOM     12  C   UNL     1       2.620   3.700  19.465  0.00  0.00    +0.000 A 
ATOM     13  C   UNL     1       1.236   3.686  19.673  0.00  0.00    +0.000 A 
ATOM     14  C   UNL     1       0.693   3.069  20.803  0.00  0.00    +0.000 A 
ATOM     15  C   UNL     1       1.531   2.491  21.753  0.00  0.00    +0.000 A 
ATOM     16  C   UNL     1       2.908   2.494  21.554  0.00  0.00    +0.000 A 
ATOM     17  C   UNL     1       3.447   3.072  20.403  0.00  0.00    +0.000 A 
ENDBRANCH   5  12
BRANCH   3  18
ATOM     18  C   UNL     1       5.523   5.119  16.243  0.00  0.00    +0.000 C 
BRANCH  18  19
ATOM     19  C   UNL     1       6.486   5.831  17.160  0.00  0.00    +0.000 A 
ATOM     20  C   UNL     1       7.075   5.160  18.238  0.00  0.00    +0.000 A 
ATOM     21  C   UNL     1       7.956   5.827  19.093  0.00  0.00    +0.000 A 
ATOM     22  C   UNL     1       8.269   7.167  18.870  0.00  0.00    +0.000 A 
ATOM     23  C   UNL     1       7.696   7.842  17.796  0.00  0.00    +0.000 A 
ATOM     24  C   UNL     1       6.801   7.182  16.951  0.00  0.00    +0.000 A 
ENDBRANCH  18  19
ENDBRANCH   3  18
TORSDOF 4
ENDMDL
MODEL 3
REMARK VINA RESULT:      -7.9      2.110      5.266
REMARK  Name = 
REMARK  4 active torsions:
REMARK  status: ('A' for Active; 'I' for Inactive)
REMARK    1  A    between atoms: C_3  and  C_4
REMARK    2  A    between atoms: C_4  and  C_5
REMARK    3  A    between atoms: C_11  and  C_12
REMARK    4  A    between atoms: N_18  and  C_19
REMARK                            x       y       z     vdW  Elec       q    Type
REMARK                         _______ _______ _______ _____ _____    ______ ____
ROOT
ATOM      1  O   UNL     1       1.335   7.881  20.733  0.00  0.00    +0.000 OA
ATOM      2  C   UNL     1       1.925   7.432  19.774  0.00  0.00    +0.000 C 
ATOM      3  C   UNL     1       2.565   8.050  18.517  0.00  0.00    +0.000 C 
ATOM      4  C   UNL     1       2.861   6.563  18.104  0.00  0.00    +0.000 C 
ATOM      5  N   UNL     1       2.280   6.183  19.397  0.00  0.00    +0.000 N 
ENDROOT
BRANCH   4   6
ATOM      6  C   UNL     1       4.376   6.187  17.814  0.00  0.00    +0.000 A 
ATOM      7  C   UNL     1       5.225   5.648  18.802  0.00  0.00    +0.000 A 
ATOM      8  C   UNL     1       6.573   5.378  18.555  0.00  0.00    +0.000 A 
ATOM      9  C   UNL     1       7.113   5.636  17.301  0.00  0.00    +0.000 A 
ATOM     10  C   UNL     1       6.300   6.135  16.290  0.00  0.00    +0.000 A 
ATOM     11  C   UNL     1       4.951   6.395  16.543  0.00  0.00    +0.000 A 
ENDBRANCH   4   6
BRANCH   5  12
ATOM     12  C   UNL     1       2.022   4.929  19.947  0.00  0.00    +0.000 A 
ATOM     13  C   UNL     1       1.264   3.983  19.247  0.00  0.00    +0.000 A 
ATOM     14  C   UNL     1       0.979   2.739  19.816  0.00  0.00    +0.000 A 
ATOM     15  C   UNL     1       1.420   2.443  21.103  0.00  0.00    +0.000 A 
ATOM     16  C   UNL     1       2.179   3.374  21.806  0.00  0.00    +0.000 A 
ATOM     17  C   UNL     1       2.501   4.599  21.219  0.00  0.00    +0.000 A 
ENDBRANCH   5  12
BRANCH   3  18
ATOM     18  C   UNL     1       1.590   8.875  17.696  0.00  0.00    +0.000 C 
BRANCH  18  19
ATOM     19  C   UNL     1       1.469  10.274  18.247  0.00  0.00    +0.000 A 
ATOM     20  C   UNL     1       0.384  10.632  19.056  0.00  0.00    +0.000 A 
ATOM     21  C   UNL     1       0.269  11.932  19.554  0.00  0.00    +0.000 A 
ATOM     22  C   UNL     1       1.244  12.884  19.260  0.00  0.00    +0.000 A 
ATOM     23  C   UNL     1       2.331  12.537  18.463  0.00  0.00    +0.000 A 
ATOM     24  C   UNL     1       2.439  11.243  17.950  0.00  0.00    +0.000 A 
ENDBRANCH  18  19
ENDBRANCH   3  18
TORSDOF 4
ENDMDL
MODEL 4
REMARK VINA RESULT:      -7.9      1.989      6.434
REMARK  Name = 
REMARK  4 active torsions:
REMARK  status: ('A' for Active; 'I' for Inactive)
REMARK    1  A    between atoms: C_3  and  C_4
REMARK    2  A    between atoms: C_4  and  C_5
REMARK    3  A    between atoms: C_11  and  C_12
REMARK    4  A    between atoms: N_18  and  C_19
REMARK                            x       y       z     vdW  Elec       q    Type
REMARK                         _______ _______ _______ _____ _____    ______ ____
ROOT
ATOM      1  O   UNL     1       4.075   2.745  16.618  0.00  0.00    +0.000 OA
ATOM      2  C   UNL     1       4.430   3.899  16.732  0.00  0.00    +0.000 C 
ATOM      3  C   UNL     1       4.192   5.001  17.781  0.00  0.00    +0.000 C 
ATOM      4  C   UNL     1       5.017   5.915  16.806  0.00  0.00    +0.000 C 
ATOM      5  N   UNL     1       5.197   4.718  15.978  0.00  0.00    +0.000 N 
ENDROOT
BRANCH   4   6
ATOM      6  C   UNL     1       6.306   6.623  17.405  0.00  0.00    +0.000 A 
ATOM      7  C   UNL     1       7.142   5.997  18.352  0.00  0.00    +0.000 A 
ATOM      8  C   UNL     1       8.238   6.650  18.920  0.00  0.00    +0.000 A 
ATOM      9  C   UNL     1       8.535   7.956  18.551  0.00  0.00    +0.000 A 
ATOM     10  C   UNL     1       7.755   8.596  17.595  0.00  0.00    +0.000 A 
ATOM     11  C   UNL     1       6.665   7.933  17.026  0.00  0.00    +0.000 A 
ENDBRANCH   4   6
BRANCH   5  12
ATOM     12  C   UNL     1       5.805   4.552  14.735  0.00  0.00    +0.000 A 
ATOM     13  C   UNL     1       5.185   3.803  13.729  0.00  0.00    +0.000 A 
ATOM     14  C   UNL     1       5.814   3.611  12.496  0.00  0.00    +0.000 A 
ATOM     15  C   UNL     1       7.083   4.137  12.270  0.00  0.00    +0.000 A 
ATOM     16  C   UNL     1       7.707   4.888  13.262  0.00  0.00    +0.000 A 
ATOM     17  C   UNL     1       7.059   5.117  14.478  0.00  0.00    +0.000 A 
ENDBRANCH   5  12
BRANCH   3  18
ATOM     18  C   UNL     1       2.720   5.293  18.015  0.00  0.00    +0.000 C 
BRANCH  18  19
ATOM     19  C   UNL     1       2.172   4.441  19.133  0.00  0.00    +0.000 A 
ATOM     20  C   UNL     1       2.588   4.643  20.455  0.00  0.00    +0.000 A 
ATOM     21  C   UNL     1       2.088   3.843  21.486  0.00  0.00    +0.000 A 
ATOM     22  C   UNL     1       1.156   2.845  21.209  0.00  0.00    +0.000 A 
ATOM     23  C   UNL     1       0.728   2.641  19.900  0.00  0.00    +0.000 A 
ATOM     24  C   UNL     1       1.240   3.427  18.865  0.00  0.00    +0.000 A 
ENDBRANCH  18  19
ENDBRANCH   3  18
TORSDOF 4
ENDMDL
MODEL 5
REMARK VINA RESULT:      -7.9      2.127      5.158
REMARK  Name = 
REMARK  4 active torsions:
REMARK  status: ('A' for Active; 'I' for Inactive)
REMARK    1  A    between atoms: C_3  and  C_4
REMARK    2  A    between atoms: C_4  and  C_5
REMARK    3  A    between atoms: C_11  and  C_12
REMARK    4  A    between atoms: N_18  and  C_19
REMARK                            x       y       z     vdW  Elec       q    Type
REMARK                         _______ _______ _______ _____ _____    ______ ____
ROOT
ATOM      1  O   UNL     1       1.332   7.901  20.771  0.00  0.00    +0.000 OA
ATOM      2  C   UNL     1       1.913   7.446  19.809  0.00  0.00    +0.000 C 
ATOM      3  C   UNL     1       2.556   8.056  18.550  0.00  0.00    +0.000 C 
ATOM      4  C   UNL     1       2.829   6.566  18.135  0.00  0.00    +0.000 C 
ATOM      5  N   UNL     1       2.249   6.193  19.429  0.00  0.00    +0.000 N 
ENDROOT
BRANCH   4   6
ATOM      6  C   UNL     1       4.338   6.170  17.838  0.00  0.00    +0.000 A 
ATOM      7  C   UNL     1       5.177   5.597  18.816  0.00  0.00    +0.000 A 
ATOM      8  C   UNL     1       6.520   5.309  18.564  0.00  0.00    +0.000 A 
ATOM      9  C   UNL     1       7.066   5.583  17.315  0.00  0.00    +0.000 A 
ATOM     10  C   UNL     1       6.262   6.114  16.314  0.00  0.00    +0.000 A 
ATOM     11  C   UNL     1       4.917   6.392  16.571  0.00  0.00    +0.000 A 
ENDBRANCH   4   6
BRANCH   5  12
ATOM     12  C   UNL     1       1.977   4.941  19.979  0.00  0.00    +0.000 A 
ATOM     13  C   UNL     1       2.439   4.604  21.256  0.00  0.00    +0.000 A 
ATOM     14  C   UNL     1       2.193   3.336  21.789  0.00  0.00    +0.000 A 
ATOM     15  C   UNL     1       1.512   2.383  21.036  0.00  0.00    +0.000 A 
ATOM     16  C   UNL     1       1.043   2.709  19.767  0.00  0.00    +0.000 A 
ATOM     17  C   UNL     1       1.251   3.990  19.253  0.00  0.00    +0.000 A 
ENDBRANCH   5  12
BRANCH   3  18
ATOM     18  C   UNL     1       1.588   8.895  17.734  0.00  0.00    +0.000 C 
BRANCH  18  19
ATOM     19  C   UNL     1       1.522  10.308  18.259  0.00  0.00    +0.000 A 
ATOM     20  C   UNL     1       2.477  11.258  17.876  0.00  0.00    +0.000 A 
ATOM     21  C   UNL     1       2.420  12.562  18.375  0.00  0.00    +0.000 A 
ATOM     22  C   UNL     1       1.400  12.933  19.251  0.00  0.00    +0.000 A 
ATOM     23  C   UNL     1       0.441  11.999  19.632  0.00  0.00    +0.000 A 
ATOM     24  C   UNL     1       0.506  10.691  19.148  0.00  0.00    +0.000 A 
ENDBRANCH  18  19
ENDBRANCH   3  18
TORSDOF 4
ENDMDL
MODEL 6
REMARK VINA RESULT:      -7.8      2.130      5.228
REMARK  Name = 
REMARK  4 active torsions:
REMARK  status: ('A' for Active; 'I' for Inactive)
REMARK    1  A    between atoms: C_3  and  C_4
REMARK    2  A    between atoms: C_4  and  C_5
REMARK    3  A    between atoms: C_11  and  C_12
REMARK    4  A    between atoms: N_18  and  C_19
REMARK                            x       y       z     vdW  Elec       q    Type
REMARK                         _______ _______ _______ _____ _____    ______ ____
ROOT
ATOM      1  O   UNL     1       1.587   7.917  20.814  0.00  0.00    +0.000 OA
ATOM      2  C   UNL     1       2.010   7.455  19.776  0.00  0.00    +0.000 C 
ATOM      3  C   UNL     1       2.505   8.061  18.449  0.00  0.00    +0.000 C 
ATOM      4  C   UNL     1       2.650   6.569  17.981  0.00  0.00    +0.000 C 
ATOM      5  N   UNL     1       2.233   6.196  19.337  0.00  0.00    +0.000 N 
ENDROOT
BRANCH   4   6
ATOM      6  C   UNL     1       4.084   6.112  17.476  0.00  0.00    +0.000 A 
ATOM      7  C   UNL     1       5.197   6.978  17.475  0.00  0.00    +0.000 A 
ATOM      8  C   UNL     1       6.440   6.587  16.971  0.00  0.00    +0.000 A 
ATOM      9  C   UNL     1       6.608   5.308  16.455  0.00  0.00    +0.000 A 
ATOM     10  C   UNL     1       5.544   4.413  16.471  0.00  0.00    +0.000 A 
ATOM     11  C   UNL     1       4.306   4.809  16.984  0.00  0.00    +0.000 A 
ENDBRANCH   4   6
BRANCH   5  12
ATOM     12  C   UNL     1       1.980   4.947  19.901  0.00  0.00    +0.000 A 
ATOM     13  C   UNL     1       2.453   4.629  21.179  0.00  0.00    +0.000 A 
ATOM     14  C   UNL     1       2.226   3.364  21.728  0.00  0.00    +0.000 A 
ATOM     15  C   UNL     1       1.553   2.395  20.989  0.00  0.00    +0.000 A 
ATOM     16  C   UNL     1       1.073   2.701  19.719  0.00  0.00    +0.000 A 
ATOM     17  C   UNL     1       1.262   3.979  19.190  0.00  0.00    +0.000 A 
ENDBRANCH   5  12
BRANCH   3  18
ATOM     18  C   UNL     1       1.475   8.958  17.784  0.00  0.00    +0.000 C 
BRANCH  18  19
ATOM     19  C   UNL     1       1.547  10.362  18.332  0.00  0.00    +0.000 A 
ATOM     20  C   UNL     1       0.691  10.772  19.362  0.00  0.00    +0.000 A 
ATOM     21  C   UNL     1       0.752  12.076  19.858  0.00  0.00    +0.000 A 
ATOM     22  C   UNL     1       1.679  12.980  19.340  0.00  0.00    +0.000 A 
ATOM     23  C   UNL     1       2.541  12.581  18.322  0.00  0.00    +0.000 A 
ATOM     24  C   UNL     1       2.469  11.283  17.813  0.00  0.00    +0.000 A 
ENDBRANCH  18  19
ENDBRANCH   3  18
TORSDOF 4
ENDMDL
MODEL 7
REMARK VINA RESULT:      -7.8      1.964      5.201
REMARK  Name = 
REMARK  4 active torsions:
REMARK  status: ('A' for Active; 'I' for Inactive)
REMARK    1  A    between atoms: C_3  and  C_4
REMARK    2  A    between atoms: C_4  and  C_5
REMARK    3  A    between atoms: C_11  and  C_12
REMARK    4  A    between atoms: N_18  and  C_19
REMARK                            x       y       z     vdW  Elec       q    Type
REMARK                         _______ _______ _______ _____ _____    ______ ____
ROOT
ATOM      1  O   UNL     1       1.798   7.810  20.661  0.00  0.00    +0.000 OA
ATOM      2  C   UNL     1       2.219   7.331  19.630  0.00  0.00    +0.000 C 
ATOM      3  C   UNL     1       2.608   7.904  18.255  0.00  0.00    +0.000 C 
ATOM      4  C   UNL     1       2.862   6.406  17.855  0.00  0.00    +0.000 C 
ATOM      5  N   UNL     1       2.532   6.073  19.245  0.00  0.00    +0.000 N 
ENDROOT
BRANCH   4   6
ATOM      6  C   UNL     1       4.310   6.045  17.312  0.00  0.00    +0.000 A 
ATOM      7  C   UNL     1       5.422   6.891  17.502  0.00  0.00    +0.000 A 
ATOM      8  C   UNL     1       6.678   6.595  16.968  0.00  0.00    +0.000 A 
ATOM      9  C   UNL     1       6.861   5.434  16.227  0.00  0.00    +0.000 A 
ATOM     10  C   UNL     1       5.798   4.557  16.048  0.00  0.00    +0.000 A 
ATOM     11  C   UNL     1       4.546   4.856  16.592  0.00  0.00    +0.000 A 
ENDBRANCH   4   6
BRANCH   5  12
ATOM     12  C   UNL     1       2.409   4.839  19.882  0.00  0.00    +0.000 A 
ATOM     13  C   UNL     1       3.515   3.993  20.024  0.00  0.00    +0.000 A 
ATOM     14  C   UNL     1       3.380   2.742  20.632  0.00  0.00    +0.000 A 
ATOM     15  C   UNL     1       2.130   2.313  21.072  0.00  0.00    +0.000 A 
ATOM     16  C   UNL     1       1.025   3.147  20.941  0.00  0.00    +0.000 A 
ATOM     17  C   UNL     1       1.170   4.415  20.373  0.00  0.00    +0.000 A 
ENDBRANCH   5  12
BRANCH   3  18
ATOM     18  C   UNL     1       1.480   8.675  17.590  0.00  0.00    +0.000 C 
BRANCH  18  19
ATOM     19  C   UNL     1       1.367  10.067  18.162  0.00  0.00    +0.000 A 
ATOM     20  C   UNL     1       2.364  11.020  17.922  0.00  0.00    +0.000 A 
ATOM     21  C   UNL     1       2.262  12.304  18.463  0.00  0.00    +0.000 A 
ATOM     22  C   UNL     1       1.157  12.652  19.238  0.00  0.00    +0.000 A 
ATOM     23  C   UNL     1       0.156  11.715  19.477  0.00  0.00    +0.000 A 
ATOM     24  C   UNL     1       0.264  10.426  18.951  0.00  0.00    +0.000 A 
ENDBRANCH  18  19
ENDBRANCH   3  18
TORSDOF 4
ENDMDL
MODEL 8
REMARK VINA RESULT:      -7.8      1.958      5.290
REMARK  Name = 
REMARK  4 active torsions:
REMARK  status: ('A' for Active; 'I' for Inactive)
REMARK    1  A    between atoms: C_3  and  C_4
REMARK    2  A    between atoms: C_4  and  C_5
REMARK    3  A    between atoms: C_11  and  C_12
REMARK    4  A    between atoms: N_18  and  C_19
REMARK                            x       y       z     vdW  Elec       q    Type
REMARK                         _______ _______ _______ _____ _____    ______ ____
ROOT
ATOM      1  O   UNL     1       1.810   7.746  20.710  0.00  0.00    +0.000 OA
ATOM      2  C   UNL     1       2.219   7.289  19.663  0.00  0.00    +0.000 C 
ATOM      3  C   UNL     1       2.603   7.894  18.301  0.00  0.00    +0.000 C 
ATOM      4  C   UNL     1       2.840   6.404  17.861  0.00  0.00    +0.000 C 
ATOM      5  N   UNL     1       2.518   6.039  19.245  0.00  0.00    +0.000 N 
ENDROOT
BRANCH   4   6
ATOM      6  C   UNL     1       4.281   6.044  17.298  0.00  0.00    +0.000 A 
ATOM      7  C   UNL     1       4.549   4.836  16.622  0.00  0.00    +0.000 A 
ATOM      8  C   UNL     1       5.832   4.500  16.184  0.00  0.00    +0.000 A 
ATOM      9  C   UNL     1       6.891   5.371  16.409  0.00  0.00    +0.000 A 
ATOM     10  C   UNL     1       6.661   6.587  17.042  0.00  0.00    +0.000 A 
ATOM     11  C   UNL     1       5.373   6.919  17.469  0.00  0.00    +0.000 A 
ENDBRANCH   4   6
BRANCH   5  12
ATOM     12  C   UNL     1       2.387   4.791  19.851  0.00  0.00    +0.000 A 
ATOM     13  C   UNL     1       1.145   4.349  20.320  0.00  0.00    +0.000 A 
ATOM     14  C   UNL     1       1.025   3.111  20.958  0.00  0.00    +0.000 A 
ATOM     15  C   UNL     1       2.153   2.320  21.162  0.00  0.00    +0.000 A 
ATOM     16  C   UNL     1       3.392   2.747  20.696  0.00  0.00    +0.000 A 
ATOM     17  C   UNL     1       3.503   3.964  20.019  0.00  0.00    +0.000 A 
ENDBRANCH   5  12
BRANCH   3  18
ATOM     18  C   UNL     1       1.478   8.692  17.664  0.00  0.00    +0.000 C 
BRANCH  18  19
ATOM     19  C   UNL     1       1.410  10.084  18.241  0.00  0.00    +0.000 A 
ATOM     20  C   UNL     1       0.388  10.442  19.127  0.00  0.00    +0.000 A 
ATOM     21  C   UNL     1       0.322  11.737  19.649  0.00  0.00    +0.000 A 
ATOM     22  C   UNL     1       1.285  12.682  19.301  0.00  0.00    +0.000 A 
ATOM     23  C   UNL     1       2.311  12.335  18.426  0.00  0.00    +0.000 A 
ATOM     24  C   UNL     1       2.369  11.047  17.890  0.00  0.00    +0.000 A 
ENDBRANCH  18  19
ENDBRANCH   3  18
TORSDOF 4
ENDMDL
MODEL 9
REMARK VINA RESULT:      -7.7      1.945      6.351
REMARK  Name = 
REMARK  4 active torsions:
REMARK  status: ('A' for Active; 'I' for Inactive)
REMARK    1  A    between atoms: C_3  and  C_4
REMARK    2  A    between atoms: C_4  and  C_5
REMARK    3  A    between atoms: C_11  and  C_12
REMARK    4  A    between atoms: N_18  and  C_19
REMARK                            x       y       z     vdW  Elec       q    Type
REMARK                         _______ _______ _______ _____ _____    ______ ____
ROOT
ATOM      1  O   UNL     1       3.094   8.415  16.929  0.00  0.00    +0.000 OA
ATOM      2  C   UNL     1       2.962   7.619  17.835  0.00  0.00    +0.000 C 
ATOM      3  C   UNL     1       1.982   7.483  19.015  0.00  0.00    +0.000 C 
ATOM      4  C   UNL     1       2.860   6.245  19.421  0.00  0.00    +0.000 C 
ATOM      5  N   UNL     1       3.626   6.499  18.196  0.00  0.00    +0.000 N 
ENDROOT
BRANCH   4   6
ATOM      6  C   UNL     1       2.111   4.853  19.572  0.00  0.00    +0.000 A 
ATOM      7  C   UNL     1       1.877   4.251  20.825  0.00  0.00    +0.000 A 
ATOM      8  C   UNL     1       1.272   2.998  20.945  0.00  0.00    +0.000 A 
ATOM      9  C   UNL     1       0.876   2.307  19.805  0.00  0.00    +0.000 A 
ATOM     10  C   UNL     1       1.058   2.883  18.553  0.00  0.00    +0.000 A 
ATOM     11  C   UNL     1       1.657   4.140  18.443  0.00  0.00    +0.000 A 
ENDBRANCH   4   6
BRANCH   5  12
ATOM     12  C   UNL     1       4.772   5.884  17.694  0.00  0.00    +0.000 A 
ATOM     13  C   UNL     1       4.684   4.924  16.679  0.00  0.00    +0.000 A 
ATOM     14  C   UNL     1       5.831   4.285  16.202  0.00  0.00    +0.000 A 
ATOM     15  C   UNL     1       7.074   4.576  16.760  0.00  0.00    +0.000 A 
ATOM     16  C   UNL     1       7.174   5.532  17.766  0.00  0.00    +0.000 A 
ATOM     17  C   UNL     1       6.033   6.202  18.211  0.00  0.00    +0.000 A 
ENDBRANCH   5  12
BRANCH   3  18
ATOM     18  C   UNL     1       1.956   8.708  19.912  0.00  0.00    +0.000 C 
BRANCH  18  19
ATOM     19  C   UNL     1       0.747   9.563  19.621  0.00  0.00    +0.000 A 
ATOM     20  C   UNL     1       0.157  10.333  20.631  0.00  0.00    +0.000 A 
ATOM     21  C   UNL     1      -0.970  11.114  20.360  0.00  0.00    +0.000 A 
ATOM     22  C   UNL     1      -1.509  11.144  19.076  0.00  0.00    +0.000 A 
ATOM     23  C   UNL     1      -0.926  10.388  18.062  0.00  0.00    +0.000 A 
ATOM     24  C   UNL     1       0.189   9.594  18.334  0.00  0.00    +0.000 A 
ENDBRANCH  18  19
ENDBRANCH   3  18
TORSDOF 4
ENDMDL
