MODEL 1
REMARK VINA RESULT:     -10.1      0.000      0.000
REMARK  Name = 
REMARK  6 active torsions:
REMARK  status: ('A' for Active; 'I' for Inactive)
REMARK    1  A    between atoms: S_2  and  N_4
REMARK    2  A    between atoms: S_2  and  C_29
REMARK    3  A    between atoms: N_4  and  C_5
REMARK    4  A    between atoms: C_10  and  N_11
REMARK    5  A    between atoms: N_11  and  C_12
REMARK    6  A    between atoms: C_17  and  C_18
REMARK                            x       y       z     vdW  Elec       q    Type
REMARK                         _______ _______ _______ _____ _____    ______ ____
ROOT
ATOM      1  C   UNL     1       0.813   9.012  19.762  0.00  0.00    +0.000 A 
ATOM      2  C   UNL     1       1.162   9.552  18.528  0.00  0.00    +0.000 A 
ATOM      3  C   UNL     1       2.128   8.919  17.752  0.00  0.00    +0.000 A 
ATOM      4  C   UNL     1       2.759   7.766  18.225  0.00  0.00    +0.000 A 
ATOM      5  F   UNL     1       3.590   7.141  17.376  0.00  0.00    +0.000 F 
ATOM      6  C   UNL     1       2.506   7.251  19.508  0.00  0.00    +0.000 A 
ATOM      7  C   UNL     1       1.464   7.857  20.233  0.00  0.00    +0.000 A 
ATOM      8  F   UNL     1       1.107   7.357  21.429  0.00  0.00    +0.000 F 
ENDROOT
BRANCH   1   9
ATOM      9  N   UNL     1      -0.275   9.618  20.485  0.00  0.00    +0.000 N 
ATOM     10  H   UNL     1      -0.932  10.105  19.869  0.00  0.00    +0.000 HD
BRANCH   9  12
ATOM     11  O   UNL     1       0.484  10.010  22.915  0.00  0.00    +0.000 OA
ATOM     12  S   UNL     1       0.234  10.732  21.682  0.00  0.00    +0.000 S 
ATOM     13  O   UNL     1       1.255  11.572  21.081  0.00  0.00    +0.000 OA
BRANCH  12  14
ATOM     14  C   UNL     1      -1.196  11.772  21.966  0.00  0.00    +0.000 A 
ATOM     15  C   UNL     1      -1.747  11.826  23.238  0.00  0.00    +0.000 A 
ATOM     16  C   UNL     1      -2.880  12.615  23.413  0.00  0.00    +0.000 A 
ATOM     17  C   UNL     1      -3.409  13.299  22.322  0.00  0.00    +0.000 A 
ATOM     18  C   UNL     1      -2.776  13.182  21.089  0.00  0.00    +0.000 A 
ATOM     19  N   UNL     1      -1.667  12.442  20.878  0.00  0.00    +0.000 NA
ENDBRANCH  12  14
ENDBRANCH   9  12
ENDBRANCH   1   9
BRANCH   6  20
ATOM     20  N   UNL     1       3.229   6.171  20.083  0.00  0.00    +0.000 N 
ATOM     21  H   UNL     1       3.435   6.311  21.073  0.00  0.00    +0.000 HD
BRANCH  20  22
ATOM     22  C   UNL     1       3.030   4.793  19.808  0.00  0.00    +0.000 A 
ATOM     23  N   UNL     1       1.831   4.254  20.159  0.00  0.00    +0.000 NA
ATOM     24  C   UNL     1       1.559   2.973  19.860  0.00  0.00    +0.000 A 
ATOM     25  C   UNL     1       2.405   2.177  19.131  0.00  0.00    +0.000 A 
ATOM     26  C   UNL     1       3.612   2.731  18.726  0.00  0.00    +0.000 A 
ATOM     27  C   UNL     1       3.974   4.057  19.057  0.00  0.00    +0.000 A 
BRANCH  27  28
ATOM     28  C   UNL     1       5.285   4.584  18.645  0.00  0.00    +0.000 A 
ATOM     29  N   UNL     1       6.112   5.122  19.600  0.00  0.00    +0.000 NA
ATOM     30  C   UNL     1       7.359   5.494  19.232  0.00  0.00    +0.000 A 
ATOM     31  N   UNL     1       7.931   5.413  18.015  0.00  0.00    +0.000 NA
ATOM     32  C   UNL     1       7.078   4.896  17.120  0.00  0.00    +0.000 A 
ATOM     33  N   UNL     1       7.333   4.653  15.802  0.00  0.00    +0.000 N 
ATOM     34  C   UNL     1       6.203   4.115  15.255  0.00  0.00    +0.000 A 
ATOM     35  N   UNL     1       5.244   3.992  16.146  0.00  0.00    +0.000 NA
ATOM     36  C   UNL     1       5.776   4.474  17.330  0.00  0.00    +0.000 A 
ATOM     37  H   UNL     1       8.209   4.831  15.334  0.00  0.00    +0.000 HD
ENDBRANCH  27  28
ENDBRANCH  20  22
ENDBRANCH   6  20
TORSDOF 6
ENDMDL
MODEL 2
REMARK VINA RESULT:      -9.9      1.625      2.011
REMARK  Name = 
REMARK  6 active torsions:
REMARK  status: ('A' for Active; 'I' for Inactive)
REMARK    1  A    between atoms: S_2  and  N_4
REMARK    2  A    between atoms: S_2  and  C_29
REMARK    3  A    between atoms: N_4  and  C_5
REMARK    4  A    between atoms: C_10  and  N_11
REMARK    5  A    between atoms: N_11  and  C_12
REMARK    6  A    between atoms: C_17  and  C_18
REMARK                            x       y       z     vdW  Elec       q    Type
REMARK                         _______ _______ _______ _____ _____    ______ ____
ROOT
ATOM      1  C   UNL     1       0.829   9.094  19.651  0.00  0.00    +0.000 A 
ATOM      2  C   UNL     1       1.269   9.623  18.442  0.00  0.00    +0.000 A 
ATOM      3  C   UNL     1       2.231   8.940  17.705  0.00  0.00    +0.000 A 
ATOM      4  C   UNL     1       2.767   7.746  18.192  0.00  0.00    +0.000 A 
ATOM      5  F   UNL     1       3.598   7.080  17.375  0.00  0.00    +0.000 F 
ATOM      6  C   UNL     1       2.423   7.236  19.455  0.00  0.00    +0.000 A 
ATOM      7  C   UNL     1       1.385   7.897  20.137  0.00  0.00    +0.000 A 
ATOM      8  F   UNL     1       0.943   7.408  21.309  0.00  0.00    +0.000 F 
ENDROOT
BRANCH   1   9
ATOM      9  N   UNL     1      -0.254   9.758  20.330  0.00  0.00    +0.000 N 
ATOM     10  H   UNL     1      -0.854  10.285  19.689  0.00  0.00    +0.000 HD
BRANCH   9  12
ATOM     11  O   UNL     1      -0.876  11.192  22.377  0.00  0.00    +0.000 OA
ATOM     12  S   UNL     1       0.265  10.836  21.556  0.00  0.00    +0.000 S 
ATOM     13  O   UNL     1       1.468  10.273  22.142  0.00  0.00    +0.000 OA
BRANCH  12  14
ATOM     14  C   UNL     1       0.757  12.316  20.675  0.00  0.00    +0.000 A 
ATOM     15  C   UNL     1      -0.075  12.817  19.684  0.00  0.00    +0.000 A 
ATOM     16  C   UNL     1       0.356  13.945  18.995  0.00  0.00    +0.000 A 
ATOM     17  C   UNL     1       1.588  14.511  19.316  0.00  0.00    +0.000 A 
ATOM     18  C   UNL     1       2.343  13.934  20.330  0.00  0.00    +0.000 A 
ATOM     19  N   UNL     1       1.957  12.849  21.036  0.00  0.00    +0.000 NA
ENDBRANCH  12  14
ENDBRANCH   9  12
ENDBRANCH   1   9
BRANCH   6  20
ATOM     20  N   UNL     1       3.050   6.108  20.050  0.00  0.00    +0.000 N 
ATOM     21  H   UNL     1       3.150   6.195  21.062  0.00  0.00    +0.000 HD
BRANCH  20  22
ATOM     22  C   UNL     1       2.848   4.751  19.685  0.00  0.00    +0.000 A 
ATOM     23  N   UNL     1       1.625   4.213  19.940  0.00  0.00    +0.000 NA
ATOM     24  C   UNL     1       1.352   2.956  19.553  0.00  0.00    +0.000 A 
ATOM     25  C   UNL     1       2.226   2.188  18.827  0.00  0.00    +0.000 A 
ATOM     26  C   UNL     1       3.461   2.744  18.519  0.00  0.00    +0.000 A 
ATOM     27  C   UNL     1       3.822   4.043  18.945  0.00  0.00    +0.000 A 
BRANCH  27  28
ATOM     28  C   UNL     1       5.161   4.571  18.636  0.00  0.00    +0.000 A 
ATOM     29  N   UNL     1       5.915   5.101  19.653  0.00  0.00    +0.000 NA
ATOM     30  C   UNL     1       7.186   5.474  19.381  0.00  0.00    +0.000 A 
ATOM     31  N   UNL     1       7.847   5.400  18.210  0.00  0.00    +0.000 NA
ATOM     32  C   UNL     1       7.062   4.891  17.250  0.00  0.00    +0.000 A 
ATOM     33  N   UNL     1       7.414   4.656  15.953  0.00  0.00    +0.000 N 
ATOM     34  C   UNL     1       6.327   4.123  15.319  0.00  0.00    +0.000 A 
ATOM     35  N   UNL     1       5.304   3.996  16.136  0.00  0.00    +0.000 NA
ATOM     36  C   UNL     1       5.747   4.470  17.360  0.00  0.00    +0.000 A 
ATOM     37  H   UNL     1       8.323   4.836  15.552  0.00  0.00    +0.000 HD
ENDBRANCH  27  28
ENDBRANCH  20  22
ENDBRANCH   6  20
TORSDOF 6
ENDMDL
MODEL 3
REMARK VINA RESULT:      -9.8      0.694      1.646
REMARK  Name = 
REMARK  6 active torsions:
REMARK  status: ('A' for Active; 'I' for Inactive)
REMARK    1  A    between atoms: S_2  and  N_4
REMARK    2  A    between atoms: S_2  and  C_29
REMARK    3  A    between atoms: N_4  and  C_5
REMARK    4  A    between atoms: C_10  and  N_11
REMARK    5  A    between atoms: N_11  and  C_12
REMARK    6  A    between atoms: C_17  and  C_18
REMARK                            x       y       z     vdW  Elec       q    Type
REMARK                         _______ _______ _______ _____ _____    ______ ____
ROOT
ATOM      1  C   UNL     1       0.886   8.673  20.110  0.00  0.00    +0.000 A 
ATOM      2  C   UNL     1       1.120   9.483  19.003  0.00  0.00    +0.000 A 
ATOM      3  C   UNL     1       2.040   9.080  18.041  0.00  0.00    +0.000 A 
ATOM      4  C   UNL     1       2.742   7.883  18.204  0.00  0.00    +0.000 A 
ATOM      5  F   UNL     1       3.522   7.496  17.182  0.00  0.00    +0.000 F 
ATOM      6  C   UNL     1       2.607   7.091  19.357  0.00  0.00    +0.000 A 
ATOM      7  C   UNL     1       1.607   7.476  20.269  0.00  0.00    +0.000 A 
ATOM      8  F   UNL     1       1.362   6.712  21.348  0.00  0.00    +0.000 F 
ENDROOT
BRANCH   1   9
ATOM      9  N   UNL     1      -0.160   9.055  21.023  0.00  0.00    +0.000 N 
ATOM     10  H   UNL     1      -1.020   9.332  20.541  0.00  0.00    +0.000 HD
BRANCH   9  12
ATOM     11  O   UNL     1       0.464   9.804  23.407  0.00  0.00    +0.000 OA
ATOM     12  S   UNL     1       0.281  10.337  22.071  0.00  0.00    +0.000 S 
ATOM     13  O   UNL     1       1.332  11.090  21.410  0.00  0.00    +0.000 OA
BRANCH  12  14
ATOM     14  C   UNL     1      -1.165  11.393  22.122  0.00  0.00    +0.000 A 
ATOM     15  C   UNL     1      -1.843  11.548  23.323  0.00  0.00    +0.000 A 
ATOM     16  C   UNL     1      -2.983  12.345  23.318  0.00  0.00    +0.000 A 
ATOM     17  C   UNL     1      -3.394  12.938  22.126  0.00  0.00    +0.000 A 
ATOM     18  C   UNL     1      -2.639  12.724  20.978  0.00  0.00    +0.000 A 
ATOM     19  N   UNL     1      -1.519  11.971  20.941  0.00  0.00    +0.000 NA
ENDBRANCH  12  14
ENDBRANCH   9  12
ENDBRANCH   1   9
BRANCH   6  20
ATOM     20  N   UNL     1       3.407   5.948  19.629  0.00  0.00    +0.000 N 
ATOM     21  H   UNL     1       3.809   5.956  20.567  0.00  0.00    +0.000 HD
BRANCH  20  22
ATOM     22  C   UNL     1       3.127   4.618  19.220  0.00  0.00    +0.000 A 
ATOM     23  N   UNL     1       2.046   4.009  19.778  0.00  0.00    +0.000 NA
ATOM     24  C   UNL     1       1.691   2.777  19.378  0.00  0.00    +0.000 A 
ATOM     25  C   UNL     1       2.318   2.109  18.358  0.00  0.00    +0.000 A 
ATOM     26  C   UNL     1       3.394   2.740  17.749  0.00  0.00    +0.000 A 
ATOM     27  C   UNL     1       3.845   4.015  18.163  0.00  0.00    +0.000 A 
BRANCH  27  28
ATOM     28  C   UNL     1       5.020   4.623  17.518  0.00  0.00    +0.000 A 
ATOM     29  N   UNL     1       5.006   4.810  16.158  0.00  0.00    +0.000 NA
ATOM     30  C   UNL     1       6.038   5.475  15.591  0.00  0.00    +0.000 A 
ATOM     31  N   UNL     1       7.123   6.001  16.191  0.00  0.00    +0.000 NA
ATOM     32  C   UNL     1       7.095   5.778  17.512  0.00  0.00    +0.000 A 
ATOM     33  N   UNL     1       8.021   6.189  18.425  0.00  0.00    +0.000 N 
ATOM     34  C   UNL     1       7.606   5.764  19.655  0.00  0.00    +0.000 A 
ATOM     35  N   UNL     1       6.466   5.112  19.584  0.00  0.00    +0.000 NA
ATOM     36  C   UNL     1       6.124   5.113  18.242  0.00  0.00    +0.000 A 
ATOM     37  H   UNL     1       8.851   6.723  18.215  0.00  0.00    +0.000 HD
ENDBRANCH  27  28
ENDBRANCH  20  22
ENDBRANCH   6  20
TORSDOF 6
ENDMDL
MODEL 4
REMARK VINA RESULT:      -9.6      1.428      2.271
REMARK  Name = 
REMARK  6 active torsions:
REMARK  status: ('A' for Active; 'I' for Inactive)
REMARK    1  A    between atoms: S_2  and  N_4
REMARK    2  A    between atoms: S_2  and  C_29
REMARK    3  A    between atoms: N_4  and  C_5
REMARK    4  A    between atoms: C_10  and  N_11
REMARK    5  A    between atoms: N_11  and  C_12
REMARK    6  A    between atoms: C_17  and  C_18
REMARK                            x       y       z     vdW  Elec       q    Type
REMARK                         _______ _______ _______ _____ _____    ______ ____
ROOT
ATOM      1  C   UNL     1       0.870   8.703  19.996  0.00  0.00    +0.000 A 
ATOM      2  C   UNL     1       1.130   9.492  18.879  0.00  0.00    +0.000 A 
ATOM      3  C   UNL     1       2.066   9.067  17.943  0.00  0.00    +0.000 A 
ATOM      4  C   UNL     1       2.757   7.869  18.140  0.00  0.00    +0.000 A 
ATOM      5  F   UNL     1       3.555   7.461  17.140  0.00  0.00    +0.000 F 
ATOM      6  C   UNL     1       2.596   7.099  19.304  0.00  0.00    +0.000 A 
ATOM      7  C   UNL     1       1.581   7.505  20.189  0.00  0.00    +0.000 A 
ATOM      8  F   UNL     1       1.311   6.762  21.277  0.00  0.00    +0.000 F 
ENDROOT
BRANCH   1   9
ATOM      9  N   UNL     1      -0.191   9.107  20.881  0.00  0.00    +0.000 N 
ATOM     10  H   UNL     1      -0.985   9.517  20.381  0.00  0.00    +0.000 HD
BRANCH   9  12
ATOM     11  O   UNL     1      -0.722  10.311  23.096  0.00  0.00    +0.000 OA
ATOM     12  S   UNL     1       0.304  10.232  22.074  0.00  0.00    +0.000 S 
ATOM     13  O   UNL     1       1.682   9.921  22.412  0.00  0.00    +0.000 OA
BRANCH  12  14
ATOM     14  C   UNL     1       0.319  11.810  21.225  0.00  0.00    +0.000 A 
ATOM     15  C   UNL     1      -0.836  12.242  20.589  0.00  0.00    +0.000 A 
ATOM     16  C   UNL     1      -0.778  13.453  19.908  0.00  0.00    +0.000 A 
ATOM     17  C   UNL     1       0.418  14.166  19.887  0.00  0.00    +0.000 A 
ATOM     18  C   UNL     1       1.517  13.648  20.562  0.00  0.00    +0.000 A 
ATOM     19  N   UNL     1       1.501  12.485  21.248  0.00  0.00    +0.000 NA
ENDBRANCH  12  14
ENDBRANCH   9  12
ENDBRANCH   1   9
BRANCH   6  20
ATOM     20  N   UNL     1       3.383   5.956  19.611  0.00  0.00    +0.000 N 
ATOM     21  H   UNL     1       3.754   5.971  20.562  0.00  0.00    +0.000 HD
BRANCH  20  22
ATOM     22  C   UNL     1       3.115   4.624  19.203  0.00  0.00    +0.000 A 
ATOM     23  N   UNL     1       2.035   4.008  19.755  0.00  0.00    +0.000 NA
ATOM     24  C   UNL     1       1.690   2.773  19.355  0.00  0.00    +0.000 A 
ATOM     25  C   UNL     1       2.328   2.108  18.340  0.00  0.00    +0.000 A 
ATOM     26  C   UNL     1       3.403   2.746  17.736  0.00  0.00    +0.000 A 
ATOM     27  C   UNL     1       3.843   4.024  18.151  0.00  0.00    +0.000 A 
BRANCH  27  28
ATOM     28  C   UNL     1       5.017   4.638  17.511  0.00  0.00    +0.000 A 
ATOM     29  N   UNL     1       5.003   4.840  16.154  0.00  0.00    +0.000 NA
ATOM     30  C   UNL     1       6.035   5.512  15.594  0.00  0.00    +0.000 A 
ATOM     31  N   UNL     1       7.120   6.030  16.198  0.00  0.00    +0.000 NA
ATOM     32  C   UNL     1       7.093   5.793  17.516  0.00  0.00    +0.000 A 
ATOM     33  N   UNL     1       8.020   6.194  18.433  0.00  0.00    +0.000 N 
ATOM     34  C   UNL     1       7.606   5.755  19.659  0.00  0.00    +0.000 A 
ATOM     35  N   UNL     1       6.466   5.105  19.582  0.00  0.00    +0.000 NA
ATOM     36  C   UNL     1       6.122   5.120  18.240  0.00  0.00    +0.000 A 
ATOM     37  H   UNL     1       8.850   6.730  18.229  0.00  0.00    +0.000 HD
ENDBRANCH  27  28
ENDBRANCH  20  22
ENDBRANCH   6  20
TORSDOF 6
ENDMDL
MODEL 5
REMARK VINA RESULT:      -9.4      1.644      2.479
REMARK  Name = 
REMARK  6 active torsions:
REMARK  status: ('A' for Active; 'I' for Inactive)
REMARK    1  A    between atoms: S_2  and  N_4
REMARK    2  A    between atoms: S_2  and  C_29
REMARK    3  A    between atoms: N_4  and  C_5
REMARK    4  A    between atoms: C_10  and  N_11
REMARK    5  A    between atoms: N_11  and  C_12
REMARK    6  A    between atoms: C_17  and  C_18
REMARK                            x       y       z     vdW  Elec       q    Type
REMARK                         _______ _______ _______ _____ _____    ______ ____
ROOT
ATOM      1  C   UNL     1       0.820   9.043  19.604  0.00  0.00    +0.000 A 
ATOM      2  C   UNL     1       1.173   9.566  18.363  0.00  0.00    +0.000 A 
ATOM      3  C   UNL     1       2.145   8.926  17.602  0.00  0.00    +0.000 A 
ATOM      4  C   UNL     1       2.779   7.783  18.095  0.00  0.00    +0.000 A 
ATOM      5  F   UNL     1       3.616   7.149  17.260  0.00  0.00    +0.000 F 
ATOM      6  C   UNL     1       2.523   7.287  19.385  0.00  0.00    +0.000 A 
ATOM      7  C   UNL     1       1.474   7.899  20.096  0.00  0.00    +0.000 A 
ATOM      8  F   UNL     1       1.114   7.416  21.298  0.00  0.00    +0.000 F 
ENDROOT
BRANCH   1   9
ATOM      9  N   UNL     1      -0.274   9.655  20.313  0.00  0.00    +0.000 N 
ATOM     10  H   UNL     1      -0.970  10.063  19.683  0.00  0.00    +0.000 HD
BRANCH   9  12
ATOM     11  O   UNL     1      -0.910  11.234  22.246  0.00  0.00    +0.000 OA
ATOM     12  S   UNL     1       0.217  10.882  21.404  0.00  0.00    +0.000 S 
ATOM     13  O   UNL     1       1.485  10.465  21.976  0.00  0.00    +0.000 OA
BRANCH  12  14
ATOM     14  C   UNL     1       0.556  12.300  20.362  0.00  0.00    +0.000 A 
ATOM     15  C   UNL     1       1.800  12.910  20.442  0.00  0.00    +0.000 A 
ATOM     16  C   UNL     1       2.015  14.031  19.647  0.00  0.00    +0.000 A 
ATOM     17  C   UNL     1       0.989  14.490  18.824  0.00  0.00    +0.000 A 
ATOM     18  C   UNL     1      -0.218  13.802  18.814  0.00  0.00    +0.000 A 
ATOM     19  N   UNL     1      -0.465  12.701  19.557  0.00  0.00    +0.000 NA
ENDBRANCH  12  14
ENDBRANCH   9  12
ENDBRANCH   1   9
BRANCH   6  20
ATOM     20  N   UNL     1       3.248   6.220  19.980  0.00  0.00    +0.000 N 
ATOM     21  H   UNL     1       3.710   6.487  20.849  0.00  0.00    +0.000 HD
BRANCH  20  22
ATOM     22  C   UNL     1       2.840   4.861  20.032  0.00  0.00    +0.000 A 
ATOM     23  N   UNL     1       1.847   4.541  20.905  0.00  0.00    +0.000 NA
ATOM     24  C   UNL     1       1.372   3.285  20.948  0.00  0.00    +0.000 A 
ATOM     25  C   UNL     1       1.780   2.298  20.088  0.00  0.00    +0.000 A 
ATOM     26  C   UNL     1       2.760   2.626  19.160  0.00  0.00    +0.000 A 
ATOM     27  C   UNL     1       3.333   3.917  19.104  0.00  0.00    +0.000 A 
BRANCH  27  28
ATOM     28  C   UNL     1       4.404   4.201  18.134  0.00  0.00    +0.000 A 
ATOM     29  N   UNL     1       4.156   4.008  16.798  0.00  0.00    +0.000 NA
ATOM     30  C   UNL     1       5.103   4.384  15.909  0.00  0.00    +0.000 A 
ATOM     31  N   UNL     1       6.304   4.941  16.153  0.00  0.00    +0.000 NA
ATOM     32  C   UNL     1       6.502   5.093  17.469  0.00  0.00    +0.000 A 
ATOM     33  N   UNL     1       7.598   5.643  18.068  0.00  0.00    +0.000 N 
ATOM     34  C   UNL     1       7.389   5.617  19.418  0.00  0.00    +0.000 A 
ATOM     35  N   UNL     1       6.222   5.089  19.717  0.00  0.00    +0.000 NA
ATOM     36  C   UNL     1       5.644   4.757  18.504  0.00  0.00    +0.000 A 
ATOM     37  H   UNL     1       8.403   6.012  17.586  0.00  0.00    +0.000 HD
ENDBRANCH  27  28
ENDBRANCH  20  22
ENDBRANCH   6  20
TORSDOF 6
ENDMDL
MODEL 6
REMARK VINA RESULT:      -9.3      1.082      1.418
REMARK  Name = 
REMARK  6 active torsions:
REMARK  status: ('A' for Active; 'I' for Inactive)
REMARK    1  A    between atoms: S_2  and  N_4
REMARK    2  A    between atoms: S_2  and  C_29
REMARK    3  A    between atoms: N_4  and  C_5
REMARK    4  A    between atoms: C_10  and  N_11
REMARK    5  A    between atoms: N_11  and  C_12
REMARK    6  A    between atoms: C_17  and  C_18
REMARK                            x       y       z     vdW  Elec       q    Type
REMARK                         _______ _______ _______ _____ _____    ______ ____
ROOT
ATOM      1  C   UNL     1       1.136   9.310  19.740  0.00  0.00    +0.000 A 
ATOM      2  C   UNL     1       1.470   9.726  18.454  0.00  0.00    +0.000 A 
ATOM      3  C   UNL     1       2.240   8.897  17.645  0.00  0.00    +0.000 A 
ATOM      4  C   UNL     1       2.696   7.670  18.133  0.00  0.00    +0.000 A 
ATOM      5  F   UNL     1       3.330   6.871  17.261  0.00  0.00    +0.000 F 
ATOM      6  C   UNL     1       2.466   7.264  19.459  0.00  0.00    +0.000 A 
ATOM      7  C   UNL     1       1.611   8.078  20.224  0.00  0.00    +0.000 A 
ATOM      8  F   UNL     1       1.274   7.701  21.470  0.00  0.00    +0.000 F 
ENDROOT
BRANCH   1   9
ATOM      9  N   UNL     1       0.236  10.132  20.507  0.00  0.00    +0.000 N 
ATOM     10  H   UNL     1      -0.438   9.579  21.044  0.00  0.00    +0.000 HD
BRANCH   9  12
ATOM     11  O   UNL     1       0.235  12.322  19.152  0.00  0.00    +0.000 OA
ATOM     12  S   UNL     1      -0.651  11.247  19.557  0.00  0.00    +0.000 S 
ATOM     13  O   UNL     1      -1.399  10.479  18.578  0.00  0.00    +0.000 OA
BRANCH  12  14
ATOM     14  C   UNL     1      -1.846  11.953  20.690  0.00  0.00    +0.000 A 
ATOM     15  C   UNL     1      -2.955  12.608  20.176  0.00  0.00    +0.000 A 
ATOM     16  C   UNL     1      -3.842  13.176  21.084  0.00  0.00    +0.000 A 
ATOM     17  C   UNL     1      -3.581  13.072  22.449  0.00  0.00    +0.000 A 
ATOM     18  C   UNL     1      -2.442  12.388  22.860  0.00  0.00    +0.000 A 
ATOM     19  N   UNL     1      -1.563  11.808  22.014  0.00  0.00    +0.000 NA
ENDBRANCH  12  14
ENDBRANCH   9  12
ENDBRANCH   1   9
BRANCH   6  20
ATOM     20  N   UNL     1       3.033   6.097  20.038  0.00  0.00    +0.000 N 
ATOM     21  H   UNL     1       3.115   6.155  21.053  0.00  0.00    +0.000 HD
BRANCH  20  22
ATOM     22  C   UNL     1       2.782   4.759  19.636  0.00  0.00    +0.000 A 
ATOM     23  N   UNL     1       1.534   4.265  19.859  0.00  0.00    +0.000 NA
ATOM     24  C   UNL     1       1.217   3.030  19.437  0.00  0.00    +0.000 A 
ATOM     25  C   UNL     1       2.070   2.246  18.703  0.00  0.00    +0.000 A 
ATOM     26  C   UNL     1       3.330   2.759  18.428  0.00  0.00    +0.000 A 
ATOM     27  C   UNL     1       3.737   4.031  18.892  0.00  0.00    +0.000 A 
BRANCH  27  28
ATOM     28  C   UNL     1       5.100   4.511  18.615  0.00  0.00    +0.000 A 
ATOM     29  N   UNL     1       5.864   4.976  19.656  0.00  0.00    +0.000 NA
ATOM     30  C   UNL     1       7.153   5.304  19.411  0.00  0.00    +0.000 A 
ATOM     31  N   UNL     1       7.824   5.240  18.246  0.00  0.00    +0.000 NA
ATOM     32  C   UNL     1       7.031   4.796  17.261  0.00  0.00    +0.000 A 
ATOM     33  N   UNL     1       7.389   4.589  15.961  0.00  0.00    +0.000 N 
ATOM     34  C   UNL     1       6.288   4.124  15.298  0.00  0.00    +0.000 A 
ATOM     35  N   UNL     1       5.251   4.013  16.099  0.00  0.00    +0.000 NA
ATOM     36  C   UNL     1       5.698   4.427  17.342  0.00  0.00    +0.000 A 
ATOM     37  H   UNL     1       8.309   4.744  15.576  0.00  0.00    +0.000 HD
ENDBRANCH  27  28
ENDBRANCH  20  22
ENDBRANCH   6  20
TORSDOF 6
ENDMDL
MODEL 7
REMARK VINA RESULT:      -9.3      1.794      2.153
REMARK  Name = 
REMARK  6 active torsions:
REMARK  status: ('A' for Active; 'I' for Inactive)
REMARK    1  A    between atoms: S_2  and  N_4
REMARK    2  A    between atoms: S_2  and  C_29
REMARK    3  A    between atoms: N_4  and  C_5
REMARK    4  A    between atoms: C_10  and  N_11
REMARK    5  A    between atoms: N_11  and  C_12
REMARK    6  A    between atoms: C_17  and  C_18
REMARK                            x       y       z     vdW  Elec       q    Type
REMARK                         _______ _______ _______ _____ _____    ______ ____
ROOT
ATOM      1  C   UNL     1       1.042   9.180  19.718  0.00  0.00    +0.000 A 
ATOM      2  C   UNL     1       1.362   9.563  18.418  0.00  0.00    +0.000 A 
ATOM      3  C   UNL     1       2.181   8.746  17.646  0.00  0.00    +0.000 A 
ATOM      4  C   UNL     1       2.697   7.565  18.184  0.00  0.00    +0.000 A 
ATOM      5  F   UNL     1       3.378   6.766  17.347  0.00  0.00    +0.000 F 
ATOM      6  C   UNL     1       2.479   7.199  19.523  0.00  0.00    +0.000 A 
ATOM      7  C   UNL     1       1.578   7.995  20.252  0.00  0.00    +0.000 A 
ATOM      8  F   UNL     1       1.253   7.650  21.511  0.00  0.00    +0.000 F 
ENDROOT
BRANCH   1   9
ATOM      9  N   UNL     1       0.095   9.983  20.448  0.00  0.00    +0.000 N 
ATOM     10  H   UNL     1      -0.785   9.489  20.622  0.00  0.00    +0.000 HD
BRANCH   9  12
ATOM     11  O   UNL     1      -0.561  12.461  20.693  0.00  0.00    +0.000 OA
ATOM     12  S   UNL     1      -0.286  11.464  19.677  0.00  0.00    +0.000 S 
ATOM     13  O   UNL     1       0.720  11.687  18.654  0.00  0.00    +0.000 OA
BRANCH  12  14
ATOM     14  C   UNL     1      -1.831  11.144  18.827  0.00  0.00    +0.000 A 
ATOM     15  C   UNL     1      -1.875  10.143  17.867  0.00  0.00    +0.000 A 
ATOM     16  C   UNL     1      -3.080   9.946  17.201  0.00  0.00    +0.000 A 
ATOM     17  C   UNL     1      -4.171  10.754  17.513  0.00  0.00    +0.000 A 
ATOM     18  C   UNL     1      -4.023  11.726  18.496  0.00  0.00    +0.000 A 
ATOM     19  N   UNL     1      -2.877  11.940  19.179  0.00  0.00    +0.000 NA
ENDBRANCH  12  14
ENDBRANCH   9  12
ENDBRANCH   1   9
BRANCH   6  20
ATOM     20  N   UNL     1       3.104   6.087  20.150  0.00  0.00    +0.000 N 
ATOM     21  H   UNL     1       3.195   6.198  21.161  0.00  0.00    +0.000 HD
BRANCH  20  22
ATOM     22  C   UNL     1       2.906   4.721  19.817  0.00  0.00    +0.000 A 
ATOM     23  N   UNL     1       1.694   4.178  20.110  0.00  0.00    +0.000 NA
ATOM     24  C   UNL     1       1.425   2.911  19.754  0.00  0.00    +0.000 A 
ATOM     25  C   UNL     1       2.289   2.136  19.023  0.00  0.00    +0.000 A 
ATOM     26  C   UNL     1       3.511   2.697  18.677  0.00  0.00    +0.000 A 
ATOM     27  C   UNL     1       3.869   4.008  19.069  0.00  0.00    +0.000 A 
BRANCH  27  28
ATOM     28  C   UNL     1       5.195   4.541  18.719  0.00  0.00    +0.000 A 
ATOM     29  N   UNL     1       5.974   5.085  19.710  0.00  0.00    +0.000 NA
ATOM     30  C   UNL     1       7.235   5.463  19.400  0.00  0.00    +0.000 A 
ATOM     31  N   UNL     1       7.864   5.384  18.212  0.00  0.00    +0.000 NA
ATOM     32  C   UNL     1       7.057   4.861  17.279  0.00  0.00    +0.000 A 
ATOM     33  N   UNL     1       7.374   4.618  15.975  0.00  0.00    +0.000 N 
ATOM     34  C   UNL     1       6.274   4.073  15.375  0.00  0.00    +0.000 A 
ATOM     35  N   UNL     1       5.275   3.946  16.221  0.00  0.00    +0.000 NA
ATOM     36  C   UNL     1       5.748   4.433  17.428  0.00  0.00    +0.000 A 
ATOM     37  H   UNL     1       8.270   4.800  15.547  0.00  0.00    +0.000 HD
ENDBRANCH  27  28
ENDBRANCH  20  22
ENDBRANCH   6  20
TORSDOF 6
ENDMDL
MODEL 8
REMARK VINA RESULT:      -9.1      1.978      2.526
REMARK  Name = 
REMARK  6 active torsions:
REMARK  status: ('A' for Active; 'I' for Inactive)
REMARK    1  A    between atoms: S_2  and  N_4
REMARK    2  A    between atoms: S_2  and  C_29
REMARK    3  A    between atoms: N_4  and  C_5
REMARK    4  A    between atoms: C_10  and  N_11
REMARK    5  A    between atoms: N_11  and  C_12
REMARK    6  A    between atoms: C_17  and  C_18
REMARK                            x       y       z     vdW  Elec       q    Type
REMARK                         _______ _______ _______ _____ _____    ______ ____
ROOT
ATOM      1  C   UNL     1       1.054   9.191  19.886  0.00  0.00    +0.000 A 
ATOM      2  C   UNL     1       1.343   9.621  18.594  0.00  0.00    +0.000 A 
ATOM      3  C   UNL     1       2.120   8.820  17.763  0.00  0.00    +0.000 A 
ATOM      4  C   UNL     1       2.625   7.606  18.236  0.00  0.00    +0.000 A 
ATOM      5  F   UNL     1       3.262   6.830  17.345  0.00  0.00    +0.000 F 
ATOM      6  C   UNL     1       2.440   7.189  19.565  0.00  0.00    +0.000 A 
ATOM      7  C   UNL     1       1.579   7.973  20.354  0.00  0.00    +0.000 A 
ATOM      8  F   UNL     1       1.284   7.582  21.607  0.00  0.00    +0.000 F 
ENDROOT
BRANCH   1   9
ATOM      9  N   UNL     1       0.148   9.982  20.678  0.00  0.00    +0.000 N 
ATOM     10  H   UNL     1      -0.631   9.431  21.049  0.00  0.00    +0.000 HD
BRANCH   9  12
ATOM     11  O   UNL     1      -0.819  10.900  18.475  0.00  0.00    +0.000 OA
ATOM     12  S   UNL     1      -0.517  11.314  19.831  0.00  0.00    +0.000 S 
ATOM     13  O   UNL     1      -1.536  11.900  20.685  0.00  0.00    +0.000 OA
BRANCH  12  14
ATOM     14  C   UNL     1       0.823  12.498  19.732  0.00  0.00    +0.000 A 
ATOM     15  C   UNL     1       1.061  13.145  18.527  0.00  0.00    +0.000 A 
ATOM     16  C   UNL     1       2.133  14.029  18.475  0.00  0.00    +0.000 A 
ATOM     17  C   UNL     1       2.915  14.220  19.613  0.00  0.00    +0.000 A 
ATOM     18  C   UNL     1       2.587  13.527  20.772  0.00  0.00    +0.000 A 
ATOM     19  N   UNL     1       1.547  12.672  20.871  0.00  0.00    +0.000 NA
ENDBRANCH  12  14
ENDBRANCH   9  12
ENDBRANCH   1   9
BRANCH   6  20
ATOM     20  N   UNL     1       3.058   6.039  20.126  0.00  0.00    +0.000 N 
ATOM     21  H   UNL     1       3.153   6.092  21.140  0.00  0.00    +0.000 HD
BRANCH  20  22
ATOM     22  C   UNL     1       2.849   4.696  19.716  0.00  0.00    +0.000 A 
ATOM     23  N   UNL     1       1.626   4.152  19.964  0.00  0.00    +0.000 NA
ATOM     24  C   UNL     1       1.347   2.910  19.537  0.00  0.00    +0.000 A 
ATOM     25  C   UNL     1       2.211   2.165  18.776  0.00  0.00    +0.000 A 
ATOM     26  C   UNL     1       3.444   2.729  18.476  0.00  0.00    +0.000 A 
ATOM     27  C   UNL     1       3.813   4.012  18.943  0.00  0.00    +0.000 A 
BRANCH  27  28
ATOM     28  C   UNL     1       5.150   4.546  18.639  0.00  0.00    +0.000 A 
ATOM     29  N   UNL     1       5.901   5.073  19.660  0.00  0.00    +0.000 NA
ATOM     30  C   UNL     1       7.171   5.452  19.393  0.00  0.00    +0.000 A 
ATOM     31  N   UNL     1       7.833   5.389  18.222  0.00  0.00    +0.000 NA
ATOM     32  C   UNL     1       7.052   4.883  17.258  0.00  0.00    +0.000 A 
ATOM     33  N   UNL     1       7.406   4.659  15.960  0.00  0.00    +0.000 N 
ATOM     34  C   UNL     1       6.322   4.126  15.321  0.00  0.00    +0.000 A 
ATOM     35  N   UNL     1       5.299   3.990  16.135  0.00  0.00    +0.000 NA
ATOM     36  C   UNL     1       5.739   4.456  17.363  0.00  0.00    +0.000 A 
ATOM     37  H   UNL     1       8.315   4.845  15.561  0.00  0.00    +0.000 HD
ENDBRANCH  27  28
ENDBRANCH  20  22
ENDBRANCH   6  20
TORSDOF 6
ENDMDL
MODEL 9
REMARK VINA RESULT:      -9.1      2.190      2.852
REMARK  Name = 
REMARK  6 active torsions:
REMARK  status: ('A' for Active; 'I' for Inactive)
REMARK    1  A    between atoms: S_2  and  N_4
REMARK    2  A    between atoms: S_2  and  C_29
REMARK    3  A    between atoms: N_4  and  C_5
REMARK    4  A    between atoms: C_10  and  N_11
REMARK    5  A    between atoms: N_11  and  C_12
REMARK    6  A    between atoms: C_17  and  C_18
REMARK                            x       y       z     vdW  Elec       q    Type
REMARK                         _______ _______ _______ _____ _____    ______ ____
ROOT
ATOM      1  C   UNL     1       1.276   9.350  19.402  0.00  0.00    +0.000 A 
ATOM      2  C   UNL     1       1.048   9.018  20.734  0.00  0.00    +0.000 A 
ATOM      3  C   UNL     1       1.404   7.755  21.195  0.00  0.00    +0.000 A 
ATOM      4  C   UNL     1       1.962   6.822  20.318  0.00  0.00    +0.000 A 
ATOM      5  F   UNL     1       2.393   5.670  20.856  0.00  0.00    +0.000 F 
ATOM      6  C   UNL     1       2.111   7.086  18.946  0.00  0.00    +0.000 A 
ATOM      7  C   UNL     1       1.827   8.398  18.525  0.00  0.00    +0.000 A 
ATOM      8  F   UNL     1       2.036   8.745  17.243  0.00  0.00    +0.000 F 
ENDROOT
BRANCH   1   9
ATOM      9  N   UNL     1       1.011  10.703  18.984  0.00  0.00    +0.000 N 
ATOM     10  H   UNL     1       1.777  11.342  19.217  0.00  0.00    +0.000 HD
BRANCH   9  12
ATOM     11  O   UNL     1      -0.771  10.607  20.841  0.00  0.00    +0.000 OA
ATOM     12  S   UNL     1      -0.427  11.355  19.647  0.00  0.00    +0.000 S 
ATOM     13  O   UNL     1      -0.268  12.798  19.682  0.00  0.00    +0.000 OA
BRANCH  12  14
ATOM     14  C   UNL     1      -1.687  10.998  18.425  0.00  0.00    +0.000 A 
ATOM     15  C   UNL     1      -1.411  10.079  17.423  0.00  0.00    +0.000 A 
ATOM     16  C   UNL     1      -2.398   9.854  16.470  0.00  0.00    +0.000 A 
ATOM     17  C   UNL     1      -3.600  10.554  16.555  0.00  0.00    +0.000 A 
ATOM     18  C   UNL     1      -3.778  11.449  17.603  0.00  0.00    +0.000 A 
ATOM     19  N   UNL     1      -2.854  11.687  18.558  0.00  0.00    +0.000 NA
ENDBRANCH  12  14
ENDBRANCH   9  12
ENDBRANCH   1   9
BRANCH   6  20
ATOM     20  N   UNL     1       2.535   6.118  17.996  0.00  0.00    +0.000 N 
ATOM     21  H   UNL     1       3.356   6.412  17.466  0.00  0.00    +0.000 HD
BRANCH  20  22
ATOM     22  C   UNL     1       2.544   4.711  18.185  0.00  0.00    +0.000 A 
ATOM     23  N   UNL     1       1.340   4.092  18.311  0.00  0.00    +0.000 NA
ATOM     24  C   UNL     1       1.282   2.754  18.421  0.00  0.00    +0.000 A 
ATOM     25  C   UNL     1       2.386   1.946  18.332  0.00  0.00    +0.000 A 
ATOM     26  C   UNL     1       3.617   2.564  18.156  0.00  0.00    +0.000 A 
ATOM     27  C   UNL     1       3.743   3.970  18.086  0.00  0.00    +0.000 A 
BRANCH  27  28
ATOM     28  C   UNL     1       5.075   4.581  17.947  0.00  0.00    +0.000 A 
ATOM     29  N   UNL     1       5.678   5.116  19.058  0.00  0.00    +0.000 NA
ATOM     30  C   UNL     1       6.948   5.567  18.944  0.00  0.00    +0.000 A 
ATOM     31  N   UNL     1       7.739   5.570  17.855  0.00  0.00    +0.000 NA
ATOM     32  C   UNL     1       7.099   5.053  16.798  0.00  0.00    +0.000 A 
ATOM     33  N   UNL     1       7.608   4.884  15.543  0.00  0.00    +0.000 N 
ATOM     34  C   UNL     1       6.632   4.315  14.774  0.00  0.00    +0.000 A 
ATOM     35  N   UNL     1       5.533   4.104  15.464  0.00  0.00    +0.000 NA
ATOM     36  C   UNL     1       5.807   4.557  16.744  0.00  0.00    +0.000 A 
ATOM     37  H   UNL     1       8.544   5.127  15.254  0.00  0.00    +0.000 HD
ENDBRANCH  27  28
ENDBRANCH  20  22
ENDBRANCH   6  20
TORSDOF 6
ENDMDL
