MODEL 1
REMARK VINA RESULT:      -7.5      0.000      0.000
REMARK  Name = 
REMARK  0 active torsions:
REMARK  status: ('A' for Active; 'I' for Inactive)
REMARK                            x       y       z     vdW  Elec       q    Type
REMARK                         _______ _______ _______ _____ _____    ______ ____
ROOT
ATOM      1  O   UNL     1       7.466   5.214  20.352  0.00  0.00    +0.000 OA
ATOM      2  C   UNL     1       6.859   5.581  19.362  0.00  0.00    +0.000 C 
ATOM      3  C   UNL     1       7.607   6.099  18.146  0.00  0.00    +0.000 C 
ATOM      4  C   UNL     1       6.801   6.385  16.889  0.00  0.00    +0.000 C 
ATOM      5  C   UNL     1       6.153   5.119  16.324  0.00  0.00    +0.000 C 
ATOM      6  C   UNL     1       4.981   4.693  17.157  0.00  0.00    +0.000 A 
ATOM      7  S   UNL     1       3.866   3.498  16.594  0.00  0.00    +0.000 S 
ATOM      8  C   UNL     1       2.863   3.707  17.965  0.00  0.00    +0.000 A 
ATOM      9  C   UNL     1       3.259   4.818  18.658  0.00  0.00    +0.000 A 
ATOM     10  C   UNL     1       4.644   5.078  18.435  0.00  0.00    +0.000 A 
ATOM     11  N   UNL     1       5.487   5.640  19.397  0.00  0.00    +0.000 N 
ATOM     12  C   UNL     1       2.328   5.471  19.613  0.00  0.00    +0.000 C 
ATOM     13  C   UNL     1       2.342   4.753  20.943  0.00  0.00    +0.000 C 
ATOM     14  C   UNL     1       1.314   3.624  20.913  0.00  0.00    +0.000 C 
ATOM     15  C   UNL     1       1.351   2.581  19.760  0.00  0.00    +0.000 C 
ATOM     16  C   UNL     1       1.610   2.918  18.255  0.00  0.00    +0.000 C 
ATOM     17  H   UNL     1       5.144   5.487  20.337  0.00  0.00    +0.000 HD
ENDROOT
TORSDOF 0
ENDMDL
MODEL 2
REMARK VINA RESULT:      -7.4      2.188      5.074
REMARK  Name = 
REMARK  0 active torsions:
REMARK  status: ('A' for Active; 'I' for Inactive)
REMARK                            x       y       z     vdW  Elec       q    Type
REMARK                         _______ _______ _______ _____ _____    ______ ____
ROOT
ATOM      1  O   UNL     1       4.858   1.933  21.117  0.00  0.00    +0.000 OA
ATOM      2  C   UNL     1       3.837   2.405  20.652  0.00  0.00    +0.000 C 
ATOM      3  C   UNL     1       2.537   2.356  21.435  0.00  0.00    +0.000 C 
ATOM      4  C   UNL     1       1.342   3.106  20.869  0.00  0.00    +0.000 C 
ATOM      5  C   UNL     1       1.592   4.614  20.800  0.00  0.00    +0.000 C 
ATOM      6  C   UNL     1       2.525   4.956  19.677  0.00  0.00    +0.000 A 
ATOM      7  S   UNL     1       2.739   6.590  19.154  0.00  0.00    +0.000 S 
ATOM      8  C   UNL     1       3.759   6.103  17.868  0.00  0.00    +0.000 A 
ATOM      9  C   UNL     1       3.703   4.744  17.728  0.00  0.00    +0.000 A 
ATOM     10  C   UNL     1       3.366   4.127  18.969  0.00  0.00    +0.000 A 
ATOM     11  N   UNL     1       3.838   2.872  19.359  0.00  0.00    +0.000 N 
ATOM     12  C   UNL     1       4.127   4.108  16.454  0.00  0.00    +0.000 C 
ATOM     13  C   UNL     1       5.630   3.955  16.413  0.00  0.00    +0.000 C 
ATOM     14  C   UNL     1       6.247   5.228  15.834  0.00  0.00    +0.000 C 
ATOM     15  C   UNL     1       5.884   6.608  16.451  0.00  0.00    +0.000 C 
ATOM     16  C   UNL     1       4.449   7.036  16.904  0.00  0.00    +0.000 C 
ATOM     17  H   UNL     1       4.703   2.631  18.891  0.00  0.00    +0.000 HD
ENDROOT
TORSDOF 0
ENDMDL
MODEL 3
REMARK VINA RESULT:      -7.4      2.267      2.871
REMARK  Name = 
REMARK  0 active torsions:
REMARK  status: ('A' for Active; 'I' for Inactive)
REMARK                            x       y       z     vdW  Elec       q    Type
REMARK                         _______ _______ _______ _____ _____    ______ ____
ROOT
ATOM      1  O   UNL     1       6.072   3.509  14.630  0.00  0.00    +0.000 OA
ATOM      2  C   UNL     1       6.223   4.158  15.648  0.00  0.00    +0.000 C 
ATOM      3  C   UNL     1       7.164   5.350  15.672  0.00  0.00    +0.000 C 
ATOM      4  C   UNL     1       7.181   6.213  16.923  0.00  0.00    +0.000 C 
ATOM      5  C   UNL     1       5.832   6.893  17.169  0.00  0.00    +0.000 C 
ATOM      6  C   UNL     1       4.818   5.914  17.679  0.00  0.00    +0.000 A 
ATOM      7  S   UNL     1       3.314   6.444  18.345  0.00  0.00    +0.000 S 
ATOM      8  C   UNL     1       2.874   4.846  18.769  0.00  0.00    +0.000 A 
ATOM      9  C   UNL     1       3.954   4.020  18.627  0.00  0.00    +0.000 A 
ATOM     10  C   UNL     1       4.854   4.538  17.648  0.00  0.00    +0.000 A 
ATOM     11  N   UNL     1       5.631   3.732  16.814  0.00  0.00    +0.000 N 
ATOM     12  C   UNL     1       3.986   2.707  19.322  0.00  0.00    +0.000 C 
ATOM     13  C   UNL     1       3.212   1.673  18.537  0.00  0.00    +0.000 C 
ATOM     14  C   UNL     1       1.745   1.718  18.961  0.00  0.00    +0.000 C 
ATOM     15  C   UNL     1       0.977   3.070  18.934  0.00  0.00    +0.000 C 
ATOM     16  C   UNL     1       1.565   4.442  19.402  0.00  0.00    +0.000 C 
ATOM     17  H   UNL     1       5.231   2.810  16.696  0.00  0.00    +0.000 HD
ENDROOT
TORSDOF 0
ENDMDL
MODEL 4
REMARK VINA RESULT:      -7.0      2.317      5.414
REMARK  Name = 
REMARK  0 active torsions:
REMARK  status: ('A' for Active; 'I' for Inactive)
REMARK                            x       y       z     vdW  Elec       q    Type
REMARK                         _______ _______ _______ _____ _____    ______ ____
ROOT
ATOM      1  O   UNL     1       4.073   0.838  19.011  0.00  0.00    +0.000 OA
ATOM      2  C   UNL     1       3.323   1.693  18.578  0.00  0.00    +0.000 C 
ATOM      3  C   UNL     1       1.865   1.728  19.003  0.00  0.00    +0.000 C 
ATOM      4  C   UNL     1       1.026   2.914  18.555  0.00  0.00    +0.000 C 
ATOM      5  C   UNL     1       1.540   4.232  19.138  0.00  0.00    +0.000 C 
ATOM      6  C   UNL     1       2.797   4.674  18.451  0.00  0.00    +0.000 A 
ATOM      7  S   UNL     1       3.427   6.269  18.670  0.00  0.00    +0.000 S 
ATOM      8  C   UNL     1       4.671   5.995  17.526  0.00  0.00    +0.000 A 
ATOM      9  C   UNL     1       4.425   4.831  16.852  0.00  0.00    +0.000 A 
ATOM     10  C   UNL     1       3.649   3.942  17.655  0.00  0.00    +0.000 A 
ATOM     11  N   UNL     1       3.770   2.552  17.603  0.00  0.00    +0.000 N 
ATOM     12  C   UNL     1       5.079   4.575  15.543  0.00  0.00    +0.000 C 
ATOM     13  C   UNL     1       6.483   4.052  15.744  0.00  0.00    +0.000 C 
ATOM     14  C   UNL     1       7.446   5.233  15.850  0.00  0.00    +0.000 C 
ATOM     15  C   UNL     1       7.164   6.366  16.876  0.00  0.00    +0.000 C 
ATOM     16  C   UNL     1       5.755   6.980  17.167  0.00  0.00    +0.000 C 
ATOM     17  H   UNL     1       4.678   2.263  17.260  0.00  0.00    +0.000 HD
ENDROOT
TORSDOF 0
ENDMDL
MODEL 5
REMARK VINA RESULT:      -7.0      1.342      1.791
REMARK  Name = 
REMARK  0 active torsions:
REMARK  status: ('A' for Active; 'I' for Inactive)
REMARK                            x       y       z     vdW  Elec       q    Type
REMARK                         _______ _______ _______ _____ _____    ______ ____
ROOT
ATOM      1  O   UNL     1       7.404   6.553  18.393  0.00  0.00    +0.000 OA
ATOM      2  C   UNL     1       6.661   6.156  17.514  0.00  0.00    +0.000 C 
ATOM      3  C   UNL     1       7.226   5.621  16.209  0.00  0.00    +0.000 C 
ATOM      4  C   UNL     1       6.255   4.992  15.223  0.00  0.00    +0.000 C 
ATOM      5  C   UNL     1       5.589   3.739  15.796  0.00  0.00    +0.000 C 
ATOM      6  C   UNL     1       4.551   4.096  16.817  0.00  0.00    +0.000 A 
ATOM      7  S   UNL     1       3.421   2.924  17.397  0.00  0.00    +0.000 S 
ATOM      8  C   UNL     1       2.595   4.099  18.328  0.00  0.00    +0.000 A 
ATOM      9  C   UNL     1       3.033   5.348  17.983  0.00  0.00    +0.000 A 
ATOM     10  C   UNL     1       4.367   5.288  17.481  0.00  0.00    +0.000 A 
ATOM     11  N   UNL     1       5.303   6.309  17.658  0.00  0.00    +0.000 N 
ATOM     12  C   UNL     1       2.208   6.541  18.302  0.00  0.00    +0.000 C 
ATOM     13  C   UNL     1       2.420   6.966  19.737  0.00  0.00    +0.000 C 
ATOM     14  C   UNL     1       1.441   6.209  20.633  0.00  0.00    +0.000 C 
ATOM     15  C   UNL     1       1.371   4.658  20.556  0.00  0.00    +0.000 C 
ATOM     16  C   UNL     1       1.421   3.823  19.234  0.00  0.00    +0.000 C 
ATOM     17  H   UNL     1       5.091   6.883  18.464  0.00  0.00    +0.000 HD
ENDROOT
TORSDOF 0
ENDMDL
MODEL 6
REMARK VINA RESULT:      -6.9      1.808      4.912
REMARK  Name = 
REMARK  0 active torsions:
REMARK  status: ('A' for Active; 'I' for Inactive)
REMARK                            x       y       z     vdW  Elec       q    Type
REMARK                         _______ _______ _______ _____ _____    ______ ____
ROOT
ATOM      1  O   UNL     1       2.078   7.656  19.968  0.00  0.00    +0.000 OA
ATOM      2  C   UNL     1       2.269   6.460  20.090  0.00  0.00    +0.000 C 
ATOM      3  C   UNL     1       1.232   5.577  20.764  0.00  0.00    +0.000 C 
ATOM      4  C   UNL     1       1.459   4.075  20.738  0.00  0.00    +0.000 C 
ATOM      5  C   UNL     1       1.443   3.518  19.312  0.00  0.00    +0.000 C 
ATOM      6  C   UNL     1       2.704   3.869  18.580  0.00  0.00    +0.000 A 
ATOM      7  S   UNL     1       3.110   3.116  17.079  0.00  0.00    +0.000 S 
ATOM      8  C   UNL     1       4.623   3.914  17.024  0.00  0.00    +0.000 A 
ATOM      9  C   UNL     1       4.871   4.510  18.230  0.00  0.00    +0.000 A 
ATOM     10  C   UNL     1       3.647   4.821  18.894  0.00  0.00    +0.000 A 
ATOM     11  N   UNL     1       3.484   5.930  19.726  0.00  0.00    +0.000 N 
ATOM     12  C   UNL     1       6.258   4.887  18.603  0.00  0.00    +0.000 C 
ATOM     13  C   UNL     1       6.635   6.211  17.978  0.00  0.00    +0.000 C 
ATOM     14  C   UNL     1       7.214   5.961  16.587  0.00  0.00    +0.000 C 
ATOM     15  C   UNL     1       6.411   5.113  15.560  0.00  0.00    +0.000 C 
ATOM     16  C   UNL     1       5.624   3.804  15.901  0.00  0.00    +0.000 C 
ATOM     17  H   UNL     1       4.146   6.666  19.513  0.00  0.00    +0.000 HD
ENDROOT
TORSDOF 0
ENDMDL
MODEL 7
REMARK VINA RESULT:      -6.6      1.862      4.935
REMARK  Name = 
REMARK  0 active torsions:
REMARK  status: ('A' for Active; 'I' for Inactive)
REMARK                            x       y       z     vdW  Elec       q    Type
REMARK                         _______ _______ _______ _____ _____    ______ ____
ROOT
ATOM      1  O   UNL     1       1.658   6.253  20.760  0.00  0.00    +0.000 OA
ATOM      2  C   UNL     1       2.131   5.135  20.666  0.00  0.00    +0.000 C 
ATOM      3  C   UNL     1       1.425   3.942  21.285  0.00  0.00    +0.000 C 
ATOM      4  C   UNL     1       1.982   2.559  20.991  0.00  0.00    +0.000 C 
ATOM      5  C   UNL     1       1.902   2.214  19.502  0.00  0.00    +0.000 C 
ATOM      6  C   UNL     1       2.938   2.960  18.716  0.00  0.00    +0.000 A 
ATOM      7  S   UNL     1       3.298   2.540  17.079  0.00  0.00    +0.000 S 
ATOM      8  C   UNL     1       4.567   3.686  17.006  0.00  0.00    +0.000 A 
ATOM      9  C   UNL     1       4.834   4.156  18.262  0.00  0.00    +0.000 A 
ATOM     10  C   UNL     1       3.673   4.064  19.086  0.00  0.00    +0.000 A 
ATOM     11  N   UNL     1       3.374   4.975  20.101  0.00  0.00    +0.000 N 
ATOM     12  C   UNL     1       6.135   4.810  18.553  0.00  0.00    +0.000 C 
ATOM     13  C   UNL     1       6.111   6.258  18.119  0.00  0.00    +0.000 C 
ATOM     14  C   UNL     1       6.539   6.348  16.655  0.00  0.00    +0.000 C 
ATOM     15  C   UNL     1       5.819   5.475  15.588  0.00  0.00    +0.000 C 
ATOM     16  C   UNL     1       5.405   3.980  15.786  0.00  0.00    +0.000 C 
ATOM     17  H   UNL     1       3.816   5.873  19.947  0.00  0.00    +0.000 HD
ENDROOT
TORSDOF 0
ENDMDL
MODEL 8
REMARK VINA RESULT:      -6.5      3.165      4.222
REMARK  Name = 
REMARK  0 active torsions:
REMARK  status: ('A' for Active; 'I' for Inactive)
REMARK                            x       y       z     vdW  Elec       q    Type
REMARK                         _______ _______ _______ _____ _____    ______ ____
ROOT
ATOM      1  O   UNL     1       1.592   8.725  21.954  0.00  0.00    +0.000 OA
ATOM      2  C   UNL     1       1.447   8.413  20.787  0.00  0.00    +0.000 C 
ATOM      3  C   UNL     1       1.268   9.479  19.719  0.00  0.00    +0.000 C 
ATOM      4  C   UNL     1       1.256   9.030  18.267  0.00  0.00    +0.000 C 
ATOM      5  C   UNL     1       2.591   8.410  17.849  0.00  0.00    +0.000 C 
ATOM      6  C   UNL     1       2.755   7.036  18.426  0.00  0.00    +0.000 A 
ATOM      7  S   UNL     1       4.000   5.973  17.874  0.00  0.00    +0.000 S 
ATOM      8  C   UNL     1       3.426   4.698  18.861  0.00  0.00    +0.000 A 
ATOM      9  C   UNL     1       2.200   5.028  19.369  0.00  0.00    +0.000 A 
ATOM     10  C   UNL     1       2.061   6.445  19.458  0.00  0.00    +0.000 A 
ATOM     11  N   UNL     1       1.322   7.086  20.454  0.00  0.00    +0.000 N 
ATOM     12  C   UNL     1       1.298   3.967  19.886  0.00  0.00    +0.000 C 
ATOM     13  C   UNL     1       1.676   3.589  21.300  0.00  0.00    +0.000 C 
ATOM     14  C   UNL     1       2.735   2.489  21.257  0.00  0.00    +0.000 C 
ATOM     15  C   UNL     1       4.024   2.694  20.412  0.00  0.00    +0.000 C 
ATOM     16  C   UNL     1       4.068   3.338  18.987  0.00  0.00    +0.000 C 
ATOM     17  H   UNL     1       1.231   6.515  21.285  0.00  0.00    +0.000 HD
ENDROOT
TORSDOF 0
ENDMDL
MODEL 9
REMARK VINA RESULT:      -6.4      2.471      3.506
REMARK  Name = 
REMARK  0 active torsions:
REMARK  status: ('A' for Active; 'I' for Inactive)
REMARK                            x       y       z     vdW  Elec       q    Type
REMARK                         _______ _______ _______ _____ _____    ______ ____
ROOT
ATOM      1  O   UNL     1       7.058   7.741  17.080  0.00  0.00    +0.000 OA
ATOM      2  C   UNL     1       6.295   6.800  16.958  0.00  0.00    +0.000 C 
ATOM      3  C   UNL     1       6.808   5.441  16.514  0.00  0.00    +0.000 C 
ATOM      4  C   UNL     1       5.834   4.275  16.540  0.00  0.00    +0.000 C 
ATOM      5  C   UNL     1       5.352   3.962  17.958  0.00  0.00    +0.000 C 
ATOM      6  C   UNL     1       4.366   4.987  18.433  0.00  0.00    +0.000 A 
ATOM      7  S   UNL     1       3.415   4.729  19.853  0.00  0.00    +0.000 S 
ATOM      8  C   UNL     1       2.546   6.182  19.603  0.00  0.00    +0.000 A 
ATOM      9  C   UNL     1       2.821   6.672  18.356  0.00  0.00    +0.000 A 
ATOM     10  C   UNL     1       4.110   6.240  17.922  0.00  0.00    +0.000 A 
ATOM     11  N   UNL     1       4.944   7.005  17.105  0.00  0.00    +0.000 N 
ATOM     12  C   UNL     1       1.902   7.650  17.720  0.00  0.00    +0.000 C 
ATOM     13  C   UNL     1       2.180   9.047  18.227  0.00  0.00    +0.000 C 
ATOM     14  C   UNL     1       1.361   9.293  19.493  0.00  0.00    +0.000 C 
ATOM     15  C   UNL     1       1.449   8.286  20.674  0.00  0.00    +0.000 C 
ATOM     16  C   UNL     1       1.483   6.729  20.523  0.00  0.00    +0.000 C 
ATOM     17  H   UNL     1       4.736   7.994  17.170  0.00  0.00    +0.000 HD
ENDROOT
TORSDOF 0
ENDMDL
