MODEL 1
REMARK VINA RESULT:      -6.8      0.000      0.000
REMARK  Name = 
REMARK  3 active torsions:
REMARK  status: ('A' for Active; 'I' for Inactive)
REMARK    1  A    between atoms: C_5  and  N_6
REMARK    2  A    between atoms: N_9  and  C_10
REMARK    3  A    between atoms: C_10  and  C_11
REMARK                            x       y       z     vdW  Elec       q    Type
REMARK                         _______ _______ _______ _____ _____    ______ ____
ROOT
ATOM      1  N   UNL     1       2.298   7.293  18.737  0.00  0.00    +0.000 N 
ATOM      2  C   UNL     1       1.590   7.392  20.007  0.00  0.00    +0.000 C 
ATOM      3  C   UNL     1       1.677   8.846  20.499  0.00  0.00    +0.000 C 
ATOM      4  N   UNL     1       1.148   9.813  19.495  0.00  0.00    +0.000 NA
ATOM      5  C   UNL     1       1.856   9.626  18.203  0.00  0.00    +0.000 C 
ATOM      6  C   UNL     1       1.779   8.172  17.694  0.00  0.00    +0.000 C 
ENDROOT
BRANCH   1  11
ATOM      7  C   UNL     1       5.752   6.281  17.611  0.00  0.00    +0.000 A 
ATOM      8  C   UNL     1       5.893   5.018  18.179  0.00  0.00    +0.000 A 
ATOM      9  C   UNL     1       4.842   4.471  18.912  0.00  0.00    +0.000 A 
ATOM     10  C   UNL     1       3.641   5.191  19.093  0.00  0.00    +0.000 A 
ATOM     11  C   UNL     1       3.486   6.489  18.527  0.00  0.00    +0.000 A 
ATOM     12  C   UNL     1       4.572   7.008  17.783  0.00  0.00    +0.000 A 
ATOM     13  O   UNL     1       2.681   4.614  19.860  0.00  0.00    +0.000 OA
ATOM     14  C   UNL     1       2.954   3.536  20.688  0.00  0.00    +0.000 C 
ATOM     15  C   UNL     1       3.869   2.555  19.950  0.00  0.00    +0.000 C 
ATOM     16  O   UNL     1       4.970   3.240  19.467  0.00  0.00    +0.000 OA
ENDBRANCH   1  11
BRANCH   4  17
ATOM     17  C   UNL     1      -0.333   9.836  19.322  0.00  0.00    +0.000 C 
BRANCH  17  18
ATOM     18  C   UNL     1      -0.795  10.671  18.092  0.00  0.00    +0.000 C 
ATOM     19  C   UNL     1      -1.741   9.893  17.140  0.00  0.00    +0.000 C 
ATOM     20  C   UNL     1      -3.170   9.762  17.704  0.00  0.00    +0.000 C 
ATOM     21  C   UNL     1      -3.750  11.154  17.992  0.00  0.00    +0.000 C 
ATOM     22  C   UNL     1      -2.875  11.879  19.019  0.00  0.00    +0.000 C 
ATOM     23  C   UNL     1      -1.444  12.023  18.481  0.00  0.00    +0.000 C 
ENDBRANCH  17  18
ENDBRANCH   4  17
TORSDOF 3
ENDMDL
MODEL 2
REMARK VINA RESULT:      -6.6      2.111      3.388
REMARK  Name = 
REMARK  3 active torsions:
REMARK  status: ('A' for Active; 'I' for Inactive)
REMARK    1  A    between atoms: C_5  and  N_6
REMARK    2  A    between atoms: N_9  and  C_10
REMARK    3  A    between atoms: C_10  and  C_11
REMARK                            x       y       z     vdW  Elec       q    Type
REMARK                         _______ _______ _______ _____ _____    ______ ____
ROOT
ATOM      1  N   UNL     1       2.502   7.494  18.681  0.00  0.00    +0.000 N 
ATOM      2  C   UNL     1       2.470   8.672  17.824  0.00  0.00    +0.000 C 
ATOM      3  C   UNL     1       1.055   9.272  17.877  0.00  0.00    +0.000 C 
ATOM      4  N   UNL     1       0.631   9.591  19.270  0.00  0.00    +0.000 NA
ATOM      5  C   UNL     1       0.744   8.377  20.115  0.00  0.00    +0.000 C 
ATOM      6  C   UNL     1       2.158   7.760  20.074  0.00  0.00    +0.000 C 
ENDROOT
BRANCH   1  11
ATOM      7  C   UNL     1       1.857   3.922  17.659  0.00  0.00    +0.000 A 
ATOM      8  C   UNL     1       3.097   3.523  17.168  0.00  0.00    +0.000 A 
ATOM      9  C   UNL     1       4.168   4.413  17.197  0.00  0.00    +0.000 A 
ATOM     10  C   UNL     1       4.003   5.719  17.709  0.00  0.00    +0.000 A 
ATOM     11  C   UNL     1       2.737   6.145  18.204  0.00  0.00    +0.000 A 
ATOM     12  C   UNL     1       1.676   5.211  18.165  0.00  0.00    +0.000 A 
ATOM     13  O   UNL     1       5.079   6.546  17.660  0.00  0.00    +0.000 OA
ATOM     14  C   UNL     1       6.185   6.262  16.874  0.00  0.00    +0.000 C 
ATOM     15  C   UNL     1       6.519   4.773  16.993  0.00  0.00    +0.000 C 
ATOM     16  O   UNL     1       5.381   4.033  16.725  0.00  0.00    +0.000 OA
ENDBRANCH   1  11
BRANCH   4  17
ATOM     17  C   UNL     1       1.284  10.774  19.901  0.00  0.00    +0.000 C 
BRANCH  17  18
ATOM     18  C   UNL     1       0.269  11.806  20.474  0.00  0.00    +0.000 C 
ATOM     19  C   UNL     1       0.888  13.205  20.726  0.00  0.00    +0.000 C 
ATOM     20  C   UNL     1       1.102  14.001  19.424  0.00  0.00    +0.000 C 
ATOM     21  C   UNL     1      -0.230  14.148  18.674  0.00  0.00    +0.000 C 
ATOM     22  C   UNL     1      -0.786  12.764  18.325  0.00  0.00    +0.000 C 
ATOM     23  C   UNL     1      -1.008  11.949  19.608  0.00  0.00    +0.000 C 
ENDBRANCH  17  18
ENDBRANCH   4  17
TORSDOF 3
ENDMDL
MODEL 3
REMARK VINA RESULT:      -6.5      1.024      1.024
REMARK  Name = 
REMARK  3 active torsions:
REMARK  status: ('A' for Active; 'I' for Inactive)
REMARK    1  A    between atoms: C_5  and  N_6
REMARK    2  A    between atoms: N_9  and  C_10
REMARK    3  A    between atoms: C_10  and  C_11
REMARK                            x       y       z     vdW  Elec       q    Type
REMARK                         _______ _______ _______ _____ _____    ______ ____
ROOT
ATOM      1  N   UNL     1       2.143   7.177  18.481  0.00  0.00    +0.000 N 
ATOM      2  C   UNL     1       1.513   7.214  19.794  0.00  0.00    +0.000 C 
ATOM      3  C   UNL     1       1.773   8.595  20.418  0.00  0.00    +0.000 C 
ATOM      4  N   UNL     1       1.297   9.706  19.545  0.00  0.00    +0.000 NA
ATOM      5  C   UNL     1       1.918   9.585  18.202  0.00  0.00    +0.000 C 
ATOM      6  C   UNL     1       1.667   8.204  17.561  0.00  0.00    +0.000 C 
ENDROOT
BRANCH   1  11
ATOM      7  C   UNL     1       5.596   5.977  17.553  0.00  0.00    +0.000 A 
ATOM      8  C   UNL     1       5.438   4.595  17.538  0.00  0.00    +0.000 A 
ATOM      9  C   UNL     1       4.187   4.042  17.801  0.00  0.00    +0.000 A 
ATOM     10  C   UNL     1       3.082   4.871  18.094  0.00  0.00    +0.000 A 
ATOM     11  C   UNL     1       3.231   6.287  18.124  0.00  0.00    +0.000 A 
ATOM     12  C   UNL     1       4.515   6.812  17.845  0.00  0.00    +0.000 A 
ATOM     13  O   UNL     1       1.906   4.258  18.387  0.00  0.00    +0.000 OA
ATOM     14  C   UNL     1       1.842   2.910  18.702  0.00  0.00    +0.000 C 
ATOM     15  C   UNL     1       2.760   2.129  17.758  0.00  0.00    +0.000 C 
ATOM     16  O   UNL     1       4.022   2.696  17.785  0.00  0.00    +0.000 OA
ENDBRANCH   1  11
BRANCH   4  17
ATOM     17  C   UNL     1      -0.180   9.891  19.464  0.00  0.00    +0.000 C 
BRANCH  17  18
ATOM     18  C   UNL     1      -0.624  10.774  18.261  0.00  0.00    +0.000 C 
ATOM     19  C   UNL     1      -1.597  10.052  17.293  0.00  0.00    +0.000 C 
ATOM     20  C   UNL     1      -3.027   9.946  17.861  0.00  0.00    +0.000 C 
ATOM     21  C   UNL     1      -3.564  11.345  18.192  0.00  0.00    +0.000 C 
ATOM     22  C   UNL     1      -2.663  12.015  19.235  0.00  0.00    +0.000 C 
ATOM     23  C   UNL     1      -1.231  12.132  18.693  0.00  0.00    +0.000 C 
ENDBRANCH  17  18
ENDBRANCH   4  17
TORSDOF 3
ENDMDL
MODEL 4
REMARK VINA RESULT:      -6.5      4.055      8.333
REMARK  Name = 
REMARK  3 active torsions:
REMARK  status: ('A' for Active; 'I' for Inactive)
REMARK    1  A    between atoms: C_5  and  N_6
REMARK    2  A    between atoms: N_9  and  C_10
REMARK    3  A    between atoms: C_10  and  C_11
REMARK                            x       y       z     vdW  Elec       q    Type
REMARK                         _______ _______ _______ _____ _____    ______ ____
ROOT
ATOM      1  N   UNL     1      -0.336  10.235  21.613  0.00  0.00    +0.000 N 
ATOM      2  C   UNL     1      -0.390   9.775  20.232  0.00  0.00    +0.000 C 
ATOM      3  C   UNL     1       1.036   9.414  19.784  0.00  0.00    +0.000 C 
ATOM      4  N   UNL     1       1.666   8.401  20.679  0.00  0.00    +0.000 NA
ATOM      5  C   UNL     1       1.637   8.889  22.081  0.00  0.00    +0.000 C 
ATOM      6  C   UNL     1       0.213   9.258  22.547  0.00  0.00    +0.000 C 
ENDROOT
BRANCH   1  11
ATOM      7  C   UNL     1      -2.159  13.068  23.310  0.00  0.00    +0.000 A 
ATOM      8  C   UNL     1      -1.351  14.162  23.013  0.00  0.00    +0.000 A 
ATOM      9  C   UNL     1      -0.216  13.987  22.226  0.00  0.00    +0.000 A 
ATOM     10  C   UNL     1       0.129  12.708  21.736  0.00  0.00    +0.000 A 
ATOM     11  C   UNL     1      -0.682  11.577  22.040  0.00  0.00    +0.000 A 
ATOM     12  C   UNL     1      -1.831  11.795  22.836  0.00  0.00    +0.000 A 
ATOM     13  O   UNL     1       1.276  12.608  21.015  0.00  0.00    +0.000 OA
ATOM     14  C   UNL     1       2.231  13.611  21.017  0.00  0.00    +0.000 C 
ATOM     15  C   UNL     1       1.533  14.971  20.933  0.00  0.00    +0.000 C 
ATOM     16  O   UNL     1       0.575  15.048  21.929  0.00  0.00    +0.000 OA
ENDBRANCH   1  11
BRANCH   4  17
ATOM     17  C   UNL     1       1.149   7.008  20.561  0.00  0.00    +0.000 C 
BRANCH  17  18
ATOM     18  C   UNL     1       2.272   5.951  20.348  0.00  0.00    +0.000 C 
ATOM     19  C   UNL     1       1.935   4.562  20.950  0.00  0.00    +0.000 C 
ATOM     20  C   UNL     1       0.912   3.782  20.100  0.00  0.00    +0.000 C 
ATOM     21  C   UNL     1       1.439   3.614  18.669  0.00  0.00    +0.000 C 
ATOM     22  C   UNL     1       1.667   4.989  18.034  0.00  0.00    +0.000 C 
ATOM     23  C   UNL     1       2.683   5.789  18.863  0.00  0.00    +0.000 C 
ENDBRANCH  17  18
ENDBRANCH   4  17
TORSDOF 3
ENDMDL
MODEL 5
REMARK VINA RESULT:      -6.5      2.216      2.889
REMARK  Name = 
REMARK  3 active torsions:
REMARK  status: ('A' for Active; 'I' for Inactive)
REMARK    1  A    between atoms: C_5  and  N_6
REMARK    2  A    between atoms: N_9  and  C_10
REMARK    3  A    between atoms: C_10  and  C_11
REMARK                            x       y       z     vdW  Elec       q    Type
REMARK                         _______ _______ _______ _____ _____    ______ ____
ROOT
ATOM      1  N   UNL     1       1.232   8.429  19.916  0.00  0.00    +0.000 N 
ATOM      2  C   UNL     1       0.848   8.223  21.306  0.00  0.00    +0.000 C 
ATOM      3  C   UNL     1       1.333   9.428  22.128  0.00  0.00    +0.000 C 
ATOM      4  N   UNL     1       0.810  10.719  21.596  0.00  0.00    +0.000 NA
ATOM      5  C   UNL     1       1.172  10.850  20.163  0.00  0.00    +0.000 C 
ATOM      6  C   UNL     1       0.694   9.648  19.322  0.00  0.00    +0.000 C 
ENDROOT
BRANCH   1  11
ATOM      7  C   UNL     1       3.834   7.326  17.418  0.00  0.00    +0.000 A 
ATOM      8  C   UNL     1       4.080   6.012  17.805  0.00  0.00    +0.000 A 
ATOM      9  C   UNL     1       3.371   5.463  18.870  0.00  0.00    +0.000 A 
ATOM     10  C   UNL     1       2.414   6.232  19.568  0.00  0.00    +0.000 A 
ATOM     11  C   UNL     1       2.159   7.581  19.192  0.00  0.00    +0.000 A 
ATOM     12  C   UNL     1       2.893   8.101  18.100  0.00  0.00    +0.000 A 
ATOM     13  O   UNL     1       1.797   5.644  20.626  0.00  0.00    +0.000 OA
ATOM     14  C   UNL     1       2.285   4.483  21.205  0.00  0.00    +0.000 C 
ATOM     15  C   UNL     1       2.733   3.520  20.102  0.00  0.00    +0.000 C 
ATOM     16  O   UNL     1       3.602   4.182  19.252  0.00  0.00    +0.000 OA
ENDBRANCH   1  11
BRANCH   4  17
ATOM     17  C   UNL     1      -0.637  10.990  21.834  0.00  0.00    +0.000 C 
BRANCH  17  18
ATOM     18  C   UNL     1      -0.959  12.503  22.010  0.00  0.00    +0.000 C 
ATOM     19  C   UNL     1      -1.750  13.107  20.821  0.00  0.00    +0.000 C 
ATOM     20  C   UNL     1      -3.236  12.696  20.829  0.00  0.00    +0.000 C 
ATOM     21  C   UNL     1      -3.888  13.114  22.154  0.00  0.00    +0.000 C 
ATOM     22  C   UNL     1      -3.176  12.427  23.324  0.00  0.00    +0.000 C 
ATOM     23  C   UNL     1      -1.691  12.820  23.338  0.00  0.00    +0.000 C 
ENDBRANCH  17  18
ENDBRANCH   4  17
TORSDOF 3
ENDMDL
MODEL 6
REMARK VINA RESULT:      -6.5      2.155      3.651
REMARK  Name = 
REMARK  3 active torsions:
REMARK  status: ('A' for Active; 'I' for Inactive)
REMARK    1  A    between atoms: C_5  and  N_6
REMARK    2  A    between atoms: N_9  and  C_10
REMARK    3  A    between atoms: C_10  and  C_11
REMARK                            x       y       z     vdW  Elec       q    Type
REMARK                         _______ _______ _______ _____ _____    ______ ____
ROOT
ATOM      1  N   UNL     1       2.029   7.804  19.771  0.00  0.00    +0.000 N 
ATOM      2  C   UNL     1       2.152   8.633  18.580  0.00  0.00    +0.000 C 
ATOM      3  C   UNL     1       0.791   9.295  18.306  0.00  0.00    +0.000 C 
ATOM      4  N   UNL     1       0.301  10.078  19.475  0.00  0.00    +0.000 NA
ATOM      5  C   UNL     1       0.256   9.206  20.675  0.00  0.00    +0.000 C 
ATOM      6  C   UNL     1       1.613   8.533  20.965  0.00  0.00    +0.000 C 
ENDROOT
BRANCH   1  11
ATOM      7  C   UNL     1       1.425   4.168  20.571  0.00  0.00    +0.000 A 
ATOM      8  C   UNL     1       2.352   3.525  19.757  0.00  0.00    +0.000 A 
ATOM      9  C   UNL     1       3.209   4.280  18.960  0.00  0.00    +0.000 A 
ATOM     10  C   UNL     1       3.136   5.691  18.962  0.00  0.00    +0.000 A 
ATOM     11  C   UNL     1       2.185   6.362  19.781  0.00  0.00    +0.000 A 
ATOM     12  C   UNL     1       1.337   5.562  20.583  0.00  0.00    +0.000 A 
ATOM     13  O   UNL     1       3.971   6.357  18.122  0.00  0.00    +0.000 OA
ATOM     14  C   UNL     1       4.633   5.716  17.088  0.00  0.00    +0.000 C 
ATOM     15  C   UNL     1       5.160   4.367  17.587  0.00  0.00    +0.000 C 
ATOM     16  O   UNL     1       4.118   3.663  18.166  0.00  0.00    +0.000 OA
ENDBRANCH   1  11
BRANCH   4  17
ATOM     17  C   UNL     1       1.004  11.365  19.746  0.00  0.00    +0.000 C 
BRANCH  17  18
ATOM     18  C   UNL     1       1.086  12.295  18.500  0.00  0.00    +0.000 C 
ATOM     19  C   UNL     1      -0.088  13.305  18.408  0.00  0.00    +0.000 C 
ATOM     20  C   UNL     1       0.057  14.473  19.404  0.00  0.00    +0.000 C 
ATOM     21  C   UNL     1       1.388  15.200  19.170  0.00  0.00    +0.000 C 
ATOM     22  C   UNL     1       2.554  14.227  19.373  0.00  0.00    +0.000 C 
ATOM     23  C   UNL     1       2.434  13.051  18.391  0.00  0.00    +0.000 C 
ENDBRANCH  17  18
ENDBRANCH   4  17
TORSDOF 3
ENDMDL
MODEL 7
REMARK VINA RESULT:      -6.4      2.336      3.674
REMARK  Name = 
REMARK  3 active torsions:
REMARK  status: ('A' for Active; 'I' for Inactive)
REMARK    1  A    between atoms: C_5  and  N_6
REMARK    2  A    between atoms: N_9  and  C_10
REMARK    3  A    between atoms: C_10  and  C_11
REMARK                            x       y       z     vdW  Elec       q    Type
REMARK                         _______ _______ _______ _____ _____    ______ ____
ROOT
ATOM      1  N   UNL     1       2.413   7.651  18.613  0.00  0.00    +0.000 N 
ATOM      2  C   UNL     1       2.240   8.773  17.700  0.00  0.00    +0.000 C 
ATOM      3  C   UNL     1       0.808   9.311  17.857  0.00  0.00    +0.000 C 
ATOM      4  N   UNL     1       0.501   9.692  19.265  0.00  0.00    +0.000 NA
ATOM      5  C   UNL     1       0.755   8.536  20.160  0.00  0.00    +0.000 C 
ATOM      6  C   UNL     1       2.188   7.982  20.016  0.00  0.00    +0.000 C 
ENDROOT
BRANCH   1  11
ATOM      7  C   UNL     1       1.827   4.033  17.725  0.00  0.00    +0.000 A 
ATOM      8  C   UNL     1       3.076   3.634  17.257  0.00  0.00    +0.000 A 
ATOM      9  C   UNL     1       4.133   4.541  17.258  0.00  0.00    +0.000 A 
ATOM     10  C   UNL     1       3.945   5.863  17.718  0.00  0.00    +0.000 A 
ATOM     11  C   UNL     1       2.671   6.288  18.189  0.00  0.00    +0.000 A 
ATOM     12  C   UNL     1       1.623   5.338  18.180  0.00  0.00    +0.000 A 
ATOM     13  O   UNL     1       5.010   6.703  17.644  0.00  0.00    +0.000 OA
ATOM     14  C   UNL     1       6.125   6.406  16.875  0.00  0.00    +0.000 C 
ATOM     15  C   UNL     1       6.479   4.927  17.054  0.00  0.00    +0.000 C 
ATOM     16  O   UNL     1       5.354   4.160  16.808  0.00  0.00    +0.000 OA
ENDBRANCH   1  11
BRANCH   4  17
ATOM     17  C   UNL     1       1.150  10.939  19.764  0.00  0.00    +0.000 C 
BRANCH  17  18
ATOM     18  C   UNL     1       1.115  12.106  18.734  0.00  0.00    +0.000 C 
ATOM     19  C   UNL     1      -0.068  13.085  18.952  0.00  0.00    +0.000 C 
ATOM     20  C   UNL     1       0.159  14.028  20.151  0.00  0.00    +0.000 C 
ATOM     21  C   UNL     1       1.460  14.818  19.958  0.00  0.00    +0.000 C 
ATOM     22  C   UNL     1       2.645  13.852  19.856  0.00  0.00    +0.000 C 
ATOM     23  C   UNL     1       2.444  12.900  18.667  0.00  0.00    +0.000 C 
ENDBRANCH  17  18
ENDBRANCH   4  17
TORSDOF 3
ENDMDL
MODEL 8
REMARK VINA RESULT:      -6.3      1.730      3.111
REMARK  Name = 
REMARK  3 active torsions:
REMARK  status: ('A' for Active; 'I' for Inactive)
REMARK    1  A    between atoms: C_5  and  N_6
REMARK    2  A    between atoms: N_9  and  C_10
REMARK    3  A    between atoms: C_10  and  C_11
REMARK                            x       y       z     vdW  Elec       q    Type
REMARK                         _______ _______ _______ _____ _____    ______ ____
ROOT
ATOM      1  N   UNL     1       2.118   7.821  19.597  0.00  0.00    +0.000 N 
ATOM      2  C   UNL     1       2.292   8.591  18.373  0.00  0.00    +0.000 C 
ATOM      3  C   UNL     1       0.944   9.232  18.006  0.00  0.00    +0.000 C 
ATOM      4  N   UNL     1       0.399  10.069  19.113  0.00  0.00    +0.000 NA
ATOM      5  C   UNL     1       0.302   9.256  20.351  0.00  0.00    +0.000 C 
ATOM      6  C   UNL     1       1.647   8.604  20.734  0.00  0.00    +0.000 C 
ENDROOT
BRANCH   1  11
ATOM      7  C   UNL     1       1.544   4.236  20.617  0.00  0.00    +0.000 A 
ATOM      8  C   UNL     1       2.451   3.548  19.816  0.00  0.00    +0.000 A 
ATOM      9  C   UNL     1       3.284   4.257  18.955  0.00  0.00    +0.000 A 
ATOM     10  C   UNL     1       3.208   5.666  18.879  0.00  0.00    +0.000 A 
ATOM     11  C   UNL     1       2.277   6.382  19.684  0.00  0.00    +0.000 A 
ATOM     12  C   UNL     1       1.453   5.628  20.552  0.00  0.00    +0.000 A 
ATOM     13  O   UNL     1       4.019   6.284  17.981  0.00  0.00    +0.000 OA
ATOM     14  C   UNL     1       4.655   5.585  16.967  0.00  0.00    +0.000 C 
ATOM     15  C   UNL     1       5.198   4.268  17.528  0.00  0.00    +0.000 C 
ATOM     16  O   UNL     1       4.174   3.597  18.173  0.00  0.00    +0.000 OA
ENDBRANCH   1  11
BRANCH   4  17
ATOM     17  C   UNL     1       1.086  11.371  19.351  0.00  0.00    +0.000 C 
BRANCH  17  18
ATOM     18  C   UNL     1       0.400  12.570  18.633  0.00  0.00    +0.000 C 
ATOM     19  C   UNL     1      -1.140  12.422  18.523  0.00  0.00    +0.000 C 
ATOM     20  C   UNL     1      -1.858  12.694  19.860  0.00  0.00    +0.000 C 
ATOM     21  C   UNL     1      -1.504  14.098  20.368  0.00  0.00    +0.000 C 
ATOM     22  C   UNL     1       0.009  14.208  20.585  0.00  0.00    +0.000 C 
ATOM     23  C   UNL     1       0.748  13.940  19.265  0.00  0.00    +0.000 C 
ENDBRANCH  17  18
ENDBRANCH   4  17
TORSDOF 3
ENDMDL
MODEL 9
REMARK VINA RESULT:      -6.3      2.024      3.528
REMARK  Name = 
REMARK  3 active torsions:
REMARK  status: ('A' for Active; 'I' for Inactive)
REMARK    1  A    between atoms: C_5  and  N_6
REMARK    2  A    between atoms: N_9  and  C_10
REMARK    3  A    between atoms: C_10  and  C_11
REMARK                            x       y       z     vdW  Elec       q    Type
REMARK                         _______ _______ _______ _____ _____    ______ ____
ROOT
ATOM      1  N   UNL     1       2.163   7.590  19.571  0.00  0.00    +0.000 N 
ATOM      2  C   UNL     1       2.448   8.364  18.370  0.00  0.00    +0.000 C 
ATOM      3  C   UNL     1       1.162   9.093  17.947  0.00  0.00    +0.000 C 
ATOM      4  N   UNL     1       0.615   9.948  19.038  0.00  0.00    +0.000 NA
ATOM      5  C   UNL     1       0.404   9.127  20.257  0.00  0.00    +0.000 C 
ATOM      6  C   UNL     1       1.685   8.386  20.696  0.00  0.00    +0.000 C 
ENDROOT
BRANCH   1  11
ATOM      7  C   UNL     1       1.379   4.042  20.580  0.00  0.00    +0.000 A 
ATOM      8  C   UNL     1       2.214   3.303  19.747  0.00  0.00    +0.000 A 
ATOM      9  C   UNL     1       3.068   3.963  18.867  0.00  0.00    +0.000 A 
ATOM     10  C   UNL     1       3.084   5.374  18.805  0.00  0.00    +0.000 A 
ATOM     11  C   UNL     1       2.228   6.143  19.642  0.00  0.00    +0.000 A 
ATOM     12  C   UNL     1       1.380   5.437  20.529  0.00  0.00    +0.000 A 
ATOM     13  O   UNL     1       3.908   5.945  17.888  0.00  0.00    +0.000 OA
ATOM     14  C   UNL     1       4.466   5.215  16.850  0.00  0.00    +0.000 C 
ATOM     15  C   UNL     1       4.935   3.859  17.384  0.00  0.00    +0.000 C 
ATOM     16  O   UNL     1       3.887   3.252  18.054  0.00  0.00    +0.000 OA
ENDBRANCH   1  11
BRANCH   4  17
ATOM     17  C   UNL     1       1.368  11.201  19.333  0.00  0.00    +0.000 C 
BRANCH  17  18
ATOM     18  C   UNL     1       0.565  12.213  20.201  0.00  0.00    +0.000 C 
ATOM     19  C   UNL     1       1.404  13.433  20.660  0.00  0.00    +0.000 C 
ATOM     20  C   UNL     1       1.637  14.451  19.526  0.00  0.00    +0.000 C 
ATOM     21  C   UNL     1       0.291  14.927  18.964  0.00  0.00    +0.000 C 
ATOM     22  C   UNL     1      -0.492  13.733  18.408  0.00  0.00    +0.000 C 
ATOM     23  C   UNL     1      -0.737  12.703  19.520  0.00  0.00    +0.000 C 
ENDBRANCH  17  18
ENDBRANCH   4  17
TORSDOF 3
ENDMDL
