MODEL 1
REMARK VINA RESULT:      -9.0      0.000      0.000
REMARK  Name = 
REMARK  6 active torsions:
REMARK  status: ('A' for Active; 'I' for Inactive)
REMARK    1  A    between atoms: C_1  and  C_2
REMARK    2  A    between atoms: C_2  and  C_3
REMARK    3  A    between atoms: C_2  and  N_19
REMARK    4  A    between atoms: C_9  and  C_10
REMARK    5  A    between atoms: C_10  and  C_11
REMARK    6  A    between atoms: C_22  and  C_23
REMARK                            x       y       z     vdW  Elec       q    Type
REMARK                         _______ _______ _______ _____ _____    ______ ____
ROOT
ATOM      1  C   UNL     1       4.118   3.437  17.849  0.00  0.00    +0.000 C 
ATOM      2  O   UNL     1       3.531   3.200  16.793  0.00  0.00    +0.000 OA
ATOM      3  N   UNL     1       5.399   3.930  17.964  0.00  0.00    +0.000 N 
ATOM      4  C   UNL     1       6.183   4.269  16.898  0.00  0.00    +0.000 A 
ATOM      5  N   UNL     1       7.500   4.468  17.023  0.00  0.00    +0.000 NA
ATOM      6  N   UNL     1       7.860   4.707  15.750  0.00  0.00    +0.000 N 
ATOM      7  C   UNL     1       6.773   4.747  14.928  0.00  0.00    +0.000 A 
ATOM      8  N   UNL     1       5.702   4.471  15.641  0.00  0.00    +0.000 NA
ATOM      9  H   UNL     1       5.901   3.868  18.843  0.00  0.00    +0.000 HD
ATOM     10  H   UNL     1       8.843   4.831  15.522  0.00  0.00    +0.000 HD
ENDROOT
BRANCH   1  12
ATOM     11  C   UNL     1       2.325   2.117  19.047  0.00  0.00    +0.000 C 
ATOM     12  C   UNL     1       3.392   3.202  19.167  0.00  0.00    +0.000 C 
BRANCH  12  13
ATOM     13  N   UNL     1       2.848   4.447  19.667  0.00  0.00    +0.000 N 
ATOM     14  N   UNL     1       2.287   4.559  20.880  0.00  0.00    +0.000 NA
ATOM     15  N   UNL     1       1.868   5.816  20.941  0.00  0.00    +0.000 NA
ATOM     16  C   UNL     1       2.182   6.403  19.738  0.00  0.00    +0.000 A 
ATOM     17  N   UNL     1       2.800   5.552  18.897  0.00  0.00    +0.000 NA
BRANCH  16  18
ATOM     18  C   UNL     1       1.901   7.792  19.416  0.00  0.00    +0.000 A 
ATOM     19  C   UNL     1       2.261   8.336  18.176  0.00  0.00    +0.000 A 
ATOM     20  C   UNL     1       1.949   9.663  17.870  0.00  0.00    +0.000 A 
ATOM     21  C   UNL     1       1.280  10.459  18.799  0.00  0.00    +0.000 A 
ATOM     22  C   UNL     1       0.930   9.934  20.040  0.00  0.00    +0.000 A 
ATOM     23  C   UNL     1       1.239   8.609  20.349  0.00  0.00    +0.000 A 
ENDBRANCH  16  18
ENDBRANCH  12  13
ENDBRANCH   1  12
BRANCH   7  24
ATOM     24  C   UNL     1       6.840   5.039  13.470  0.00  0.00    +0.000 C 
BRANCH  24  25
ATOM     25  C   UNL     1       6.329   3.901  12.617  0.00  0.00    +0.000 A 
ATOM     26  C   UNL     1       7.205   2.895  12.174  0.00  0.00    +0.000 A 
ATOM     27  C   UNL     1       6.747   1.850  11.367  0.00  0.00    +0.000 A 
ATOM     28  C   UNL     1       5.404   1.794  11.001  0.00  0.00    +0.000 A 
ATOM     29  C   UNL     1       4.531   2.775  11.456  0.00  0.00    +0.000 A 
ATOM     30  F   UNL     1       3.238   2.718  11.111  0.00  0.00    +0.000 F 
ATOM     31  C   UNL     1       4.976   3.822  12.259  0.00  0.00    +0.000 A 
ENDBRANCH  24  25
ENDBRANCH   7  24
TORSDOF 5
ENDMDL
MODEL 2
REMARK VINA RESULT:      -9.0      2.938      8.567
REMARK  Name = 
REMARK  6 active torsions:
REMARK  status: ('A' for Active; 'I' for Inactive)
REMARK    1  A    between atoms: C_1  and  C_2
REMARK    2  A    between atoms: C_2  and  C_3
REMARK    3  A    between atoms: C_2  and  N_19
REMARK    4  A    between atoms: C_9  and  C_10
REMARK    5  A    between atoms: C_10  and  C_11
REMARK    6  A    between atoms: C_22  and  C_23
REMARK                            x       y       z     vdW  Elec       q    Type
REMARK                         _______ _______ _______ _____ _____    ______ ____
ROOT
ATOM      1  C   UNL     1       2.933   4.960  18.789  0.00  0.00    +0.000 C 
ATOM      2  O   UNL     1       2.057   4.939  19.653  0.00  0.00    +0.000 OA
ATOM      3  N   UNL     1       3.296   6.057  18.038  0.00  0.00    +0.000 N 
ATOM      4  C   UNL     1       2.750   7.299  18.190  0.00  0.00    +0.000 A 
ATOM      5  N   UNL     1       2.909   8.260  17.273  0.00  0.00    +0.000 NA
ATOM      6  N   UNL     1       2.168   9.255  17.791  0.00  0.00    +0.000 N 
ATOM      7  C   UNL     1       1.679   8.919  19.019  0.00  0.00    +0.000 A 
ATOM      8  N   UNL     1       2.038   7.682  19.286  0.00  0.00    +0.000 NA
ATOM      9  H   UNL     1       3.841   5.946  17.189  0.00  0.00    +0.000 HD
ATOM     10  H   UNL     1       2.045  10.115  17.264  0.00  0.00    +0.000 HD
ENDROOT
BRANCH   1  12
ATOM     11  C   UNL     1       4.186   3.010  19.798  0.00  0.00    +0.000 C 
ATOM     12  C   UNL     1       3.728   3.692  18.511  0.00  0.00    +0.000 C 
BRANCH  12  13
ATOM     13  N   UNL     1       4.834   3.977  17.623  0.00  0.00    +0.000 N 
ATOM     14  N   UNL     1       6.014   4.443  18.058  0.00  0.00    +0.000 NA
ATOM     15  N   UNL     1       6.730   4.628  16.957  0.00  0.00    +0.000 NA
ATOM     16  C   UNL     1       5.929   4.278  15.895  0.00  0.00    +0.000 A 
ATOM     17  N   UNL     1       4.708   3.868  16.286  0.00  0.00    +0.000 NA
BRANCH  16  18
ATOM     18  C   UNL     1       6.358   4.323  14.507  0.00  0.00    +0.000 A 
ATOM     19  C   UNL     1       7.417   5.146  14.103  0.00  0.00    +0.000 A 
ATOM     20  C   UNL     1       7.840   5.149  12.771  0.00  0.00    +0.000 A 
ATOM     21  C   UNL     1       7.209   4.334  11.833  0.00  0.00    +0.000 A 
ATOM     22  C   UNL     1       6.146   3.522  12.219  0.00  0.00    +0.000 A 
ATOM     23  C   UNL     1       5.721   3.517  13.548  0.00  0.00    +0.000 A 
ENDBRANCH  16  18
ENDBRANCH  12  13
ENDBRANCH   1  12
BRANCH   7  24
ATOM     24  C   UNL     1       0.862   9.829  19.869  0.00  0.00    +0.000 C 
BRANCH  24  25
ATOM     25  C   UNL     1      -0.288  10.460  19.119  0.00  0.00    +0.000 A 
ATOM     26  C   UNL     1      -0.330  11.852  18.922  0.00  0.00    +0.000 A 
ATOM     27  C   UNL     1      -1.399  12.449  18.249  0.00  0.00    +0.000 A 
ATOM     28  C   UNL     1      -2.435  11.659  17.756  0.00  0.00    +0.000 A 
ATOM     29  C   UNL     1      -2.385  10.281  17.930  0.00  0.00    +0.000 A 
ATOM     30  F   UNL     1      -3.377   9.520  17.449  0.00  0.00    +0.000 F 
ATOM     31  C   UNL     1      -1.326   9.676  18.600  0.00  0.00    +0.000 A 
ENDBRANCH  24  25
ENDBRANCH   7  24
TORSDOF 5
ENDMDL
MODEL 3
REMARK VINA RESULT:      -8.9      0.810      1.502
REMARK  Name = 
REMARK  6 active torsions:
REMARK  status: ('A' for Active; 'I' for Inactive)
REMARK    1  A    between atoms: C_1  and  C_2
REMARK    2  A    between atoms: C_2  and  C_3
REMARK    3  A    between atoms: C_2  and  N_19
REMARK    4  A    between atoms: C_9  and  C_10
REMARK    5  A    between atoms: C_10  and  C_11
REMARK    6  A    between atoms: C_22  and  C_23
REMARK                            x       y       z     vdW  Elec       q    Type
REMARK                         _______ _______ _______ _____ _____    ______ ____
ROOT
ATOM      1  C   UNL     1       4.139   3.395  17.853  0.00  0.00    +0.000 C 
ATOM      2  O   UNL     1       3.565   3.150  16.792  0.00  0.00    +0.000 OA
ATOM      3  N   UNL     1       5.414   3.903  17.979  0.00  0.00    +0.000 N 
ATOM      4  C   UNL     1       6.203   4.251  16.921  0.00  0.00    +0.000 A 
ATOM      5  N   UNL     1       7.516   4.465  17.057  0.00  0.00    +0.000 NA
ATOM      6  N   UNL     1       7.886   4.708  15.787  0.00  0.00    +0.000 N 
ATOM      7  C   UNL     1       6.805   4.735  14.955  0.00  0.00    +0.000 A 
ATOM      8  N   UNL     1       5.731   4.446  15.658  0.00  0.00    +0.000 NA
ATOM      9  H   UNL     1       5.908   3.848  18.863  0.00  0.00    +0.000 HD
ATOM     10  H   UNL     1       8.868   4.844  15.568  0.00  0.00    +0.000 HD
ENDROOT
BRANCH   1  12
ATOM     11  C   UNL     1       2.353   2.053  19.036  0.00  0.00    +0.000 C 
ATOM     12  C   UNL     1       3.404   3.153  19.164  0.00  0.00    +0.000 C 
BRANCH  12  13
ATOM     13  N   UNL     1       2.838   4.390  19.657  0.00  0.00    +0.000 N 
ATOM     14  N   UNL     1       2.259   4.495  20.862  0.00  0.00    +0.000 NA
ATOM     15  N   UNL     1       1.824   5.747  20.918  0.00  0.00    +0.000 NA
ATOM     16  C   UNL     1       2.149   6.338  19.719  0.00  0.00    +0.000 A 
ATOM     17  N   UNL     1       2.788   5.495  18.887  0.00  0.00    +0.000 NA
BRANCH  16  18
ATOM     18  C   UNL     1       1.856   7.725  19.394  0.00  0.00    +0.000 A 
ATOM     19  C   UNL     1       1.256   8.577  20.330  0.00  0.00    +0.000 A 
ATOM     20  C   UNL     1       1.016   9.917  20.012  0.00  0.00    +0.000 A 
ATOM     21  C   UNL     1       1.369  10.414  18.758  0.00  0.00    +0.000 A 
ATOM     22  C   UNL     1       1.953   9.574  17.815  0.00  0.00    +0.000 A 
ATOM     23  C   UNL     1       2.195   8.236  18.129  0.00  0.00    +0.000 A 
ENDBRANCH  16  18
ENDBRANCH  12  13
ENDBRANCH   1  12
BRANCH   7  24
ATOM     24  C   UNL     1       6.882   5.027  13.498  0.00  0.00    +0.000 C 
BRANCH  24  25
ATOM     25  C   UNL     1       6.237   3.958  12.647  0.00  0.00    +0.000 A 
ATOM     26  C   UNL     1       4.871   4.036  12.322  0.00  0.00    +0.000 A 
ATOM     27  C   UNL     1       4.259   3.042  11.554  0.00  0.00    +0.000 A 
ATOM     28  C   UNL     1       5.008   1.962  11.094  0.00  0.00    +0.000 A 
ATOM     29  C   UNL     1       6.363   1.893  11.395  0.00  0.00    +0.000 A 
ATOM     30  F   UNL     1       7.086   0.859  10.946  0.00  0.00    +0.000 F 
ATOM     31  C   UNL     1       6.983   2.877  12.160  0.00  0.00    +0.000 A 
ENDBRANCH  24  25
ENDBRANCH   7  24
TORSDOF 5
ENDMDL
MODEL 4
REMARK VINA RESULT:      -8.8      3.213      8.706
REMARK  Name = 
REMARK  6 active torsions:
REMARK  status: ('A' for Active; 'I' for Inactive)
REMARK    1  A    between atoms: C_1  and  C_2
REMARK    2  A    between atoms: C_2  and  C_3
REMARK    3  A    between atoms: C_2  and  N_19
REMARK    4  A    between atoms: C_9  and  C_10
REMARK    5  A    between atoms: C_10  and  C_11
REMARK    6  A    between atoms: C_22  and  C_23
REMARK                            x       y       z     vdW  Elec       q    Type
REMARK                         _______ _______ _______ _____ _____    ______ ____
ROOT
ATOM      1  C   UNL     1       3.035   4.882  18.812  0.00  0.00    +0.000 C 
ATOM      2  O   UNL     1       2.203   4.853  19.720  0.00  0.00    +0.000 OA
ATOM      3  N   UNL     1       3.349   5.983  18.045  0.00  0.00    +0.000 N 
ATOM      4  C   UNL     1       2.800   7.220  18.227  0.00  0.00    +0.000 A 
ATOM      5  N   UNL     1       2.903   8.183  17.304  0.00  0.00    +0.000 NA
ATOM      6  N   UNL     1       2.182   9.172  17.861  0.00  0.00    +0.000 N 
ATOM      7  C   UNL     1       1.759   8.830  19.113  0.00  0.00    +0.000 A 
ATOM      8  N   UNL     1       2.143   7.596  19.359  0.00  0.00    +0.000 NA
ATOM      9  H   UNL     1       3.851   5.878  17.170  0.00  0.00    +0.000 HD
ATOM     10  H   UNL     1       2.024  10.031  17.342  0.00  0.00    +0.000 HD
ENDROOT
BRANCH   1  12
ATOM     11  C   UNL     1       4.285   2.898  19.756  0.00  0.00    +0.000 C 
ATOM     12  C   UNL     1       3.824   3.621  18.492  0.00  0.00    +0.000 C 
BRANCH  12  13
ATOM     13  N   UNL     1       4.929   3.932  17.611  0.00  0.00    +0.000 N 
ATOM     14  N   UNL     1       6.092   4.433  18.051  0.00  0.00    +0.000 NA
ATOM     15  N   UNL     1       6.811   4.630  16.954  0.00  0.00    +0.000 NA
ATOM     16  C   UNL     1       6.028   4.251  15.889  0.00  0.00    +0.000 A 
ATOM     17  N   UNL     1       4.816   3.810  16.273  0.00  0.00    +0.000 NA
BRANCH  16  18
ATOM     18  C   UNL     1       6.466   4.299  14.503  0.00  0.00    +0.000 A 
ATOM     19  C   UNL     1       5.893   3.467  13.533  0.00  0.00    +0.000 A 
ATOM     20  C   UNL     1       6.301   3.554  12.199  0.00  0.00    +0.000 A 
ATOM     21  C   UNL     1       7.285   4.467  11.824  0.00  0.00    +0.000 A 
ATOM     22  C   UNL     1       7.872   5.290  12.782  0.00  0.00    +0.000 A 
ATOM     23  C   UNL     1       7.467   5.207  14.114  0.00  0.00    +0.000 A 
ENDBRANCH  16  18
ENDBRANCH  12  13
ENDBRANCH   1  12
BRANCH   7  24
ATOM     24  C   UNL     1       0.980   9.732  20.004  0.00  0.00    +0.000 C 
BRANCH  24  25
ATOM     25  C   UNL     1      -0.058  10.541  19.261  0.00  0.00    +0.000 A 
ATOM     26  C   UNL     1      -1.231   9.929  18.786  0.00  0.00    +0.000 A 
ATOM     27  C   UNL     1      -2.187  10.663  18.079  0.00  0.00    +0.000 A 
ATOM     28  C   UNL     1      -1.986  12.022  17.849  0.00  0.00    +0.000 A 
ATOM     29  C   UNL     1      -0.839  12.635  18.337  0.00  0.00    +0.000 A 
ATOM     30  F   UNL     1      -0.648  13.943  18.123  0.00  0.00    +0.000 F 
ATOM     31  C   UNL     1       0.122  11.913  19.041  0.00  0.00    +0.000 A 
ENDBRANCH  24  25
ENDBRANCH   7  24
TORSDOF 5
ENDMDL
MODEL 5
REMARK VINA RESULT:      -8.8      6.130      8.353
REMARK  Name = 
REMARK  6 active torsions:
REMARK  status: ('A' for Active; 'I' for Inactive)
REMARK    1  A    between atoms: C_1  and  C_2
REMARK    2  A    between atoms: C_2  and  C_3
REMARK    3  A    between atoms: C_2  and  N_19
REMARK    4  A    between atoms: C_9  and  C_10
REMARK    5  A    between atoms: C_10  and  C_11
REMARK    6  A    between atoms: C_22  and  C_23
REMARK                            x       y       z     vdW  Elec       q    Type
REMARK                         _______ _______ _______ _____ _____    ______ ____
ROOT
ATOM      1  C   UNL     1       7.543   5.881  17.854  0.00  0.00    +0.000 C 
ATOM      2  O   UNL     1       8.054   5.747  18.966  0.00  0.00    +0.000 OA
ATOM      3  N   UNL     1       7.375   7.074  17.184  0.00  0.00    +0.000 N 
ATOM      4  C   UNL     1       7.804   8.280  17.658  0.00  0.00    +0.000 A 
ATOM      5  N   UNL     1       7.381   9.437  17.136  0.00  0.00    +0.000 NA
ATOM      6  N   UNL     1       7.991  10.333  17.932  0.00  0.00    +0.000 N 
ATOM      7  C   UNL     1       8.821   9.719  18.822  0.00  0.00    +0.000 A 
ATOM      8  N   UNL     1       8.713   8.418  18.662  0.00  0.00    +0.000 NA
ATOM      9  H   UNL     1       6.737   7.141  16.399  0.00  0.00    +0.000 HD
ATOM     10  H   UNL     1       7.798  11.323  17.811  0.00  0.00    +0.000 HD
ENDROOT
BRANCH   1  12
ATOM     11  C   UNL     1       7.326   4.744  15.606  0.00  0.00    +0.000 C 
ATOM     12  C   UNL     1       7.064   4.644  17.107  0.00  0.00    +0.000 C 
BRANCH  12  13
ATOM     13  N   UNL     1       5.669   4.391  17.400  0.00  0.00    +0.000 N 
ATOM     14  N   UNL     1       4.695   4.554  16.493  0.00  0.00    +0.000 NA
ATOM     15  N   UNL     1       3.575   4.281  17.150  0.00  0.00    +0.000 NA
ATOM     16  C   UNL     1       3.933   3.983  18.444  0.00  0.00    +0.000 A 
ATOM     17  N   UNL     1       5.262   4.053  18.639  0.00  0.00    +0.000 NA
BRANCH  16  18
ATOM     18  C   UNL     1       2.984   3.609  19.481  0.00  0.00    +0.000 A 
ATOM     19  C   UNL     1       1.628   3.943  19.376  0.00  0.00    +0.000 A 
ATOM     20  C   UNL     1       0.724   3.544  20.365  0.00  0.00    +0.000 A 
ATOM     21  C   UNL     1       1.167   2.812  21.465  0.00  0.00    +0.000 A 
ATOM     22  C   UNL     1       2.515   2.486  21.588  0.00  0.00    +0.000 A 
ATOM     23  C   UNL     1       3.420   2.883  20.603  0.00  0.00    +0.000 A 
ENDBRANCH  16  18
ENDBRANCH  12  13
ENDBRANCH   1  12
BRANCH   7  24
ATOM     24  C   UNL     1       9.672  10.444  19.805  0.00  0.00    +0.000 C 
BRANCH  24  25
ATOM     25  C   UNL     1      10.304  11.691  19.231  0.00  0.00    +0.000 A 
ATOM     26  C   UNL     1      11.312  11.593  18.255  0.00  0.00    +0.000 A 
ATOM     27  C   UNL     1      11.918  12.738  17.733  0.00  0.00    +0.000 A 
ATOM     28  C   UNL     1      11.516  13.997  18.173  0.00  0.00    +0.000 A 
ATOM     29  C   UNL     1      10.504  14.098  19.120  0.00  0.00    +0.000 A 
ATOM     30  F   UNL     1      10.111  15.308  19.539  0.00  0.00    +0.000 F 
ATOM     31  C   UNL     1       9.894  12.963  19.649  0.00  0.00    +0.000 A 
ENDBRANCH  24  25
ENDBRANCH   7  24
TORSDOF 5
ENDMDL
MODEL 6
REMARK VINA RESULT:      -8.7      6.185     11.042
REMARK  Name = 
REMARK  6 active torsions:
REMARK  status: ('A' for Active; 'I' for Inactive)
REMARK    1  A    between atoms: C_1  and  C_2
REMARK    2  A    between atoms: C_2  and  C_3
REMARK    3  A    between atoms: C_2  and  N_19
REMARK    4  A    between atoms: C_9  and  C_10
REMARK    5  A    between atoms: C_10  and  C_11
REMARK    6  A    between atoms: C_22  and  C_23
REMARK                            x       y       z     vdW  Elec       q    Type
REMARK                         _______ _______ _______ _____ _____    ______ ____
ROOT
ATOM      1  C   UNL     1      -0.534  11.002  19.124  0.00  0.00    +0.000 C 
ATOM      2  O   UNL     1      -1.333  11.403  19.970  0.00  0.00    +0.000 OA
ATOM      3  N   UNL     1      -0.842  10.662  17.825  0.00  0.00    +0.000 N 
ATOM      4  C   UNL     1      -2.091  10.772  17.284  0.00  0.00    +0.000 A 
ATOM      5  N   UNL     1      -2.419  10.175  16.133  0.00  0.00    +0.000 NA
ATOM      6  N   UNL     1      -3.721  10.491  16.024  0.00  0.00    +0.000 N 
ATOM      7  C   UNL     1      -4.111  11.329  17.028  0.00  0.00    +0.000 A 
ATOM      8  N   UNL     1      -3.089  11.516  17.835  0.00  0.00    +0.000 NA
ATOM      9  H   UNL     1      -0.196  10.114  17.266  0.00  0.00    +0.000 HD
ATOM     10  H   UNL     1      -4.268  10.109  15.258  0.00  0.00    +0.000 HD
ENDROOT
BRANCH   1  12
ATOM     11  C   UNL     1       1.835  11.670  18.549  0.00  0.00    +0.000 C 
ATOM     12  C   UNL     1       0.937  10.879  19.497  0.00  0.00    +0.000 C 
BRANCH  12  13
ATOM     13  N   UNL     1       1.320   9.485  19.573  0.00  0.00    +0.000 N 
ATOM     14  N   UNL     1       1.174   8.751  20.685  0.00  0.00    +0.000 NA
ATOM     15  N   UNL     1       1.684   7.566  20.375  0.00  0.00    +0.000 NA
ATOM     16  C   UNL     1       2.138   7.652  19.079  0.00  0.00    +0.000 A 
ATOM     17  N   UNL     1       1.930   8.868  18.541  0.00  0.00    +0.000 NA
BRANCH  16  18
ATOM     18  C   UNL     1       2.752   6.547  18.361  0.00  0.00    +0.000 A 
ATOM     19  C   UNL     1       2.141   5.288  18.309  0.00  0.00    +0.000 A 
ATOM     20  C   UNL     1       2.728   4.248  17.583  0.00  0.00    +0.000 A 
ATOM     21  C   UNL     1       3.929   4.455  16.907  0.00  0.00    +0.000 A 
ATOM     22  C   UNL     1       4.554   5.698  16.963  0.00  0.00    +0.000 A 
ATOM     23  C   UNL     1       3.970   6.739  17.686  0.00  0.00    +0.000 A 
ENDBRANCH  16  18
ENDBRANCH  12  13
ENDBRANCH   1  12
BRANCH   7  24
ATOM     24  C   UNL     1      -5.482  11.895  17.155  0.00  0.00    +0.000 C 
BRANCH  24  25
ATOM     25  C   UNL     1      -6.206  11.412  18.391  0.00  0.00    +0.000 A 
ATOM     26  C   UNL     1      -6.681  12.332  19.342  0.00  0.00    +0.000 A 
ATOM     27  C   UNL     1      -7.333  11.896  20.499  0.00  0.00    +0.000 A 
ATOM     28  C   UNL     1      -7.526  10.534  20.713  0.00  0.00    +0.000 A 
ATOM     29  C   UNL     1      -7.078   9.623  19.764  0.00  0.00    +0.000 A 
ATOM     30  F   UNL     1      -7.270   8.313  19.965  0.00  0.00    +0.000 F 
ATOM     31  C   UNL     1      -6.426  10.046  18.609  0.00  0.00    +0.000 A 
ENDBRANCH  24  25
ENDBRANCH   7  24
TORSDOF 5
ENDMDL
MODEL 7
REMARK VINA RESULT:      -8.7      3.596      8.859
REMARK  Name = 
REMARK  6 active torsions:
REMARK  status: ('A' for Active; 'I' for Inactive)
REMARK    1  A    between atoms: C_1  and  C_2
REMARK    2  A    between atoms: C_2  and  C_3
REMARK    3  A    between atoms: C_2  and  N_19
REMARK    4  A    between atoms: C_9  and  C_10
REMARK    5  A    between atoms: C_10  and  C_11
REMARK    6  A    between atoms: C_22  and  C_23
REMARK                            x       y       z     vdW  Elec       q    Type
REMARK                         _______ _______ _______ _____ _____    ______ ____
ROOT
ATOM      1  C   UNL     1       2.702   5.499  18.712  0.00  0.00    +0.000 C 
ATOM      2  O   UNL     1       1.770   5.472  19.516  0.00  0.00    +0.000 OA
ATOM      3  N   UNL     1       3.109   6.600  17.991  0.00  0.00    +0.000 N 
ATOM      4  C   UNL     1       2.550   7.840  18.112  0.00  0.00    +0.000 A 
ATOM      5  N   UNL     1       2.765   8.805  17.211  0.00  0.00    +0.000 NA
ATOM      6  N   UNL     1       1.989   9.796  17.685  0.00  0.00    +0.000 N 
ATOM      7  C   UNL     1       1.422   9.453  18.877  0.00  0.00    +0.000 A 
ATOM      8  N   UNL     1       1.767   8.216  19.161  0.00  0.00    +0.000 NA
ATOM      9  H   UNL     1       3.709   6.495  17.180  0.00  0.00    +0.000 HD
ATOM     10  H   UNL     1       1.898  10.658  17.154  0.00  0.00    +0.000 HD
ENDROOT
BRANCH   1  12
ATOM     11  C   UNL     1       3.983   3.607  19.793  0.00  0.00    +0.000 C 
ATOM     12  C   UNL     1       3.517   4.234  18.482  0.00  0.00    +0.000 C 
BRANCH  12  13
ATOM     13  N   UNL     1       4.621   4.505  17.586  0.00  0.00    +0.000 N 
ATOM     14  N   UNL     1       5.713   5.186  17.964  0.00  0.00    +0.000 NA
ATOM     15  N   UNL     1       6.452   5.272  16.866  0.00  0.00    +0.000 NA
ATOM     16  C   UNL     1       5.750   4.648  15.861  0.00  0.00    +0.000 A 
ATOM     17  N   UNL     1       4.572   4.156  16.285  0.00  0.00    +0.000 NA
BRANCH  16  18
ATOM     18  C   UNL     1       6.236   4.512  14.497  0.00  0.00    +0.000 A 
ATOM     19  C   UNL     1       7.356   5.227  14.053  0.00  0.00    +0.000 A 
ATOM     20  C   UNL     1       7.831   5.056  12.749  0.00  0.00    +0.000 A 
ATOM     21  C   UNL     1       7.191   4.175  11.880  0.00  0.00    +0.000 A 
ATOM     22  C   UNL     1       6.068   3.469  12.305  0.00  0.00    +0.000 A 
ATOM     23  C   UNL     1       5.592   3.637  13.605  0.00  0.00    +0.000 A 
ENDBRANCH  16  18
ENDBRANCH  12  13
ENDBRANCH   1  12
BRANCH   7  24
ATOM     24  C   UNL     1       0.548  10.356  19.674  0.00  0.00    +0.000 C 
BRANCH  24  25
ATOM     25  C   UNL     1      -0.778  10.635  19.006  0.00  0.00    +0.000 A 
ATOM     26  C   UNL     1      -1.116   9.994  17.802  0.00  0.00    +0.000 A 
ATOM     27  C   UNL     1      -2.331  10.260  17.164  0.00  0.00    +0.000 A 
ATOM     28  C   UNL     1      -3.227  11.163  17.730  0.00  0.00    +0.000 A 
ATOM     29  C   UNL     1      -2.906  11.782  18.932  0.00  0.00    +0.000 A 
ATOM     30  F   UNL     1      -3.770  12.645  19.481  0.00  0.00    +0.000 F 
ATOM     31  C   UNL     1      -1.698  11.525  19.575  0.00  0.00    +0.000 A 
ENDBRANCH  24  25
ENDBRANCH   7  24
TORSDOF 5
ENDMDL
MODEL 8
REMARK VINA RESULT:      -8.6      3.780      6.108
REMARK  Name = 
REMARK  6 active torsions:
REMARK  status: ('A' for Active; 'I' for Inactive)
REMARK    1  A    between atoms: C_1  and  C_2
REMARK    2  A    between atoms: C_2  and  C_3
REMARK    3  A    between atoms: C_2  and  N_19
REMARK    4  A    between atoms: C_9  and  C_10
REMARK    5  A    between atoms: C_10  and  C_11
REMARK    6  A    between atoms: C_22  and  C_23
REMARK                            x       y       z     vdW  Elec       q    Type
REMARK                         _______ _______ _______ _____ _____    ______ ____
ROOT
ATOM      1  C   UNL     1       1.794   7.903  20.079  0.00  0.00    +0.000 C 
ATOM      2  O   UNL     1       2.130   7.976  18.897  0.00  0.00    +0.000 OA
ATOM      3  N   UNL     1       1.783   6.756  20.842  0.00  0.00    +0.000 N 
ATOM      4  C   UNL     1       2.196   5.536  20.389  0.00  0.00    +0.000 A 
ATOM      5  N   UNL     1       1.910   4.404  21.044  0.00  0.00    +0.000 NA
ATOM      6  N   UNL     1       2.440   3.477  20.226  0.00  0.00    +0.000 N 
ATOM      7  C   UNL     1       3.101   4.057  19.183  0.00  0.00    +0.000 A 
ATOM      8  N   UNL     1       2.955   5.362  19.273  0.00  0.00    +0.000 NA
ATOM      9  H   UNL     1       1.270   6.721  21.717  0.00  0.00    +0.000 HD
ATOM     10  H   UNL     1       2.314   2.492  20.439  0.00  0.00    +0.000 HD
ENDROOT
BRANCH   1  12
ATOM     11  C   UNL     1       0.600   8.866  22.089  0.00  0.00    +0.000 C 
ATOM     12  C   UNL     1       1.370   9.171  20.806  0.00  0.00    +0.000 C 
BRANCH  12  13
ATOM     13  N   UNL     1       0.623  10.034  19.916  0.00  0.00    +0.000 N 
ATOM     14  N   UNL     1       1.027  11.270  19.592  0.00  0.00    +0.000 NA
ATOM     15  N   UNL     1       0.063  11.748  18.817  0.00  0.00    +0.000 NA
ATOM     16  C   UNL     1      -0.900  10.770  18.727  0.00  0.00    +0.000 A 
ATOM     17  N   UNL     1      -0.577   9.665  19.426  0.00  0.00    +0.000 NA
BRANCH  16  18
ATOM     18  C   UNL     1      -2.119  10.902  17.945  0.00  0.00    +0.000 A 
ATOM     19  C   UNL     1      -2.226  10.334  16.670  0.00  0.00    +0.000 A 
ATOM     20  C   UNL     1      -3.419  10.440  15.948  0.00  0.00    +0.000 A 
ATOM     21  C   UNL     1      -4.510  11.115  16.493  0.00  0.00    +0.000 A 
ATOM     22  C   UNL     1      -4.411  11.696  17.754  0.00  0.00    +0.000 A 
ATOM     23  C   UNL     1      -3.222  11.592  18.477  0.00  0.00    +0.000 A 
ENDBRANCH  16  18
ENDBRANCH  12  13
ENDBRANCH   1  12
BRANCH   7  24
ATOM     24  C   UNL     1       3.833   3.297  18.135  0.00  0.00    +0.000 C 
BRANCH  24  25
ATOM     25  C   UNL     1       4.946   4.096  17.497  0.00  0.00    +0.000 A 
ATOM     26  C   UNL     1       4.914   4.388  16.122  0.00  0.00    +0.000 A 
ATOM     27  C   UNL     1       5.949   5.107  15.517  0.00  0.00    +0.000 A 
ATOM     28  C   UNL     1       7.023   5.552  16.283  0.00  0.00    +0.000 A 
ATOM     29  C   UNL     1       7.047   5.284  17.647  0.00  0.00    +0.000 A 
ATOM     30  F   UNL     1       8.076   5.718  18.386  0.00  0.00    +0.000 F 
ATOM     31  C   UNL     1       6.022   4.567  18.259  0.00  0.00    +0.000 A 
ENDBRANCH  24  25
ENDBRANCH   7  24
TORSDOF 5
ENDMDL
MODEL 9
REMARK VINA RESULT:      -8.6      4.710      7.235
REMARK  Name = 
REMARK  6 active torsions:
REMARK  status: ('A' for Active; 'I' for Inactive)
REMARK    1  A    between atoms: C_1  and  C_2
REMARK    2  A    between atoms: C_2  and  C_3
REMARK    3  A    between atoms: C_2  and  N_19
REMARK    4  A    between atoms: C_9  and  C_10
REMARK    5  A    between atoms: C_10  and  C_11
REMARK    6  A    between atoms: C_22  and  C_23
REMARK                            x       y       z     vdW  Elec       q    Type
REMARK                         _______ _______ _______ _____ _____    ______ ____
ROOT
ATOM      1  C   UNL     1       1.115   9.168  20.980  0.00  0.00    +0.000 C 
ATOM      2  O   UNL     1       1.526   8.226  21.657  0.00  0.00    +0.000 OA
ATOM      3  N   UNL     1       1.356   9.358  19.636  0.00  0.00    +0.000 N 
ATOM      4  C   UNL     1       2.059   8.484  18.858  0.00  0.00    +0.000 A 
ATOM      5  N   UNL     1       2.517   8.824  17.648  0.00  0.00    +0.000 NA
ATOM      6  N   UNL     1       3.184   7.713  17.288  0.00  0.00    +0.000 N 
ATOM      7  C   UNL     1       3.031   6.723  18.214  0.00  0.00    +0.000 A 
ATOM      8  N   UNL     1       2.321   7.196  19.215  0.00  0.00    +0.000 NA
ATOM      9  H   UNL     1       1.200  10.263  19.205  0.00  0.00    +0.000 HD
ATOM     10  H   UNL     1       3.707   7.702  16.417  0.00  0.00    +0.000 HD
ENDROOT
BRANCH   1  12
ATOM     11  C   UNL     1      -0.575   9.654  22.796  0.00  0.00    +0.000 C 
ATOM     12  C   UNL     1       0.239  10.225  21.638  0.00  0.00    +0.000 C 
BRANCH  12  13
ATOM     13  N   UNL     1      -0.600  10.867  20.649  0.00  0.00    +0.000 N 
ATOM     14  N   UNL     1      -0.988  12.147  20.745  0.00  0.00    +0.000 NA
ATOM     15  N   UNL     1      -1.777  12.340  19.697  0.00  0.00    +0.000 NA
ATOM     16  C   UNL     1      -1.844  11.144  19.021  0.00  0.00    +0.000 A 
ATOM     17  N   UNL     1      -1.111  10.180  19.609  0.00  0.00    +0.000 NA
BRANCH  16  18
ATOM     18  C   UNL     1      -2.601  10.947  17.795  0.00  0.00    +0.000 A 
ATOM     19  C   UNL     1      -3.853  11.547  17.614  0.00  0.00    +0.000 A 
ATOM     20  C   UNL     1      -4.551  11.377  16.414  0.00  0.00    +0.000 A 
ATOM     21  C   UNL     1      -4.005  10.605  15.390  0.00  0.00    +0.000 A 
ATOM     22  C   UNL     1      -2.768   9.991  15.564  0.00  0.00    +0.000 A 
ATOM     23  C   UNL     1      -2.069  10.159  16.760  0.00  0.00    +0.000 A 
ENDBRANCH  16  18
ENDBRANCH  12  13
ENDBRANCH   1  12
BRANCH   7  24
ATOM     24  C   UNL     1       3.608   5.358  18.077  0.00  0.00    +0.000 C 
BRANCH  24  25
ATOM     25  C   UNL     1       2.851   4.316  18.869  0.00  0.00    +0.000 A 
ATOM     26  C   UNL     1       3.226   4.017  20.191  0.00  0.00    +0.000 A 
ATOM     27  C   UNL     1       2.547   3.041  20.925  0.00  0.00    +0.000 A 
ATOM     28  C   UNL     1       1.479   2.359  20.349  0.00  0.00    +0.000 A 
ATOM     29  C   UNL     1       1.091   2.668  19.051  0.00  0.00    +0.000 A 
ATOM     30  F   UNL     1       0.059   2.018  18.498  0.00  0.00    +0.000 F 
ATOM     31  C   UNL     1       1.761   3.638  18.309  0.00  0.00    +0.000 A 
ENDBRANCH  24  25
ENDBRANCH   7  24
TORSDOF 5
ENDMDL
