MODEL 1
REMARK VINA RESULT:      -6.4      0.000      0.000
REMARK  Name = 
REMARK  2 active torsions:
REMARK  status: ('A' for Active; 'I' for Inactive)
REMARK    1  A    between atoms: C_7  and  S_8
REMARK    2  A    between atoms: N_9  and  C_10
REMARK                            x       y       z     vdW  Elec       q    Type
REMARK                         _______ _______ _______ _____ _____    ______ ____
ROOT
ATOM      1  N   UNL     1       4.763   2.205  20.652  0.00  0.00    +0.000 N 
ATOM      2  C   UNL     1       3.482   2.547  20.866  0.00  0.00    +0.000 A 
ATOM      3  N   UNL     1       2.768   2.232  21.920  0.00  0.00    +0.000 NA
ATOM      4  C   UNL     1       1.543   2.755  21.645  0.00  0.00    +0.000 A 
ATOM      5  N   UNL     1       1.430   3.398  20.483  0.00  0.00    +0.000 NA
ATOM      6  N   UNL     1       2.697   3.273  19.969  0.00  0.00    +0.000 N 
ATOM      7  C   UNL     1       3.033   3.847  18.720  0.00  0.00    +0.000 C 
ATOM      8  N   UNL     1       4.289   3.857  18.356  0.00  0.00    +0.000 NA
ATOM      9  H   UNL     1       5.303   1.848  21.433  0.00  0.00    +0.000 HD
ATOM     10  H   UNL     1       5.307   2.671  19.925  0.00  0.00    +0.000 HD
ENDROOT
BRANCH   8  11
ATOM     11  C   UNL     1       4.763   4.403  17.150  0.00  0.00    +0.000 A 
ATOM     12  C   UNL     1       4.810   5.777  16.891  0.00  0.00    +0.000 A 
ATOM     13  C   UNL     1       5.288   6.267  15.672  0.00  0.00    +0.000 A 
ATOM     14  C   UNL     1       5.802   5.388  14.725  0.00  0.00    +0.000 A 
ATOM     15  C   UNL     1       5.842   4.025  14.998  0.00  0.00    +0.000 A 
ATOM     16  C   UNL     1       5.318   3.537  16.202  0.00  0.00    +0.000 A 
ENDBRANCH   8  11
BRANCH   7  17
ATOM     17  S   UNL     1       1.685   4.504  17.768  0.00  0.00    +0.000 S 
ATOM     18  H   UNL     1       0.935   4.829  18.835  0.00  0.00    +0.000 HD
ENDBRANCH   7  17
TORSDOF 2
ENDMDL
MODEL 2
REMARK VINA RESULT:      -6.3      0.159      1.245
REMARK  Name = 
REMARK  2 active torsions:
REMARK  status: ('A' for Active; 'I' for Inactive)
REMARK    1  A    between atoms: C_7  and  S_8
REMARK    2  A    between atoms: N_9  and  C_10
REMARK                            x       y       z     vdW  Elec       q    Type
REMARK                         _______ _______ _______ _____ _____    ______ ____
ROOT
ATOM      1  N   UNL     1       4.718   2.207  20.711  0.00  0.00    +0.000 N 
ATOM      2  C   UNL     1       3.432   2.544  20.905  0.00  0.00    +0.000 A 
ATOM      3  N   UNL     1       2.702   2.223  21.946  0.00  0.00    +0.000 NA
ATOM      4  C   UNL     1       1.480   2.741  21.652  0.00  0.00    +0.000 A 
ATOM      5  N   UNL     1       1.383   3.387  20.490  0.00  0.00    +0.000 NA
ATOM      6  N   UNL     1       2.659   3.269  19.996  0.00  0.00    +0.000 N 
ATOM      7  C   UNL     1       3.014   3.848  18.755  0.00  0.00    +0.000 C 
ATOM      8  N   UNL     1       4.276   3.864  18.412  0.00  0.00    +0.000 NA
ATOM      9  H   UNL     1       5.246   1.851  21.500  0.00  0.00    +0.000 HD
ATOM     10  H   UNL     1       5.272   2.678  19.994  0.00  0.00    +0.000 HD
ENDROOT
BRANCH   8  11
ATOM     11  C   UNL     1       4.768   4.415  17.216  0.00  0.00    +0.000 A 
ATOM     12  C   UNL     1       5.150   3.646  16.112  0.00  0.00    +0.000 A 
ATOM     13  C   UNL     1       5.638   4.246  14.947  0.00  0.00    +0.000 A 
ATOM     14  C   UNL     1       5.676   5.632  14.844  0.00  0.00    +0.000 A 
ATOM     15  C   UNL     1       5.222   6.415  15.900  0.00  0.00    +0.000 A 
ATOM     16  C   UNL     1       4.778   5.808  17.081  0.00  0.00    +0.000 A 
ENDBRANCH   8  11
BRANCH   7  17
ATOM     17  S   UNL     1       1.680   4.502  17.782  0.00  0.00    +0.000 S 
ATOM     18  H   UNL     1       1.826   3.622  16.777  0.00  0.00    +0.000 HD
ENDBRANCH   7  17
TORSDOF 2
ENDMDL
MODEL 3
REMARK VINA RESULT:      -6.3      2.560      5.565
REMARK  Name = 
REMARK  2 active torsions:
REMARK  status: ('A' for Active; 'I' for Inactive)
REMARK    1  A    between atoms: C_7  and  S_8
REMARK    2  A    between atoms: N_9  and  C_10
REMARK                            x       y       z     vdW  Elec       q    Type
REMARK                         _______ _______ _______ _____ _____    ______ ____
ROOT
ATOM      1  N   UNL     1       7.007   4.224  18.458  0.00  0.00    +0.000 N 
ATOM      2  C   UNL     1       6.823   5.434  17.903  0.00  0.00    +0.000 A 
ATOM      3  N   UNL     1       7.756   6.184  17.368  0.00  0.00    +0.000 NA
ATOM      4  C   UNL     1       7.090   7.310  17.001  0.00  0.00    +0.000 A 
ATOM      5  N   UNL     1       5.782   7.326  17.258  0.00  0.00    +0.000 NA
ATOM      6  N   UNL     1       5.597   6.097  17.843  0.00  0.00    +0.000 N 
ATOM      7  C   UNL     1       4.312   5.679  18.263  0.00  0.00    +0.000 C 
ATOM      8  N   UNL     1       4.153   4.440  18.647  0.00  0.00    +0.000 NA
ATOM      9  H   UNL     1       7.884   3.744  18.286  0.00  0.00    +0.000 HD
ATOM     10  H   UNL     1       6.209   3.616  18.647  0.00  0.00    +0.000 HD
ENDROOT
BRANCH   8  11
ATOM     11  C   UNL     1       2.933   3.890  19.078  0.00  0.00    +0.000 A 
ATOM     12  C   UNL     1       2.073   3.171  18.241  0.00  0.00    +0.000 A 
ATOM     13  C   UNL     1       0.868   2.648  18.720  0.00  0.00    +0.000 A 
ATOM     14  C   UNL     1       0.545   2.771  20.067  0.00  0.00    +0.000 A 
ATOM     15  C   UNL     1       1.427   3.410  20.932  0.00  0.00    +0.000 A 
ATOM     16  C   UNL     1       2.610   3.972  20.436  0.00  0.00    +0.000 A 
ENDBRANCH   8  11
BRANCH   7  17
ATOM     17  S   UNL     1       3.031   6.910  18.220  0.00  0.00    +0.000 S 
ATOM     18  H   UNL     1       2.031   6.046  18.462  0.00  0.00    +0.000 HD
ENDBRANCH   7  17
TORSDOF 2
ENDMDL
MODEL 4
REMARK VINA RESULT:      -6.3      2.059      5.629
REMARK  Name = 
REMARK  2 active torsions:
REMARK  status: ('A' for Active; 'I' for Inactive)
REMARK    1  A    between atoms: C_7  and  S_8
REMARK    2  A    between atoms: N_9  and  C_10
REMARK                            x       y       z     vdW  Elec       q    Type
REMARK                         _______ _______ _______ _____ _____    ______ ____
ROOT
ATOM      1  N   UNL     1       7.295   4.989  18.523  0.00  0.00    +0.000 N 
ATOM      2  C   UNL     1       6.946   4.647  17.272  0.00  0.00    +0.000 A 
ATOM      3  N   UNL     1       7.722   4.697  16.216  0.00  0.00    +0.000 NA
ATOM      4  C   UNL     1       6.906   4.307  15.201  0.00  0.00    +0.000 A 
ATOM      5  N   UNL     1       5.656   3.998  15.542  0.00  0.00    +0.000 NA
ATOM      6  N   UNL     1       5.674   4.211  16.898  0.00  0.00    +0.000 N 
ATOM      7  C   UNL     1       4.522   3.975  17.685  0.00  0.00    +0.000 C 
ATOM      8  N   UNL     1       4.636   4.019  18.987  0.00  0.00    +0.000 NA
ATOM      9  H   UNL     1       8.280   5.109  18.732  0.00  0.00    +0.000 HD
ATOM     10  H   UNL     1       6.713   4.713  19.315  0.00  0.00    +0.000 HD
ENDROOT
BRANCH   8  11
ATOM     11  C   UNL     1       3.580   3.795  19.887  0.00  0.00    +0.000 A 
ATOM     12  C   UNL     1       2.535   4.703  20.092  0.00  0.00    +0.000 A 
ATOM     13  C   UNL     1       1.510   4.431  21.003  0.00  0.00    +0.000 A 
ATOM     14  C   UNL     1       1.475   3.209  21.664  0.00  0.00    +0.000 A 
ATOM     15  C   UNL     1       2.459   2.259  21.412  0.00  0.00    +0.000 A 
ATOM     16  C   UNL     1       3.508   2.556  20.532  0.00  0.00    +0.000 A 
ENDBRANCH   8  11
BRANCH   7  17
ATOM     17  S   UNL     1       3.019   3.639  16.800  0.00  0.00    +0.000 S 
ATOM     18  H   UNL     1       2.518   4.878  16.946  0.00  0.00    +0.000 HD
ENDBRANCH   7  17
TORSDOF 2
ENDMDL
MODEL 5
REMARK VINA RESULT:      -6.3      2.240      2.718
REMARK  Name = 
REMARK  2 active torsions:
REMARK  status: ('A' for Active; 'I' for Inactive)
REMARK    1  A    between atoms: C_7  and  S_8
REMARK    2  A    between atoms: N_9  and  C_10
REMARK                            x       y       z     vdW  Elec       q    Type
REMARK                         _______ _______ _______ _____ _____    ______ ____
ROOT
ATOM      1  N   UNL     1       3.744   1.804  17.957  0.00  0.00    +0.000 N 
ATOM      2  C   UNL     1       2.688   2.361  18.573  0.00  0.00    +0.000 A 
ATOM      3  N   UNL     1       1.583   1.742  18.913  0.00  0.00    +0.000 NA
ATOM      4  C   UNL     1       0.816   2.728  19.449  0.00  0.00    +0.000 A 
ATOM      5  N   UNL     1       1.365   3.942  19.485  0.00  0.00    +0.000 NA
ATOM      6  N   UNL     1       2.595   3.710  18.919  0.00  0.00    +0.000 N 
ATOM      7  C   UNL     1       3.538   4.755  18.777  0.00  0.00    +0.000 C 
ATOM      8  N   UNL     1       4.753   4.452  18.401  0.00  0.00    +0.000 NA
ATOM      9  H   UNL     1       3.801   0.792  17.919  0.00  0.00    +0.000 HD
ATOM     10  H   UNL     1       4.641   2.292  17.929  0.00  0.00    +0.000 HD
ENDROOT
BRANCH   8  11
ATOM     11  C   UNL     1       5.790   5.387  18.231  0.00  0.00    +0.000 A 
ATOM     12  C   UNL     1       5.762   6.404  17.271  0.00  0.00    +0.000 A 
ATOM     13  C   UNL     1       6.823   7.305  17.141  0.00  0.00    +0.000 A 
ATOM     14  C   UNL     1       7.893   7.249  18.028  0.00  0.00    +0.000 A 
ATOM     15  C   UNL     1       7.899   6.298  19.043  0.00  0.00    +0.000 A 
ATOM     16  C   UNL     1       6.855   5.369  19.137  0.00  0.00    +0.000 A 
ENDBRANCH   8  11
BRANCH   7  17
ATOM     17  S   UNL     1       2.955   6.395  19.135  0.00  0.00    +0.000 S 
ATOM     18  H   UNL     1       1.818   6.271  18.428  0.00  0.00    +0.000 HD
ENDBRANCH   7  17
TORSDOF 2
ENDMDL
MODEL 6
REMARK VINA RESULT:      -6.3      2.331      2.794
REMARK  Name = 
REMARK  2 active torsions:
REMARK  status: ('A' for Active; 'I' for Inactive)
REMARK    1  A    between atoms: C_7  and  S_8
REMARK    2  A    between atoms: N_9  and  C_10
REMARK                            x       y       z     vdW  Elec       q    Type
REMARK                         _______ _______ _______ _____ _____    ______ ____
ROOT
ATOM      1  N   UNL     1       2.304   4.839  21.176  0.00  0.00    +0.000 N 
ATOM      2  C   UNL     1       1.805   3.998  20.255  0.00  0.00    +0.000 A 
ATOM      3  N   UNL     1       0.684   3.325  20.355  0.00  0.00    +0.000 NA
ATOM      4  C   UNL     1       0.649   2.590  19.212  0.00  0.00    +0.000 A 
ATOM      5  N   UNL     1       1.673   2.758  18.377  0.00  0.00    +0.000 NA
ATOM      6  N   UNL     1       2.433   3.684  19.048  0.00  0.00    +0.000 N 
ATOM      7  C   UNL     1       3.637   4.176  18.491  0.00  0.00    +0.000 C 
ATOM      8  N   UNL     1       4.231   5.182  19.079  0.00  0.00    +0.000 NA
ATOM      9  H   UNL     1       1.695   5.149  21.925  0.00  0.00    +0.000 HD
ATOM     10  H   UNL     1       3.055   5.486  20.930  0.00  0.00    +0.000 HD
ENDROOT
BRANCH   8  11
ATOM     11  C   UNL     1       5.423   5.776  18.629  0.00  0.00    +0.000 A 
ATOM     12  C   UNL     1       5.471   6.739  17.615  0.00  0.00    +0.000 A 
ATOM     13  C   UNL     1       6.685   7.295  17.202  0.00  0.00    +0.000 A 
ATOM     14  C   UNL     1       7.864   6.950  17.856  0.00  0.00    +0.000 A 
ATOM     15  C   UNL     1       7.826   6.057  18.921  0.00  0.00    +0.000 A 
ATOM     16  C   UNL     1       6.612   5.469  19.299  0.00  0.00    +0.000 A 
ENDBRANCH   8  11
BRANCH   7  17
ATOM     17  S   UNL     1       4.219   3.357  17.026  0.00  0.00    +0.000 S 
ATOM     18  H   UNL     1       5.283   2.792  17.623  0.00  0.00    +0.000 HD
ENDBRANCH   7  17
TORSDOF 2
ENDMDL
MODEL 7
REMARK VINA RESULT:      -6.3      2.252      2.789
REMARK  Name = 
REMARK  2 active torsions:
REMARK  status: ('A' for Active; 'I' for Inactive)
REMARK    1  A    between atoms: C_7  and  S_8
REMARK    2  A    between atoms: N_9  and  C_10
REMARK                            x       y       z     vdW  Elec       q    Type
REMARK                         _______ _______ _______ _____ _____    ______ ____
ROOT
ATOM      1  N   UNL     1       3.717   1.859  17.947  0.00  0.00    +0.000 N 
ATOM      2  C   UNL     1       2.662   2.402  18.576  0.00  0.00    +0.000 A 
ATOM      3  N   UNL     1       1.550   1.780  18.888  0.00  0.00    +0.000 NA
ATOM      4  C   UNL     1       0.787   2.753  19.452  0.00  0.00    +0.000 A 
ATOM      5  N   UNL     1       1.345   3.961  19.533  0.00  0.00    +0.000 NA
ATOM      6  N   UNL     1       2.576   3.738  18.967  0.00  0.00    +0.000 N 
ATOM      7  C   UNL     1       3.528   4.780  18.868  0.00  0.00    +0.000 C 
ATOM      8  N   UNL     1       4.743   4.482  18.489  0.00  0.00    +0.000 NA
ATOM      9  H   UNL     1       3.767   0.848  17.874  0.00  0.00    +0.000 HD
ATOM     10  H   UNL     1       4.618   2.340  17.942  0.00  0.00    +0.000 HD
ENDROOT
BRANCH   8  11
ATOM     11  C   UNL     1       5.788   5.414  18.358  0.00  0.00    +0.000 A 
ATOM     12  C   UNL     1       6.915   5.430  19.186  0.00  0.00    +0.000 A 
ATOM     13  C   UNL     1       7.924   6.383  19.015  0.00  0.00    +0.000 A 
ATOM     14  C   UNL     1       7.856   7.284  17.958  0.00  0.00    +0.000 A 
ATOM     15  C   UNL     1       6.784   7.230  17.073  0.00  0.00    +0.000 A 
ATOM     16  C   UNL     1       5.754   6.303  17.278  0.00  0.00    +0.000 A 
ENDBRANCH   8  11
BRANCH   7  17
ATOM     17  S   UNL     1       2.955   6.412  19.278  0.00  0.00    +0.000 S 
ATOM     18  H   UNL     1       3.926   7.050  18.602  0.00  0.00    +0.000 HD
ENDBRANCH   7  17
TORSDOF 2
ENDMDL
MODEL 8
REMARK VINA RESULT:      -6.3      1.095      1.136
REMARK  Name = 
REMARK  2 active torsions:
REMARK  status: ('A' for Active; 'I' for Inactive)
REMARK    1  A    between atoms: C_7  and  S_8
REMARK    2  A    between atoms: N_9  and  C_10
REMARK                            x       y       z     vdW  Elec       q    Type
REMARK                         _______ _______ _______ _____ _____    ______ ____
ROOT
ATOM      1  N   UNL     1       4.745   1.722  20.252  0.00  0.00    +0.000 N 
ATOM      2  C   UNL     1       3.762   2.548  20.650  0.00  0.00    +0.000 A 
ATOM      3  N   UNL     1       3.028   2.406  21.727  0.00  0.00    +0.000 NA
ATOM      4  C   UNL     1       2.157   3.447  21.661  0.00  0.00    +0.000 A 
ATOM      5  N   UNL     1       2.294   4.257  20.612  0.00  0.00    +0.000 NA
ATOM      6  N   UNL     1       3.347   3.680  19.947  0.00  0.00    +0.000 N 
ATOM      7  C   UNL     1       3.852   4.248  18.753  0.00  0.00    +0.000 C 
ATOM      8  N   UNL     1       4.962   3.771  18.255  0.00  0.00    +0.000 NA
ATOM      9  H   UNL     1       5.101   1.043  20.914  0.00  0.00    +0.000 HD
ATOM     10  H   UNL     1       5.408   2.019  19.534  0.00  0.00    +0.000 HD
ENDROOT
BRANCH   8  11
ATOM     11  C   UNL     1       5.579   4.247  17.085  0.00  0.00    +0.000 A 
ATOM     12  C   UNL     1       6.772   4.978  17.085  0.00  0.00    +0.000 A 
ATOM     13  C   UNL     1       7.342   5.432  15.891  0.00  0.00    +0.000 A 
ATOM     14  C   UNL     1       6.765   5.089  14.673  0.00  0.00    +0.000 A 
ATOM     15  C   UNL     1       5.625   4.292  14.649  0.00  0.00    +0.000 A 
ATOM     16  C   UNL     1       5.034   3.881  15.850  0.00  0.00    +0.000 A 
ENDBRANCH   8  11
BRANCH   7  17
ATOM     17  S   UNL     1       2.901   5.574  18.050  0.00  0.00    +0.000 S 
ATOM     18  H   UNL     1       1.762   4.866  17.959  0.00  0.00    +0.000 HD
ENDBRANCH   7  17
TORSDOF 2
ENDMDL
MODEL 9
REMARK VINA RESULT:      -6.3      2.547      5.486
REMARK  Name = 
REMARK  2 active torsions:
REMARK  status: ('A' for Active; 'I' for Inactive)
REMARK    1  A    between atoms: C_7  and  S_8
REMARK    2  A    between atoms: N_9  and  C_10
REMARK                            x       y       z     vdW  Elec       q    Type
REMARK                         _______ _______ _______ _____ _____    ______ ____
ROOT
ATOM      1  N   UNL     1       7.050   4.233  18.446  0.00  0.00    +0.000 N 
ATOM      2  C   UNL     1       6.839   5.431  17.876  0.00  0.00    +0.000 A 
ATOM      3  N   UNL     1       7.750   6.183  17.306  0.00  0.00    +0.000 NA
ATOM      4  C   UNL     1       7.062   7.296  16.938  0.00  0.00    +0.000 A 
ATOM      5  N   UNL     1       5.761   7.301  17.225  0.00  0.00    +0.000 NA
ATOM      6  N   UNL     1       5.604   6.080  17.834  0.00  0.00    +0.000 N 
ATOM      7  C   UNL     1       4.334   5.655  18.292  0.00  0.00    +0.000 C 
ATOM      8  N   UNL     1       4.199   4.420  18.700  0.00  0.00    +0.000 NA
ATOM      9  H   UNL     1       7.928   3.761  18.261  0.00  0.00    +0.000 HD
ATOM     10  H   UNL     1       6.263   3.620  18.663  0.00  0.00    +0.000 HD
ENDROOT
BRANCH   8  11
ATOM     11  C   UNL     1       2.996   3.864  19.169  0.00  0.00    +0.000 A 
ATOM     12  C   UNL     1       2.516   4.049  20.470  0.00  0.00    +0.000 A 
ATOM     13  C   UNL     1       1.314   3.469  20.886  0.00  0.00    +0.000 A 
ATOM     14  C   UNL     1       0.535   2.759  19.978  0.00  0.00    +0.000 A 
ATOM     15  C   UNL     1       0.955   2.634  18.658  0.00  0.00    +0.000 A 
ATOM     16  C   UNL     1       2.182   3.179  18.260  0.00  0.00    +0.000 A 
ENDBRANCH   8  11
BRANCH   7  17
ATOM     17  S   UNL     1       3.038   6.870  18.260  0.00  0.00    +0.000 S 
ATOM     18  H   UNL     1       3.841   7.887  17.901  0.00  0.00    +0.000 HD
ENDBRANCH   7  17
TORSDOF 2
ENDMDL
