MODEL 1
REMARK VINA RESULT:      -8.3      0.000      0.000
REMARK  Name = 
REMARK  8 active torsions:
REMARK  status: ('A' for Active; 'I' for Inactive)
REMARK    1  A    between atoms: C_1  and  O_2
REMARK    2  A    between atoms: O_2  and  C_3
REMARK    3  A    between atoms: C_6  and  C_7
REMARK    4  A    between atoms: N_9  and  C_10
REMARK    5  A    between atoms: C_14  and  C_15
REMARK    6  A    between atoms: C_24  and  C_25
REMARK    7  A    between atoms: C_27  and  O_28
REMARK    8  A    between atoms: O_28  and  C_29
REMARK                            x       y       z     vdW  Elec       q    Type
REMARK                         _______ _______ _______ _____ _____    ______ ____
ROOT
ATOM      1  C   UNL     1       3.271   6.094  19.243  0.00  0.00    +0.000 A 
ATOM      2  C   UNL     1       3.354   4.906  19.983  0.00  0.00    +0.000 A 
ATOM      3  C   UNL     1       4.085   3.817  19.536  0.00  0.00    +0.000 A 
ATOM      4  C   UNL     1       4.740   3.889  18.318  0.00  0.00    +0.000 A 
ATOM      5  C   UNL     1       4.668   5.047  17.517  0.00  0.00    +0.000 A 
ATOM      6  C   UNL     1       3.922   6.171  17.979  0.00  0.00    +0.000 A 
ATOM      7  C   UNL     1       3.817   7.426  17.143  0.00  0.00    +0.000 C 
ENDROOT
BRANCH   5   8
ATOM      8  C   UNL     1       5.414   5.028  16.251  0.00  0.00    +0.000 A 
ATOM      9  N   UNL     1       6.498   5.686  15.882  0.00  0.00    +0.000 NA
ATOM     10  C   UNL     1       6.764   5.194  14.635  0.00  0.00    +0.000 A 
ATOM     11  N   UNL     1       7.812   5.521  13.843  0.00  0.00    +0.000 NA
ATOM     12  C   UNL     1       7.835   4.844  12.669  0.00  0.00    +0.000 A 
ATOM     13  C   UNL     1       6.898   3.899  12.247  0.00  0.00    +0.000 A 
ATOM     14  C   UNL     1       5.818   3.580  13.070  0.00  0.00    +0.000 A 
ATOM     15  C   UNL     1       5.807   4.264  14.274  0.00  0.00    +0.000 A 
ATOM     16  O   UNL     1       4.923   4.157  15.301  0.00  0.00    +0.000 OA
ENDBRANCH   5   8
BRANCH   1  19
ATOM     17  C   UNL     1       1.418   7.126  20.561  0.00  0.00    +0.000 C 
ATOM     18  O   UNL     1       0.870   6.103  20.947  0.00  0.00    +0.000 OA
ATOM     19  N   UNL     1       2.551   7.210  19.761  0.00  0.00    +0.000 N 
ATOM     20  H   UNL     1       2.988   8.115  19.686  0.00  0.00    +0.000 HD
BRANCH  17  24
ATOM     21  C   UNL     1      -0.115  10.763  22.220  0.00  0.00    +0.000 A 
ATOM     22  C   UNL     1      -0.437   9.517  22.773  0.00  0.00    +0.000 A 
ATOM     23  C   UNL     1       0.063   8.345  22.215  0.00  0.00    +0.000 A 
ATOM     24  C   UNL     1       0.860   8.403  21.069  0.00  0.00    +0.000 A 
ATOM     25  C   UNL     1       1.073   9.627  20.437  0.00  0.00    +0.000 A 
ATOM     26  C   UNL     1       0.586  10.818  21.002  0.00  0.00    +0.000 A 
BRANCH  21  28
ATOM     27  C   UNL     1      -1.840  12.332  22.579  0.00  0.00    +0.000 C 
ATOM     28  O   UNL     1      -0.500  11.914  22.854  0.00  0.00    +0.000 OA
ENDBRANCH  21  28
BRANCH  26  29
ATOM     29  O   UNL     1       0.911  11.912  20.245  0.00  0.00    +0.000 OA
ATOM     30  C   UNL     1       0.150  12.195  19.081  0.00  0.00    +0.000 C 
ENDBRANCH  26  29
ENDBRANCH  17  24
ENDBRANCH   1  19
TORSDOF 5
ENDMDL
MODEL 2
REMARK VINA RESULT:      -8.1      1.545      2.174
REMARK  Name = 
REMARK  8 active torsions:
REMARK  status: ('A' for Active; 'I' for Inactive)
REMARK    1  A    between atoms: C_1  and  O_2
REMARK    2  A    between atoms: O_2  and  C_3
REMARK    3  A    between atoms: C_6  and  C_7
REMARK    4  A    between atoms: N_9  and  C_10
REMARK    5  A    between atoms: C_14  and  C_15
REMARK    6  A    between atoms: C_24  and  C_25
REMARK    7  A    between atoms: C_27  and  O_28
REMARK    8  A    between atoms: O_28  and  C_29
REMARK                            x       y       z     vdW  Elec       q    Type
REMARK                         _______ _______ _______ _____ _____    ______ ____
ROOT
ATOM      1  C   UNL     1       1.668   7.017  20.149  0.00  0.00    +0.000 A 
ATOM      2  C   UNL     1       1.601   5.915  21.013  0.00  0.00    +0.000 A 
ATOM      3  C   UNL     1       2.418   4.807  20.849  0.00  0.00    +0.000 A 
ATOM      4  C   UNL     1       3.314   4.771  19.794  0.00  0.00    +0.000 A 
ATOM      5  C   UNL     1       3.405   5.837  18.876  0.00  0.00    +0.000 A 
ATOM      6  C   UNL     1       2.570   6.980  19.048  0.00  0.00    +0.000 A 
ATOM      7  C   UNL     1       2.635   8.138  18.078  0.00  0.00    +0.000 C 
ENDROOT
BRANCH   5   8
ATOM      8  C   UNL     1       4.401   5.708  17.804  0.00  0.00    +0.000 A 
ATOM      9  N   UNL     1       5.612   6.224  17.688  0.00  0.00    +0.000 NA
ATOM     10  C   UNL     1       6.081   5.685  16.523  0.00  0.00    +0.000 A 
ATOM     11  N   UNL     1       7.308   5.869  15.984  0.00  0.00    +0.000 NA
ATOM     12  C   UNL     1       7.505   5.177  14.835  0.00  0.00    +0.000 A 
ATOM     13  C   UNL     1       6.574   4.346  14.207  0.00  0.00    +0.000 A 
ATOM     14  C   UNL     1       5.309   4.174  14.771  0.00  0.00    +0.000 A 
ATOM     15  C   UNL     1       5.120   4.872  15.951  0.00  0.00    +0.000 A 
ATOM     16  O   UNL     1       4.027   4.889  16.758  0.00  0.00    +0.000 OA
ENDBRANCH   5   8
BRANCH   1  19
ATOM     17  C   UNL     1       0.962   9.015  21.470  0.00  0.00    +0.000 C 
ATOM     18  O   UNL     1       1.773   8.932  22.382  0.00  0.00    +0.000 OA
ATOM     19  N   UNL     1       0.847   8.158  20.382  0.00  0.00    +0.000 N 
ATOM     20  H   UNL     1       0.258   8.464  19.623  0.00  0.00    +0.000 HD
BRANCH  17  24
ATOM     21  C   UNL     1      -1.513  12.501  21.695  0.00  0.00    +0.000 A 
ATOM     22  C   UNL     1      -1.324  11.668  22.805  0.00  0.00    +0.000 A 
ATOM     23  C   UNL     1      -0.524  10.534  22.711  0.00  0.00    +0.000 A 
ATOM     24  C   UNL     1       0.066  10.196  21.490  0.00  0.00    +0.000 A 
ATOM     25  C   UNL     1      -0.227  10.945  20.352  0.00  0.00    +0.000 A 
ATOM     26  C   UNL     1      -1.021  12.101  20.440  0.00  0.00    +0.000 A 
BRANCH  21  28
ATOM     27  C   UNL     1      -3.586  13.546  22.114  0.00  0.00    +0.000 C 
ATOM     28  O   UNL     1      -2.190  13.683  21.833  0.00  0.00    +0.000 OA
ENDBRANCH  21  28
BRANCH  26  29
ATOM     29  O   UNL     1      -1.179  12.705  19.221  0.00  0.00    +0.000 OA
ATOM     30  C   UNL     1      -1.602  11.924  18.114  0.00  0.00    +0.000 C 
ENDBRANCH  26  29
ENDBRANCH  17  24
ENDBRANCH   1  19
TORSDOF 5
ENDMDL
MODEL 3
REMARK VINA RESULT:      -8.0      3.347     10.767
REMARK  Name = 
REMARK  8 active torsions:
REMARK  status: ('A' for Active; 'I' for Inactive)
REMARK    1  A    between atoms: C_1  and  O_2
REMARK    2  A    between atoms: O_2  and  C_3
REMARK    3  A    between atoms: C_6  and  C_7
REMARK    4  A    between atoms: N_9  and  C_10
REMARK    5  A    between atoms: C_14  and  C_15
REMARK    6  A    between atoms: C_24  and  C_25
REMARK    7  A    between atoms: C_27  and  O_28
REMARK    8  A    between atoms: O_28  and  C_29
REMARK                            x       y       z     vdW  Elec       q    Type
REMARK                         _______ _______ _______ _____ _____    ______ ____
ROOT
ATOM      1  C   UNL     1      -0.052  10.016  19.319  0.00  0.00    +0.000 A 
ATOM      2  C   UNL     1      -0.792  10.444  18.208  0.00  0.00    +0.000 A 
ATOM      3  C   UNL     1      -1.627  11.550  18.268  0.00  0.00    +0.000 A 
ATOM      4  C   UNL     1      -1.752  12.245  19.459  0.00  0.00    +0.000 A 
ATOM      5  C   UNL     1      -1.055  11.843  20.616  0.00  0.00    +0.000 A 
ATOM      6  C   UNL     1      -0.191  10.710  20.554  0.00  0.00    +0.000 A 
ATOM      7  C   UNL     1       0.566  10.247  21.778  0.00  0.00    +0.000 C 
ENDROOT
BRANCH   5   8
ATOM      8  C   UNL     1      -1.243  12.659  21.823  0.00  0.00    +0.000 A 
ATOM      9  N   UNL     1      -0.432  13.515  22.418  0.00  0.00    +0.000 NA
ATOM     10  C   UNL     1      -1.188  14.020  23.439  0.00  0.00    +0.000 A 
ATOM     11  N   UNL     1      -0.820  14.977  24.321  0.00  0.00    +0.000 NA
ATOM     12  C   UNL     1      -1.794  15.304  25.205  0.00  0.00    +0.000 A 
ATOM     13  C   UNL     1      -3.071  14.741  25.264  0.00  0.00    +0.000 A 
ATOM     14  C   UNL     1      -3.433  13.748  24.354  0.00  0.00    +0.000 A 
ATOM     15  C   UNL     1      -2.438  13.429  23.445  0.00  0.00    +0.000 A 
ATOM     16  O   UNL     1      -2.483  12.540  22.418  0.00  0.00    +0.000 OA
ENDBRANCH   5   8
BRANCH   1  19
ATOM     17  C   UNL     1       1.858   8.797  18.269  0.00  0.00    +0.000 C 
ATOM     18  O   UNL     1       2.162   9.623  17.418  0.00  0.00    +0.000 OA
ATOM     19  N   UNL     1       0.834   8.906  19.202  0.00  0.00    +0.000 N 
ATOM     20  H   UNL     1       0.830   8.233  19.952  0.00  0.00    +0.000 HD
BRANCH  17  24
ATOM     21  C   UNL     1       4.532   5.463  18.530  0.00  0.00    +0.000 A 
ATOM     22  C   UNL     1       4.625   6.393  17.487  0.00  0.00    +0.000 A 
ATOM     23  C   UNL     1       3.742   7.465  17.413  0.00  0.00    +0.000 A 
ATOM     24  C   UNL     1       2.725   7.598  18.362  0.00  0.00    +0.000 A 
ATOM     25  C   UNL     1       2.543   6.605  19.322  0.00  0.00    +0.000 A 
ATOM     26  C   UNL     1       3.440   5.526  19.415  0.00  0.00    +0.000 A 
BRANCH  21  28
ATOM     27  C   UNL     1       6.538   4.539  17.702  0.00  0.00    +0.000 C 
ATOM     28  O   UNL     1       5.486   4.491  18.670  0.00  0.00    +0.000 OA
ENDBRANCH  21  28
BRANCH  26  29
ATOM     29  O   UNL     1       3.104   4.669  20.429  0.00  0.00    +0.000 OA
ATOM     30  C   UNL     1       1.733   4.485  20.750  0.00  0.00    +0.000 C 
ENDBRANCH  26  29
ENDBRANCH  17  24
ENDBRANCH   1  19
TORSDOF 5
ENDMDL
MODEL 4
REMARK VINA RESULT:      -7.9      3.300     10.761
REMARK  Name = 
REMARK  8 active torsions:
REMARK  status: ('A' for Active; 'I' for Inactive)
REMARK    1  A    between atoms: C_1  and  O_2
REMARK    2  A    between atoms: O_2  and  C_3
REMARK    3  A    between atoms: C_6  and  C_7
REMARK    4  A    between atoms: N_9  and  C_10
REMARK    5  A    between atoms: C_14  and  C_15
REMARK    6  A    between atoms: C_24  and  C_25
REMARK    7  A    between atoms: C_27  and  O_28
REMARK    8  A    between atoms: O_28  and  C_29
REMARK                            x       y       z     vdW  Elec       q    Type
REMARK                         _______ _______ _______ _____ _____    ______ ____
ROOT
ATOM      1  C   UNL     1      -0.056  10.051  19.327  0.00  0.00    +0.000 A 
ATOM      2  C   UNL     1      -0.786  10.489  18.213  0.00  0.00    +0.000 A 
ATOM      3  C   UNL     1      -1.602  11.608  18.269  0.00  0.00    +0.000 A 
ATOM      4  C   UNL     1      -1.718  12.308  19.458  0.00  0.00    +0.000 A 
ATOM      5  C   UNL     1      -1.031  11.897  20.618  0.00  0.00    +0.000 A 
ATOM      6  C   UNL     1      -0.186  10.750  20.560  0.00  0.00    +0.000 A 
ATOM      7  C   UNL     1       0.560  10.276  21.787  0.00  0.00    +0.000 C 
ENDROOT
BRANCH   5   8
ATOM      8  C   UNL     1      -1.208  12.719  21.823  0.00  0.00    +0.000 A 
ATOM      9  N   UNL     1      -0.390  13.578  22.406  0.00  0.00    +0.000 NA
ATOM     10  C   UNL     1      -1.137  14.088  23.431  0.00  0.00    +0.000 A 
ATOM     11  N   UNL     1      -0.761  15.050  24.305  0.00  0.00    +0.000 NA
ATOM     12  C   UNL     1      -1.727  15.381  25.196  0.00  0.00    +0.000 A 
ATOM     13  C   UNL     1      -3.004  14.818  25.270  0.00  0.00    +0.000 A 
ATOM     14  C   UNL     1      -3.374  13.821  24.367  0.00  0.00    +0.000 A 
ATOM     15  C   UNL     1      -2.387  13.497  23.451  0.00  0.00    +0.000 A 
ATOM     16  O   UNL     1      -2.442  12.603  22.429  0.00  0.00    +0.000 OA
ENDBRANCH   5   8
BRANCH   1  19
ATOM     17  C   UNL     1       1.852   8.807  18.302  0.00  0.00    +0.000 C 
ATOM     18  O   UNL     1       2.190   9.637  17.468  0.00  0.00    +0.000 OA
ATOM     19  N   UNL     1       0.811   8.925  19.215  0.00  0.00    +0.000 N 
ATOM     20  H   UNL     1       0.778   8.243  19.956  0.00  0.00    +0.000 HD
BRANCH  17  24
ATOM     21  C   UNL     1       4.103   5.178  18.606  0.00  0.00    +0.000 A 
ATOM     22  C   UNL     1       3.200   5.562  19.605  0.00  0.00    +0.000 A 
ATOM     23  C   UNL     1       2.484   6.749  19.495  0.00  0.00    +0.000 A 
ATOM     24  C   UNL     1       2.694   7.591  18.398  0.00  0.00    +0.000 A 
ATOM     25  C   UNL     1       3.686   7.280  17.471  0.00  0.00    +0.000 A 
ATOM     26  C   UNL     1       4.403   6.075  17.565  0.00  0.00    +0.000 A 
BRANCH  21  28
ATOM     27  C   UNL     1       3.925   2.880  18.105  0.00  0.00    +0.000 C 
ATOM     28  O   UNL     1       4.701   3.947  18.658  0.00  0.00    +0.000 OA
ENDBRANCH  21  28
BRANCH  26  29
ATOM     29  O   UNL     1       5.319   5.946  16.556  0.00  0.00    +0.000 OA
ATOM     30  C   UNL     1       6.693   6.158  16.840  0.00  0.00    +0.000 C 
ENDBRANCH  26  29
ENDBRANCH  17  24
ENDBRANCH   1  19
TORSDOF 5
ENDMDL
MODEL 5
REMARK VINA RESULT:      -7.9      1.578      2.645
REMARK  Name = 
REMARK  8 active torsions:
REMARK  status: ('A' for Active; 'I' for Inactive)
REMARK    1  A    between atoms: C_1  and  O_2
REMARK    2  A    between atoms: O_2  and  C_3
REMARK    3  A    between atoms: C_6  and  C_7
REMARK    4  A    between atoms: N_9  and  C_10
REMARK    5  A    between atoms: C_14  and  C_15
REMARK    6  A    between atoms: C_24  and  C_25
REMARK    7  A    between atoms: C_27  and  O_28
REMARK    8  A    between atoms: O_28  and  C_29
REMARK                            x       y       z     vdW  Elec       q    Type
REMARK                         _______ _______ _______ _____ _____    ______ ____
ROOT
ATOM      1  C   UNL     1       1.660   7.197  19.937  0.00  0.00    +0.000 A 
ATOM      2  C   UNL     1       1.589   6.144  20.860  0.00  0.00    +0.000 A 
ATOM      3  C   UNL     1       2.421   5.038  20.773  0.00  0.00    +0.000 A 
ATOM      4  C   UNL     1       3.338   4.955  19.738  0.00  0.00    +0.000 A 
ATOM      5  C   UNL     1       3.434   5.969  18.764  0.00  0.00    +0.000 A 
ATOM      6  C   UNL     1       2.583   7.110  18.856  0.00  0.00    +0.000 A 
ATOM      7  C   UNL     1       2.654   8.214  17.825  0.00  0.00    +0.000 C 
ENDROOT
BRANCH   5   8
ATOM      8  C   UNL     1       4.451   5.794  17.718  0.00  0.00    +0.000 A 
ATOM      9  N   UNL     1       5.666   6.300  17.607  0.00  0.00    +0.000 NA
ATOM     10  C   UNL     1       6.157   5.712  16.475  0.00  0.00    +0.000 A 
ATOM     11  N   UNL     1       7.396   5.871  15.954  0.00  0.00    +0.000 NA
ATOM     12  C   UNL     1       7.613   5.131  14.838  0.00  0.00    +0.000 A 
ATOM     13  C   UNL     1       6.692   4.278  14.226  0.00  0.00    +0.000 A 
ATOM     14  C   UNL     1       5.415   4.133  14.770  0.00  0.00    +0.000 A 
ATOM     15  C   UNL     1       5.204   4.880  15.917  0.00  0.00    +0.000 A 
ATOM     16  O   UNL     1       4.095   4.933  16.700  0.00  0.00    +0.000 OA
ENDBRANCH   5   8
BRANCH   1  19
ATOM     17  C   UNL     1       0.787   9.157  21.214  0.00  0.00    +0.000 C 
ATOM     18  O   UNL     1       1.458   9.033  22.229  0.00  0.00    +0.000 OA
ATOM     19  N   UNL     1       0.823   8.340  20.091  0.00  0.00    +0.000 N 
ATOM     20  H   UNL     1       0.350   8.678  19.268  0.00  0.00    +0.000 HD
BRANCH  17  24
ATOM     21  C   UNL     1      -1.898  12.478  20.911  0.00  0.00    +0.000 A 
ATOM     22  C   UNL     1      -1.436  11.807  19.772  0.00  0.00    +0.000 A 
ATOM     23  C   UNL     1      -0.557  10.736  19.889  0.00  0.00    +0.000 A 
ATOM     24  C   UNL     1      -0.094  10.347  21.149  0.00  0.00    +0.000 A 
ATOM     25  C   UNL     1      -0.443  11.095  22.273  0.00  0.00    +0.000 A 
ATOM     26  C   UNL     1      -1.344  12.168  22.167  0.00  0.00    +0.000 A 
BRANCH  21  28
ATOM     27  C   UNL     1      -4.203  12.972  20.975  0.00  0.00    +0.000 C 
ATOM     28  O   UNL     1      -2.864  13.441  20.796  0.00  0.00    +0.000 OA
ENDBRANCH  21  28
BRANCH  26  29
ATOM     29  O   UNL     1      -1.572  12.764  23.379  0.00  0.00    +0.000 OA
ATOM     30  C   UNL     1      -1.167  14.110  23.572  0.00  0.00    +0.000 C 
ENDBRANCH  26  29
ENDBRANCH  17  24
ENDBRANCH   1  19
TORSDOF 5
ENDMDL
MODEL 6
REMARK VINA RESULT:      -7.8      3.986      6.068
REMARK  Name = 
REMARK  8 active torsions:
REMARK  status: ('A' for Active; 'I' for Inactive)
REMARK    1  A    between atoms: C_1  and  O_2
REMARK    2  A    between atoms: O_2  and  C_3
REMARK    3  A    between atoms: C_6  and  C_7
REMARK    4  A    between atoms: N_9  and  C_10
REMARK    5  A    between atoms: C_14  and  C_15
REMARK    6  A    between atoms: C_24  and  C_25
REMARK    7  A    between atoms: C_27  and  O_28
REMARK    8  A    between atoms: O_28  and  C_29
REMARK                            x       y       z     vdW  Elec       q    Type
REMARK                         _______ _______ _______ _____ _____    ______ ____
ROOT
ATOM      1  C   UNL     1       0.937  10.210  20.096  0.00  0.00    +0.000 A 
ATOM      2  C   UNL     1       1.185  10.699  18.805  0.00  0.00    +0.000 A 
ATOM      3  C   UNL     1       1.767   9.911  17.825  0.00  0.00    +0.000 A 
ATOM      4  C   UNL     1       2.135   8.610  18.125  0.00  0.00    +0.000 A 
ATOM      5  C   UNL     1       1.937   8.074  19.414  0.00  0.00    +0.000 A 
ATOM      6  C   UNL     1       1.332   8.881  20.421  0.00  0.00    +0.000 A 
ATOM      7  C   UNL     1       1.112   8.342  21.817  0.00  0.00    +0.000 C 
ENDROOT
BRANCH   5   8
ATOM      8  C   UNL     1       2.345   6.678  19.624  0.00  0.00    +0.000 A 
ATOM      9  N   UNL     1       3.390   6.010  19.171  0.00  0.00    +0.000 NA
ATOM     10  C   UNL     1       3.273   4.786  19.769  0.00  0.00    +0.000 A 
ATOM     11  N   UNL     1       4.134   3.748  19.661  0.00  0.00    +0.000 NA
ATOM     12  C   UNL     1       3.775   2.667  20.397  0.00  0.00    +0.000 A 
ATOM     13  C   UNL     1       2.638   2.562  21.201  0.00  0.00    +0.000 A 
ATOM     14  C   UNL     1       1.755   3.638  21.295  0.00  0.00    +0.000 A 
ATOM     15  C   UNL     1       2.134   4.743  20.551  0.00  0.00    +0.000 A 
ATOM     16  O   UNL     1       1.518   5.951  20.457  0.00  0.00    +0.000 OA
ENDBRANCH   5   8
BRANCH   1  19
ATOM     17  C   UNL     1      -0.975  11.592  20.914  0.00  0.00    +0.000 C 
ATOM     18  O   UNL     1      -1.724  11.461  19.955  0.00  0.00    +0.000 OA
ATOM     19  N   UNL     1       0.289  11.036  21.060  0.00  0.00    +0.000 N 
ATOM     20  H   UNL     1       0.701  11.080  21.979  0.00  0.00    +0.000 HD
BRANCH  17  24
ATOM     21  C   UNL     1      -2.485  13.978  24.132  0.00  0.00    +0.000 A 
ATOM     22  C   UNL     1      -1.218  14.212  23.583  0.00  0.00    +0.000 A 
ATOM     23  C   UNL     1      -0.740  13.421  22.543  0.00  0.00    +0.000 A 
ATOM     24  C   UNL     1      -1.509  12.356  22.067  0.00  0.00    +0.000 A 
ATOM     25  C   UNL     1      -2.710  12.035  22.698  0.00  0.00    +0.000 A 
ATOM     26  C   UNL     1      -3.209  12.838  23.738  0.00  0.00    +0.000 A 
BRANCH  21  28
ATOM     27  C   UNL     1      -2.037  15.688  25.694  0.00  0.00    +0.000 C 
ATOM     28  O   UNL     1      -3.001  14.843  25.060  0.00  0.00    +0.000 OA
ENDBRANCH  21  28
BRANCH  26  29
ATOM     29  O   UNL     1      -4.404  12.370  24.215  0.00  0.00    +0.000 OA
ATOM     30  C   UNL     1      -5.608  12.982  23.779  0.00  0.00    +0.000 C 
ENDBRANCH  26  29
ENDBRANCH  17  24
ENDBRANCH   1  19
TORSDOF 5
ENDMDL
MODEL 7
REMARK VINA RESULT:      -7.7      3.695      5.896
REMARK  Name = 
REMARK  8 active torsions:
REMARK  status: ('A' for Active; 'I' for Inactive)
REMARK    1  A    between atoms: C_1  and  O_2
REMARK    2  A    between atoms: O_2  and  C_3
REMARK    3  A    between atoms: C_6  and  C_7
REMARK    4  A    between atoms: N_9  and  C_10
REMARK    5  A    between atoms: C_14  and  C_15
REMARK    6  A    between atoms: C_24  and  C_25
REMARK    7  A    between atoms: C_27  and  O_28
REMARK    8  A    between atoms: O_28  and  C_29
REMARK                            x       y       z     vdW  Elec       q    Type
REMARK                         _______ _______ _______ _____ _____    ______ ____
ROOT
ATOM      1  C   UNL     1       0.520  10.060  19.940  0.00  0.00    +0.000 A 
ATOM      2  C   UNL     1       0.973  10.581  18.719  0.00  0.00    +0.000 A 
ATOM      3  C   UNL     1       1.805   9.855  17.879  0.00  0.00    +0.000 A 
ATOM      4  C   UNL     1       2.219   8.589  18.258  0.00  0.00    +0.000 A 
ATOM      5  C   UNL     1       1.819   8.027  19.487  0.00  0.00    +0.000 A 
ATOM      6  C   UNL     1       0.958   8.769  20.348  0.00  0.00    +0.000 A 
ATOM      7  C   UNL     1       0.516   8.199  21.677  0.00  0.00    +0.000 C 
ENDROOT
BRANCH   5   8
ATOM      8  C   UNL     1       2.298   6.670  19.785  0.00  0.00    +0.000 A 
ATOM      9  N   UNL     1       1.815   5.745  20.595  0.00  0.00    +0.000 NA
ATOM     10  C   UNL     1       2.636   4.673  20.385  0.00  0.00    +0.000 A 
ATOM     11  N   UNL     1       2.527   3.449  20.952  0.00  0.00    +0.000 NA
ATOM     12  C   UNL     1       3.468   2.570  20.527  0.00  0.00    +0.000 A 
ATOM     13  C   UNL     1       4.484   2.836  19.606  0.00  0.00    +0.000 A 
ATOM     14  C   UNL     1       4.588   4.105  19.038  0.00  0.00    +0.000 A 
ATOM     15  C   UNL     1       3.617   4.994  19.465  0.00  0.00    +0.000 A 
ATOM     16  O   UNL     1       3.420   6.283  19.080  0.00  0.00    +0.000 OA
ENDBRANCH   5   8
BRANCH   1  19
ATOM     17  C   UNL     1      -0.030  11.951  21.476  0.00  0.00    +0.000 C 
ATOM     18  O   UNL     1       1.074  12.475  21.530  0.00  0.00    +0.000 OA
ATOM     19  N   UNL     1      -0.375  10.817  20.750  0.00  0.00    +0.000 N 
ATOM     20  H   UNL     1      -1.359  10.620  20.657  0.00  0.00    +0.000 HD
BRANCH  17  24
ATOM     21  C   UNL     1      -3.124  14.144  23.462  0.00  0.00    +0.000 A 
ATOM     22  C   UNL     1      -1.775  14.492  23.607  0.00  0.00    +0.000 A 
ATOM     23  C   UNL     1      -0.783  13.763  22.961  0.00  0.00    +0.000 A 
ATOM     24  C   UNL     1      -1.125  12.646  22.193  0.00  0.00    +0.000 A 
ATOM     25  C   UNL     1      -2.450  12.215  22.155  0.00  0.00    +0.000 A 
ATOM     26  C   UNL     1      -3.462  12.955  22.790  0.00  0.00    +0.000 A 
BRANCH  21  28
ATOM     27  C   UNL     1      -4.565  15.979  23.118  0.00  0.00    +0.000 C 
ATOM     28  O   UNL     1      -4.100  14.946  23.990  0.00  0.00    +0.000 OA
ENDBRANCH  21  28
BRANCH  26  29
ATOM     29  O   UNL     1      -4.694  12.380  22.625  0.00  0.00    +0.000 OA
ATOM     30  C   UNL     1      -5.446  12.686  21.461  0.00  0.00    +0.000 C 
ENDBRANCH  26  29
ENDBRANCH  17  24
ENDBRANCH   1  19
TORSDOF 5
ENDMDL
MODEL 8
REMARK VINA RESULT:      -7.7      3.493     10.617
REMARK  Name = 
REMARK  8 active torsions:
REMARK  status: ('A' for Active; 'I' for Inactive)
REMARK    1  A    between atoms: C_1  and  O_2
REMARK    2  A    between atoms: O_2  and  C_3
REMARK    3  A    between atoms: C_6  and  C_7
REMARK    4  A    between atoms: N_9  and  C_10
REMARK    5  A    between atoms: C_14  and  C_15
REMARK    6  A    between atoms: C_24  and  C_25
REMARK    7  A    between atoms: C_27  and  O_28
REMARK    8  A    between atoms: O_28  and  C_29
REMARK                            x       y       z     vdW  Elec       q    Type
REMARK                         _______ _______ _______ _____ _____    ______ ____
ROOT
ATOM      1  C   UNL     1       1.140   9.954  19.664  0.00  0.00    +0.000 A 
ATOM      2  C   UNL     1       1.410  10.771  18.556  0.00  0.00    +0.000 A 
ATOM      3  C   UNL     1       1.076  12.116  18.542  0.00  0.00    +0.000 A 
ATOM      4  C   UNL     1       0.443  12.673  19.641  0.00  0.00    +0.000 A 
ATOM      5  C   UNL     1       0.120  11.894  20.770  0.00  0.00    +0.000 A 
ATOM      6  C   UNL     1       0.469  10.512  20.789  0.00  0.00    +0.000 A 
ATOM      7  C   UNL     1       0.132   9.645  21.981  0.00  0.00    +0.000 C 
ENDROOT
BRANCH   5   8
ATOM      8  C   UNL     1      -0.534  12.585  21.890  0.00  0.00    +0.000 A 
ATOM      9  N   UNL     1      -0.052  13.441  22.773  0.00  0.00    +0.000 NA
ATOM     10  C   UNL     1      -1.148  13.798  23.507  0.00  0.00    +0.000 A 
ATOM     11  N   UNL     1      -1.187  14.698  24.517  0.00  0.00    +0.000 NA
ATOM     12  C   UNL     1      -2.425  14.873  25.039  0.00  0.00    +0.000 A 
ATOM     13  C   UNL     1      -3.589  14.216  24.633  0.00  0.00    +0.000 A 
ATOM     14  C   UNL     1      -3.531  13.284  23.596  0.00  0.00    +0.000 A 
ATOM     15  C   UNL     1      -2.266  13.119  23.058  0.00  0.00    +0.000 A 
ATOM     16  O   UNL     1      -1.883  12.323  22.025  0.00  0.00    +0.000 OA
ENDBRANCH   5   8
BRANCH   1  19
ATOM     17  C   UNL     1       2.205   7.954  18.613  0.00  0.00    +0.000 C 
ATOM     18  O   UNL     1       2.543   8.459  17.551  0.00  0.00    +0.000 OA
ATOM     19  N   UNL     1       1.546   8.588  19.659  0.00  0.00    +0.000 N 
ATOM     20  H   UNL     1       1.505   8.093  20.537  0.00  0.00    +0.000 HD
BRANCH  17  24
ATOM     21  C   UNL     1       3.592   3.947  19.200  0.00  0.00    +0.000 A 
ATOM     22  C   UNL     1       3.816   4.627  17.997  0.00  0.00    +0.000 A 
ATOM     23  C   UNL     1       3.350   5.926  17.820  0.00  0.00    +0.000 A 
ATOM     24  C   UNL     1       2.616   6.547  18.834  0.00  0.00    +0.000 A 
ATOM     25  C   UNL     1       2.274   5.829  19.978  0.00  0.00    +0.000 A 
ATOM     26  C   UNL     1       2.754   4.522  20.173  0.00  0.00    +0.000 A 
BRANCH  21  28
ATOM     27  C   UNL     1       3.590   1.649  18.669  0.00  0.00    +0.000 C 
ATOM     28  O   UNL     1       4.168   2.723  19.414  0.00  0.00    +0.000 OA
ENDBRANCH  21  28
BRANCH  26  29
ATOM     29  O   UNL     1       2.324   3.992  21.360  0.00  0.00    +0.000 OA
ATOM     30  C   UNL     1       1.324   2.986  21.344  0.00  0.00    +0.000 C 
ENDBRANCH  26  29
ENDBRANCH  17  24
ENDBRANCH   1  19
TORSDOF 5
ENDMDL
MODEL 9
REMARK VINA RESULT:      -7.6      3.790     10.365
REMARK  Name = 
REMARK  8 active torsions:
REMARK  status: ('A' for Active; 'I' for Inactive)
REMARK    1  A    between atoms: C_1  and  O_2
REMARK    2  A    between atoms: O_2  and  C_3
REMARK    3  A    between atoms: C_6  and  C_7
REMARK    4  A    between atoms: N_9  and  C_10
REMARK    5  A    between atoms: C_14  and  C_15
REMARK    6  A    between atoms: C_24  and  C_25
REMARK    7  A    between atoms: C_27  and  O_28
REMARK    8  A    between atoms: O_28  and  C_29
REMARK                            x       y       z     vdW  Elec       q    Type
REMARK                         _______ _______ _______ _____ _____    ______ ____
ROOT
ATOM      1  C   UNL     1       0.596  10.363  19.236  0.00  0.00    +0.000 A 
ATOM      2  C   UNL     1       1.069  11.191  20.265  0.00  0.00    +0.000 A 
ATOM      3  C   UNL     1       0.270  12.166  20.843  0.00  0.00    +0.000 A 
ATOM      4  C   UNL     1      -1.024  12.346  20.385  0.00  0.00    +0.000 A 
ATOM      5  C   UNL     1      -1.543  11.564  19.334  0.00  0.00    +0.000 A 
ATOM      6  C   UNL     1      -0.725  10.556  18.743  0.00  0.00    +0.000 A 
ATOM      7  C   UNL     1      -1.247   9.703  17.609  0.00  0.00    +0.000 C 
ENDROOT
BRANCH   5   8
ATOM      8  C   UNL     1      -2.933  11.822  18.936  0.00  0.00    +0.000 A 
ATOM      9  N   UNL     1      -3.545  11.642  17.779  0.00  0.00    +0.000 NA
ATOM     10  C   UNL     1      -4.842  11.982  18.044  0.00  0.00    +0.000 A 
ATOM     11  N   UNL     1      -5.885  11.922  17.184  0.00  0.00    +0.000 NA
ATOM     12  C   UNL     1      -7.066  12.290  17.739  0.00  0.00    +0.000 A 
ATOM     13  C   UNL     1      -7.259  12.711  19.056  0.00  0.00    +0.000 A 
ATOM     14  C   UNL     1      -6.171  12.777  19.928  0.00  0.00    +0.000 A 
ATOM     15  C   UNL     1      -4.971  12.386  19.360  0.00  0.00    +0.000 A 
ATOM     16  O   UNL     1      -3.746  12.302  19.943  0.00  0.00    +0.000 OA
ENDBRANCH   5   8
BRANCH   1  19
ATOM     17  C   UNL     1       1.816   8.189  19.383  0.00  0.00    +0.000 C 
ATOM     18  O   UNL     1       1.502   7.875  20.523  0.00  0.00    +0.000 OA
ATOM     19  N   UNL     1       1.431   9.338  18.704  0.00  0.00    +0.000 N 
ATOM     20  H   UNL     1       1.616   9.364  17.713  0.00  0.00    +0.000 HD
BRANCH  17  24
ATOM     21  C   UNL     1       4.320   5.455  17.242  0.00  0.00    +0.000 A 
ATOM     22  C   UNL     1       4.302   6.821  16.935  0.00  0.00    +0.000 A 
ATOM     23  C   UNL     1       3.476   7.693  17.635  0.00  0.00    +0.000 A 
ATOM     24  C   UNL     1       2.623   7.202  18.627  0.00  0.00    +0.000 A 
ATOM     25  C   UNL     1       2.537   5.828  18.844  0.00  0.00    +0.000 A 
ATOM     26  C   UNL     1       3.380   4.940  18.153  0.00  0.00    +0.000 A 
BRANCH  21  28
ATOM     27  C   UNL     1       5.519   4.943  15.277  0.00  0.00    +0.000 C 
ATOM     28  O   UNL     1       5.231   4.628  16.642  0.00  0.00    +0.000 OA
ENDBRANCH  21  28
BRANCH  26  29
ATOM     29  O   UNL     1       3.157   3.638  18.516  0.00  0.00    +0.000 OA
ATOM     30  C   UNL     1       3.963   3.057  19.530  0.00  0.00    +0.000 C 
ENDBRANCH  26  29
ENDBRANCH  17  24
ENDBRANCH   1  19
TORSDOF 5
ENDMDL
