MODEL 1
REMARK VINA RESULT:      -8.8      0.000      0.000
REMARK  Name = 
REMARK  7 active torsions:
REMARK  status: ('A' for Active; 'I' for Inactive)
REMARK    1  A    between atoms: C_2  and  O_3
REMARK    2  A    between atoms: C_2  and  C_4
REMARK    3  A    between atoms: N_6  and  C_7
REMARK    4  A    between atoms: C_7  and  C_8
REMARK    5  A    between atoms: C_19  and  C_20
REMARK    6  A    between atoms: C_23  and  C_24
REMARK    7  A    between atoms: C_30  and  C_31
REMARK                            x       y       z     vdW  Elec       q    Type
REMARK                         _______ _______ _______ _____ _____    ______ ____
ROOT
ATOM      1  C   UNL     1       2.399   5.650  18.567  0.00  0.00    +0.000 A 
ATOM      2  C   UNL     1       2.028   5.279  19.886  0.00  0.00    +0.000 A 
ATOM      3  C   UNL     1       1.612   6.228  20.811  0.00  0.00    +0.000 A 
ATOM      4  C   UNL     1       1.568   7.537  20.383  0.00  0.00    +0.000 A 
ATOM      5  C   UNL     1       1.907   7.961  19.078  0.00  0.00    +0.000 A 
ATOM      6  C   UNL     1       2.329   7.004  18.159  0.00  0.00    +0.000 A 
ATOM      7  C   UNL     1       1.752   9.492  18.884  0.00  0.00    +0.000 C 
ATOM      8  C   UNL     1       1.282   9.829  20.266  0.00  0.00    +0.000 A 
ATOM      9  C   UNL     1       1.197   8.700  21.093  0.00  0.00    +0.000 A 
ATOM     10  N   UNL     1       0.815   8.951  22.328  0.00  0.00    +0.000 NA
ATOM     11  O   UNL     1       0.629  10.329  22.324  0.00  0.00    +0.000 OA
ATOM     12  C   UNL     1       0.899  10.871  21.083  0.00  0.00    +0.000 A 
ENDROOT
BRANCH  12  13
ATOM     13  C   UNL     1       0.760  12.332  20.790  0.00  0.00    +0.000 A 
ATOM     14  N   UNL     1       1.668  13.213  21.218  0.00  0.00    +0.000 NA
ATOM     15  O   UNL     1       1.257  14.445  20.746  0.00  0.00    +0.000 OA
ATOM     16  C   UNL     1       0.079  14.319  20.067  0.00  0.00    +0.000 A 
ATOM     17  C   UNL     1      -0.282  12.979  20.049  0.00  0.00    +0.000 A 
BRANCH  16  18
ATOM     18  C   UNL     1      -0.510  15.581  19.604  0.00  0.00    +0.000 A 
ATOM     19  C   UNL     1      -1.609  16.154  20.263  0.00  0.00    +0.000 A 
ATOM     20  C   UNL     1      -2.236  17.303  19.761  0.00  0.00    +0.000 A 
ATOM     21  C   UNL     1      -1.766  17.908  18.599  0.00  0.00    +0.000 A 
ATOM     22  C   UNL     1      -0.655  17.380  17.953  0.00  0.00    +0.000 A 
ATOM     23  C   UNL     1      -0.036  16.228  18.451  0.00  0.00    +0.000 A 
ENDBRANCH  16  18
BRANCH  17  24
ATOM     24  C   UNL     1      -1.488  12.423  19.410  0.00  0.00    +0.000 C 
ATOM     25  F   UNL     1      -2.660  12.959  19.811  0.00  0.00    +0.000 F 
ATOM     26  F   UNL     1      -1.461  12.591  18.060  0.00  0.00    +0.000 F 
ATOM     27  F   UNL     1      -1.597  11.087  19.632  0.00  0.00    +0.000 F 
ENDBRANCH  17  24
ENDBRANCH  12  13
BRANCH   1  28
ATOM     28  C   UNL     1       2.870   4.555  17.625  0.00  0.00    +0.000 C 
BRANCH  28  31
ATOM     29  C   UNL     1       5.641   5.161  16.872  0.00  0.00    +0.000 C 
ATOM     30  C   UNL     1       5.033   3.753  16.767  0.00  0.00    +0.000 C 
ATOM     31  N   UNL     1       4.200   4.014  17.961  0.00  0.00    +0.000 NA
ATOM     32  C   UNL     1       5.123   5.121  18.329  0.00  0.00    +0.000 C 
BRANCH  29  34
ATOM     33  O   UNL     1       7.990   4.426  16.778  0.00  0.00    +0.000 OA
ATOM     34  C   UNL     1       7.156   5.314  16.654  0.00  0.00    +0.000 C 
BRANCH  34  35
ATOM     35  O   UNL     1       7.542   6.577  16.318  0.00  0.00    +0.000 OA
ATOM     36  H   UNL     1       7.364   6.812  15.387  0.00  0.00    +0.000 HD
ENDBRANCH  34  35
ENDBRANCH  29  34
ENDBRANCH  28  31
ENDBRANCH   1  28
TORSDOF 7
ENDMDL
MODEL 2
REMARK VINA RESULT:      -8.5      0.598      1.084
REMARK  Name = 
REMARK  7 active torsions:
REMARK  status: ('A' for Active; 'I' for Inactive)
REMARK    1  A    between atoms: C_2  and  O_3
REMARK    2  A    between atoms: C_2  and  C_4
REMARK    3  A    between atoms: N_6  and  C_7
REMARK    4  A    between atoms: C_7  and  C_8
REMARK    5  A    between atoms: C_19  and  C_20
REMARK    6  A    between atoms: C_23  and  C_24
REMARK    7  A    between atoms: C_30  and  C_31
REMARK                            x       y       z     vdW  Elec       q    Type
REMARK                         _______ _______ _______ _____ _____    ______ ____
ROOT
ATOM      1  C   UNL     1       2.459   5.821  18.931  0.00  0.00    +0.000 A 
ATOM      2  C   UNL     1       1.956   5.443  20.203  0.00  0.00    +0.000 A 
ATOM      3  C   UNL     1       1.429   6.383  21.079  0.00  0.00    +0.000 A 
ATOM      4  C   UNL     1       1.409   7.692  20.649  0.00  0.00    +0.000 A 
ATOM      5  C   UNL     1       1.877   8.124  19.387  0.00  0.00    +0.000 A 
ATOM      6  C   UNL     1       2.410   7.175  18.517  0.00  0.00    +0.000 A 
ATOM      7  C   UNL     1       1.718   9.652  19.176  0.00  0.00    +0.000 C 
ATOM      8  C   UNL     1       1.099   9.979  20.500  0.00  0.00    +0.000 A 
ATOM      9  C   UNL     1       0.946   8.849  21.314  0.00  0.00    +0.000 A 
ATOM     10  N   UNL     1       0.431   9.091  22.502  0.00  0.00    +0.000 NA
ATOM     11  O   UNL     1       0.224  10.466  22.477  0.00  0.00    +0.000 OA
ATOM     12  C   UNL     1       0.614  11.014  21.272  0.00  0.00    +0.000 A 
ENDROOT
BRANCH  12  13
ATOM     13  C   UNL     1       0.484  12.473  20.966  0.00  0.00    +0.000 A 
ATOM     14  N   UNL     1       1.335  13.367  21.476  0.00  0.00    +0.000 NA
ATOM     15  O   UNL     1       0.953  14.593  20.966  0.00  0.00    +0.000 OA
ATOM     16  C   UNL     1      -0.153  14.451  20.178  0.00  0.00    +0.000 A 
ATOM     17  C   UNL     1      -0.491  13.105  20.128  0.00  0.00    +0.000 A 
BRANCH  16  18
ATOM     18  C   UNL     1      -0.713  15.705  19.660  0.00  0.00    +0.000 A 
ATOM     19  C   UNL     1      -1.849  16.288  20.243  0.00  0.00    +0.000 A 
ATOM     20  C   UNL     1      -2.445  17.427  19.685  0.00  0.00    +0.000 A 
ATOM     21  C   UNL     1      -1.906  18.013  18.543  0.00  0.00    +0.000 A 
ATOM     22  C   UNL     1      -0.760  17.474  17.973  0.00  0.00    +0.000 A 
ATOM     23  C   UNL     1      -0.172  16.332  18.526  0.00  0.00    +0.000 A 
ENDBRANCH  16  18
BRANCH  17  24
ATOM     24  C   UNL     1      -1.624  12.532  19.378  0.00  0.00    +0.000 C 
ATOM     25  F   UNL     1      -1.576  12.691  18.038  0.00  0.00    +0.000 F 
ATOM     26  F   UNL     1      -1.726  11.190  19.576  0.00  0.00    +0.000 F 
ATOM     27  F   UNL     1      -2.806  13.074  19.773  0.00  0.00    +0.000 F 
ENDBRANCH  17  24
ENDBRANCH  12  13
BRANCH   1  28
ATOM     28  C   UNL     1       3.045   4.735  18.046  0.00  0.00    +0.000 C 
BRANCH  28  31
ATOM     29  C   UNL     1       5.904   4.551  17.410  0.00  0.00    +0.000 C 
ATOM     30  C   UNL     1       5.151   5.888  17.508  0.00  0.00    +0.000 C 
ATOM     31  N   UNL     1       3.927   5.248  16.982  0.00  0.00    +0.000 NA
ATOM     32  C   UNL     1       4.768   4.146  16.441  0.00  0.00    +0.000 C 
BRANCH  29  34
ATOM     33  O   UNL     1       7.685   4.987  15.765  0.00  0.00    +0.000 OA
ATOM     34  C   UNL     1       7.342   4.567  16.863  0.00  0.00    +0.000 C 
BRANCH  34  35
ATOM     35  O   UNL     1       8.263   4.033  17.713  0.00  0.00    +0.000 OA
ATOM     36  H   UNL     1       7.878   3.621  18.510  0.00  0.00    +0.000 HD
ENDBRANCH  34  35
ENDBRANCH  29  34
ENDBRANCH  28  31
ENDBRANCH   1  28
TORSDOF 7
ENDMDL
MODEL 3
REMARK VINA RESULT:      -8.5      1.996      2.325
REMARK  Name = 
REMARK  7 active torsions:
REMARK  status: ('A' for Active; 'I' for Inactive)
REMARK    1  A    between atoms: C_2  and  O_3
REMARK    2  A    between atoms: C_2  and  C_4
REMARK    3  A    between atoms: N_6  and  C_7
REMARK    4  A    between atoms: C_7  and  C_8
REMARK    5  A    between atoms: C_19  and  C_20
REMARK    6  A    between atoms: C_23  and  C_24
REMARK    7  A    between atoms: C_30  and  C_31
REMARK                            x       y       z     vdW  Elec       q    Type
REMARK                         _______ _______ _______ _____ _____    ______ ____
ROOT
ATOM      1  C   UNL     1       2.900   6.252  18.501  0.00  0.00    +0.000 A 
ATOM      2  C   UNL     1       2.548   5.798  19.799  0.00  0.00    +0.000 A 
ATOM      3  C   UNL     1       1.899   6.630  20.703  0.00  0.00    +0.000 A 
ATOM      4  C   UNL     1       1.607   7.906  20.274  0.00  0.00    +0.000 A 
ATOM      5  C   UNL     1       1.915   8.406  18.988  0.00  0.00    +0.000 A 
ATOM      6  C   UNL     1       2.571   7.567  18.091  0.00  0.00    +0.000 A 
ATOM      7  C   UNL     1       1.457   9.874  18.787  0.00  0.00    +0.000 C 
ATOM      8  C   UNL     1       0.860  10.092  20.143  0.00  0.00    +0.000 A 
ATOM      9  C   UNL     1       0.969   8.961  20.964  0.00  0.00    +0.000 A 
ATOM     10  N   UNL     1       0.482   9.113  22.179  0.00  0.00    +0.000 NA
ATOM     11  O   UNL     1       0.016  10.423  22.166  0.00  0.00    +0.000 OA
ATOM     12  C   UNL     1       0.229  11.023  20.941  0.00  0.00    +0.000 A 
ENDROOT
BRANCH  12  13
ATOM     13  C   UNL     1      -0.194  12.427  20.642  0.00  0.00    +0.000 A 
ATOM     14  N   UNL     1      -1.466  12.811  20.778  0.00  0.00    +0.000 NA
ATOM     15  O   UNL     1      -1.495  14.156  20.462  0.00  0.00    +0.000 OA
ATOM     16  C   UNL     1      -0.250  14.580  20.095  0.00  0.00    +0.000 A 
ATOM     17  C   UNL     1       0.633  13.514  20.207  0.00  0.00    +0.000 A 
BRANCH  16  18
ATOM     18  C   UNL     1      -0.176  15.973  19.638  0.00  0.00    +0.000 A 
ATOM     19  C   UNL     1      -0.359  16.303  18.286  0.00  0.00    +0.000 A 
ATOM     20  C   UNL     1      -0.187  17.619  17.833  0.00  0.00    +0.000 A 
ATOM     21  C   UNL     1       0.157  18.629  18.726  0.00  0.00    +0.000 A 
ATOM     22  C   UNL     1       0.305  18.330  20.075  0.00  0.00    +0.000 A 
ATOM     23  C   UNL     1       0.140  17.015  20.523  0.00  0.00    +0.000 A 
ENDBRANCH  16  18
BRANCH  17  24
ATOM     24  C   UNL     1       2.075  13.558  19.909  0.00  0.00    +0.000 C 
ATOM     25  F   UNL     1       2.464  12.885  18.805  0.00  0.00    +0.000 F 
ATOM     26  F   UNL     1       2.507  14.835  19.720  0.00  0.00    +0.000 F 
ATOM     27  F   UNL     1       2.810  13.048  20.932  0.00  0.00    +0.000 F 
ENDBRANCH  17  24
ENDBRANCH  12  13
BRANCH   1  28
ATOM     28  C   UNL     1       3.633   5.288  17.585  0.00  0.00    +0.000 C 
BRANCH  28  31
ATOM     29  C   UNL     1       5.571   4.693  15.463  0.00  0.00    +0.000 C 
ATOM     30  C   UNL     1       5.901   4.566  16.960  0.00  0.00    +0.000 C 
ATOM     31  N   UNL     1       5.009   5.706  17.261  0.00  0.00    +0.000 NA
ATOM     32  C   UNL     1       5.096   6.117  15.834  0.00  0.00    +0.000 C 
BRANCH  29  34
ATOM     33  O   UNL     1       7.698   5.301  14.379  0.00  0.00    +0.000 OA
ATOM     34  C   UNL     1       6.724   4.562  14.453  0.00  0.00    +0.000 C 
BRANCH  34  35
ATOM     35  O   UNL     1       6.579   3.528  13.578  0.00  0.00    +0.000 OA
ATOM     36  H   UNL     1       6.131   2.747  13.956  0.00  0.00    +0.000 HD
ENDBRANCH  34  35
ENDBRANCH  29  34
ENDBRANCH  28  31
ENDBRANCH   1  28
TORSDOF 7
ENDMDL
MODEL 4
REMARK VINA RESULT:      -8.4      3.885      4.974
REMARK  Name = 
REMARK  7 active torsions:
REMARK  status: ('A' for Active; 'I' for Inactive)
REMARK    1  A    between atoms: C_2  and  O_3
REMARK    2  A    between atoms: C_2  and  C_4
REMARK    3  A    between atoms: N_6  and  C_7
REMARK    4  A    between atoms: C_7  and  C_8
REMARK    5  A    between atoms: C_19  and  C_20
REMARK    6  A    between atoms: C_23  and  C_24
REMARK    7  A    between atoms: C_30  and  C_31
REMARK                            x       y       z     vdW  Elec       q    Type
REMARK                         _______ _______ _______ _____ _____    ______ ____
ROOT
ATOM      1  C   UNL     1       2.471   7.531  19.141  0.00  0.00    +0.000 A 
ATOM      2  C   UNL     1       2.603   8.397  18.024  0.00  0.00    +0.000 A 
ATOM      3  C   UNL     1       1.863   9.568  17.929  0.00  0.00    +0.000 A 
ATOM      4  C   UNL     1       1.007   9.851  18.972  0.00  0.00    +0.000 A 
ATOM      5  C   UNL     1       0.850   9.037  20.117  0.00  0.00    +0.000 A 
ATOM      6  C   UNL     1       1.592   7.861  20.201  0.00  0.00    +0.000 A 
ATOM      7  C   UNL     1      -0.175   9.613  21.128  0.00  0.00    +0.000 C 
ATOM      8  C   UNL     1      -0.544  10.848  20.367  0.00  0.00    +0.000 A 
ATOM      9  C   UNL     1       0.137  10.949  19.146  0.00  0.00    +0.000 A 
ATOM     10  N   UNL     1      -0.177  12.007  18.426  0.00  0.00    +0.000 NA
ATOM     11  O   UNL     1      -1.120  12.654  19.217  0.00  0.00    +0.000 OA
ATOM     12  C   UNL     1      -1.345  11.971  20.396  0.00  0.00    +0.000 A 
ENDROOT
BRANCH  12  13
ATOM     13  C   UNL     1      -2.299  12.454  21.443  0.00  0.00    +0.000 A 
ATOM     14  N   UNL     1      -1.898  12.666  22.699  0.00  0.00    +0.000 NA
ATOM     15  O   UNL     1      -3.005  13.138  23.379  0.00  0.00    +0.000 OA
ATOM     16  C   UNL     1      -4.088  13.173  22.547  0.00  0.00    +0.000 A 
ATOM     17  C   UNL     1      -3.689  12.759  21.283  0.00  0.00    +0.000 A 
BRANCH  16  18
ATOM     18  C   UNL     1      -5.351  13.562  23.186  0.00  0.00    +0.000 A 
ATOM     19  C   UNL     1      -6.245  12.596  23.673  0.00  0.00    +0.000 A 
ATOM     20  C   UNL     1      -7.496  12.962  24.189  0.00  0.00    +0.000 A 
ATOM     21  C   UNL     1      -7.869  14.303  24.240  0.00  0.00    +0.000 A 
ATOM     22  C   UNL     1      -6.982  15.277  23.799  0.00  0.00    +0.000 A 
ATOM     23  C   UNL     1      -5.737  14.908  23.277  0.00  0.00    +0.000 A 
ENDBRANCH  16  18
BRANCH  17  24
ATOM     24  C   UNL     1      -4.560  12.662  20.098  0.00  0.00    +0.000 C 
ATOM     25  F   UNL     1      -3.985  12.141  18.993  0.00  0.00    +0.000 F 
ATOM     26  F   UNL     1      -5.645  11.878  20.339  0.00  0.00    +0.000 F 
ATOM     27  F   UNL     1      -5.036  13.880  19.728  0.00  0.00    +0.000 F 
ENDBRANCH  17  24
ENDBRANCH  12  13
BRANCH   1  28
ATOM     28  C   UNL     1       3.296   6.256  19.154  0.00  0.00    +0.000 C 
BRANCH  28  31
ATOM     29  C   UNL     1       2.088   3.585  19.005  0.00  0.00    +0.000 C 
ATOM     30  C   UNL     1       3.429   3.938  18.339  0.00  0.00    +0.000 C 
ATOM     31  N   UNL     1       2.947   5.311  18.078  0.00  0.00    +0.000 NA
ATOM     32  C   UNL     1       1.552   4.828  18.255  0.00  0.00    +0.000 C 
BRANCH  29  34
ATOM     33  O   UNL     1       0.287   2.035  18.356  0.00  0.00    +0.000 OA
ATOM     34  C   UNL     1       1.454   2.222  18.680  0.00  0.00    +0.000 C 
BRANCH  34  35
ATOM     35  O   UNL     1       2.310   1.169  18.805  0.00  0.00    +0.000 OA
ATOM     36  H   UNL     1       1.950   0.424  19.323  0.00  0.00    +0.000 HD
ENDBRANCH  34  35
ENDBRANCH  29  34
ENDBRANCH  28  31
ENDBRANCH   1  28
TORSDOF 7
ENDMDL
MODEL 5
REMARK VINA RESULT:      -8.4      3.304      4.397
REMARK  Name = 
REMARK  7 active torsions:
REMARK  status: ('A' for Active; 'I' for Inactive)
REMARK    1  A    between atoms: C_2  and  O_3
REMARK    2  A    between atoms: C_2  and  C_4
REMARK    3  A    between atoms: N_6  and  C_7
REMARK    4  A    between atoms: C_7  and  C_8
REMARK    5  A    between atoms: C_19  and  C_20
REMARK    6  A    between atoms: C_23  and  C_24
REMARK    7  A    between atoms: C_30  and  C_31
REMARK                            x       y       z     vdW  Elec       q    Type
REMARK                         _______ _______ _______ _____ _____    ______ ____
ROOT
ATOM      1  C   UNL     1       5.795   5.290  16.374  0.00  0.00    +0.000 A 
ATOM      2  C   UNL     1       5.431   4.321  17.346  0.00  0.00    +0.000 A 
ATOM      3  C   UNL     1       4.488   4.603  18.326  0.00  0.00    +0.000 A 
ATOM      4  C   UNL     1       3.920   5.858  18.301  0.00  0.00    +0.000 A 
ATOM      5  C   UNL     1       4.229   6.854  17.347  0.00  0.00    +0.000 A 
ATOM      6  C   UNL     1       5.179   6.566  16.371  0.00  0.00    +0.000 A 
ATOM      7  C   UNL     1       3.425   8.164  17.562  0.00  0.00    +0.000 C 
ATOM      8  C   UNL     1       2.643   7.730  18.763  0.00  0.00    +0.000 A 
ATOM      9  C   UNL     1       2.952   6.423  19.162  0.00  0.00    +0.000 A 
ATOM     10  N   UNL     1       2.309   6.006  20.233  0.00  0.00    +0.000 NA
ATOM     11  O   UNL     1       1.518   7.101  20.566  0.00  0.00    +0.000 OA
ATOM     12  C   UNL     1       1.703   8.145  19.683  0.00  0.00    +0.000 A 
ENDROOT
BRANCH  12  13
ATOM     13  C   UNL     1       0.961   9.440  19.794  0.00  0.00    +0.000 A 
ATOM     14  N   UNL     1       1.029  10.361  18.829  0.00  0.00    +0.000 NA
ATOM     15  O   UNL     1       0.207  11.398  19.231  0.00  0.00    +0.000 OA
ATOM     16  C   UNL     1      -0.326  11.125  20.458  0.00  0.00    +0.000 A 
ATOM     17  C   UNL     1       0.111   9.871  20.863  0.00  0.00    +0.000 A 
BRANCH  16  18
ATOM     18  C   UNL     1      -1.139  12.202  21.036  0.00  0.00    +0.000 A 
ATOM     19  C   UNL     1      -0.681  12.946  22.135  0.00  0.00    +0.000 A 
ATOM     20  C   UNL     1      -1.498  13.903  22.752  0.00  0.00    +0.000 A 
ATOM     21  C   UNL     1      -2.782  14.144  22.272  0.00  0.00    +0.000 A 
ATOM     22  C   UNL     1      -3.240  13.446  21.162  0.00  0.00    +0.000 A 
ATOM     23  C   UNL     1      -2.426  12.485  20.553  0.00  0.00    +0.000 A 
ENDBRANCH  16  18
BRANCH  17  24
ATOM     24  C   UNL     1      -0.245   9.206  22.130  0.00  0.00    +0.000 C 
ATOM     25  F   UNL     1      -1.067   9.902  22.943  0.00  0.00    +0.000 F 
ATOM     26  F   UNL     1      -0.876   8.021  21.912  0.00  0.00    +0.000 F 
ATOM     27  F   UNL     1       0.860   8.926  22.871  0.00  0.00    +0.000 F 
ENDBRANCH  17  24
ENDBRANCH  12  13
BRANCH   1  28
ATOM     28  C   UNL     1       6.855   4.911  15.355  0.00  0.00    +0.000 C 
BRANCH  28  31
ATOM     29  C   UNL     1       6.018   3.214  13.111  0.00  0.00    +0.000 C 
ATOM     30  C   UNL     1       7.148   4.252  13.002  0.00  0.00    +0.000 C 
ATOM     31  N   UNL     1       6.442   5.133  13.957  0.00  0.00    +0.000 NA
ATOM     32  C   UNL     1       5.185   4.391  13.672  0.00  0.00    +0.000 C 
BRANCH  29  34
ATOM     33  O   UNL     1       4.514   2.837  11.197  0.00  0.00    +0.000 OA
ATOM     34  C   UNL     1       5.527   2.539  11.819  0.00  0.00    +0.000 C 
BRANCH  34  35
ATOM     35  O   UNL     1       6.318   1.514  11.395  0.00  0.00    +0.000 OA
ATOM     36  H   UNL     1       6.737   1.010  12.118  0.00  0.00    +0.000 HD
ENDBRANCH  34  35
ENDBRANCH  29  34
ENDBRANCH  28  31
ENDBRANCH   1  28
TORSDOF 7
ENDMDL
MODEL 6
REMARK VINA RESULT:      -8.3      3.825      4.831
REMARK  Name = 
REMARK  7 active torsions:
REMARK  status: ('A' for Active; 'I' for Inactive)
REMARK    1  A    between atoms: C_2  and  O_3
REMARK    2  A    between atoms: C_2  and  C_4
REMARK    3  A    between atoms: N_6  and  C_7
REMARK    4  A    between atoms: C_7  and  C_8
REMARK    5  A    between atoms: C_19  and  C_20
REMARK    6  A    between atoms: C_23  and  C_24
REMARK    7  A    between atoms: C_30  and  C_31
REMARK                            x       y       z     vdW  Elec       q    Type
REMARK                         _______ _______ _______ _____ _____    ______ ____
ROOT
ATOM      1  C   UNL     1       2.274   7.532  19.467  0.00  0.00    +0.000 A 
ATOM      2  C   UNL     1       2.361   8.228  18.233  0.00  0.00    +0.000 A 
ATOM      3  C   UNL     1       1.594   9.360  17.989  0.00  0.00    +0.000 A 
ATOM      4  C   UNL     1       0.758   9.776  19.002  0.00  0.00    +0.000 A 
ATOM      5  C   UNL     1       0.644   9.134  20.256  0.00  0.00    +0.000 A 
ATOM      6  C   UNL     1       1.412   7.997  20.491  0.00  0.00    +0.000 A 
ATOM      7  C   UNL     1      -0.369   9.833  21.200  0.00  0.00    +0.000 C 
ATOM      8  C   UNL     1      -0.782  10.938  20.277  0.00  0.00    +0.000 A 
ATOM      9  C   UNL     1      -0.132  10.872  19.037  0.00  0.00    +0.000 A 
ATOM     10  N   UNL     1      -0.484  11.809  18.180  0.00  0.00    +0.000 NA
ATOM     11  O   UNL     1      -1.422  12.547  18.894  0.00  0.00    +0.000 OA
ATOM     12  C   UNL     1      -1.605  12.039  20.164  0.00  0.00    +0.000 A 
ENDROOT
BRANCH  12  13
ATOM     13  C   UNL     1      -2.544  12.652  21.155  0.00  0.00    +0.000 A 
ATOM     14  N   UNL     1      -2.101  13.152  22.311  0.00  0.00    +0.000 NA
ATOM     15  O   UNL     1      -3.211  13.665  22.956  0.00  0.00    +0.000 OA
ATOM     16  C   UNL     1      -4.333  13.441  22.211  0.00  0.00    +0.000 A 
ATOM     17  C   UNL     1      -3.963  12.806  21.033  0.00  0.00    +0.000 A 
BRANCH  16  18
ATOM     18  C   UNL     1      -5.592  13.854  22.843  0.00  0.00    +0.000 A 
ATOM     19  C   UNL     1      -6.000  15.197  22.836  0.00  0.00    +0.000 A 
ATOM     20  C   UNL     1      -7.148  15.608  23.528  0.00  0.00    +0.000 A 
ATOM     21  C   UNL     1      -7.916  14.680  24.227  0.00  0.00    +0.000 A 
ATOM     22  C   UNL     1      -7.550  13.340  24.214  0.00  0.00    +0.000 A 
ATOM     23  C   UNL     1      -6.400  12.934  23.530  0.00  0.00    +0.000 A 
ENDBRANCH  16  18
BRANCH  17  24
ATOM     24  C   UNL     1      -4.881  12.395  19.955  0.00  0.00    +0.000 C 
ATOM     25  F   UNL     1      -5.450  13.402  19.258  0.00  0.00    +0.000 F 
ATOM     26  F   UNL     1      -4.249  11.630  19.026  0.00  0.00    +0.000 F 
ATOM     27  F   UNL     1      -5.911  11.651  20.436  0.00  0.00    +0.000 F 
ENDBRANCH  17  24
ENDBRANCH  12  13
BRANCH   1  28
ATOM     28  C   UNL     1       3.126   6.286  19.643  0.00  0.00    +0.000 C 
BRANCH  28  31
ATOM     29  C   UNL     1       2.830   3.432  19.030  0.00  0.00    +0.000 C 
ATOM     30  C   UNL     1       4.063   4.254  18.620  0.00  0.00    +0.000 C 
ATOM     31  N   UNL     1       3.213   5.450  18.433  0.00  0.00    +0.000 NA
ATOM     32  C   UNL     1       2.026   4.559  18.341  0.00  0.00    +0.000 C 
BRANCH  29  34
ATOM     33  O   UNL     1       3.581   1.357  17.936  0.00  0.00    +0.000 OA
ATOM     34  C   UNL     1       2.690   2.006  18.470  0.00  0.00    +0.000 C 
BRANCH  34  35
ATOM     35  O   UNL     1       1.437   1.484  18.590  0.00  0.00    +0.000 OA
ATOM     36  H   UNL     1       1.418   0.570  18.932  0.00  0.00    +0.000 HD
ENDBRANCH  34  35
ENDBRANCH  29  34
ENDBRANCH  28  31
ENDBRANCH   1  28
TORSDOF 7
ENDMDL
MODEL 7
REMARK VINA RESULT:      -8.3      4.409     10.925
REMARK  Name = 
REMARK  7 active torsions:
REMARK  status: ('A' for Active; 'I' for Inactive)
REMARK    1  A    between atoms: C_2  and  O_3
REMARK    2  A    between atoms: C_2  and  C_4
REMARK    3  A    between atoms: N_6  and  C_7
REMARK    4  A    between atoms: C_7  and  C_8
REMARK    5  A    between atoms: C_19  and  C_20
REMARK    6  A    between atoms: C_23  and  C_24
REMARK    7  A    between atoms: C_30  and  C_31
REMARK                            x       y       z     vdW  Elec       q    Type
REMARK                         _______ _______ _______ _____ _____    ______ ____
ROOT
ATOM      1  C   UNL     1      -0.303  10.433  20.975  0.00  0.00    +0.000 A 
ATOM      2  C   UNL     1      -0.137   9.419  21.955  0.00  0.00    +0.000 A 
ATOM      3  C   UNL     1       0.665   8.311  21.716  0.00  0.00    +0.000 A 
ATOM      4  C   UNL     1       1.295   8.251  20.492  0.00  0.00    +0.000 A 
ATOM      5  C   UNL     1       1.182   9.239  19.487  0.00  0.00    +0.000 A 
ATOM      6  C   UNL     1       0.371  10.344  19.733  0.00  0.00    +0.000 A 
ATOM      7  C   UNL     1       2.012   8.906  18.220  0.00  0.00    +0.000 C 
ATOM      8  C   UNL     1       2.586   7.603  18.685  0.00  0.00    +0.000 A 
ATOM      9  C   UNL     1       2.154   7.257  19.973  0.00  0.00    +0.000 A 
ATOM     10  N   UNL     1       2.611   6.103  20.415  0.00  0.00    +0.000 NA
ATOM     11  O   UNL     1       3.400   5.655  19.360  0.00  0.00    +0.000 OA
ATOM     12  C   UNL     1       3.402   6.555  18.314  0.00  0.00    +0.000 A 
ENDROOT
BRANCH  12  13
ATOM     13  C   UNL     1       4.185   6.335  17.058  0.00  0.00    +0.000 A 
ATOM     14  N   UNL     1       4.617   7.363  16.322  0.00  0.00    +0.000 NA
ATOM     15  O   UNL     1       5.327   6.810  15.273  0.00  0.00    +0.000 OA
ATOM     16  C   UNL     1       5.290   5.447  15.347  0.00  0.00    +0.000 A 
ATOM     17  C   UNL     1       4.583   5.083  16.485  0.00  0.00    +0.000 A 
BRANCH  16  18
ATOM     18  C   UNL     1       5.926   4.746  14.225  0.00  0.00    +0.000 A 
ATOM     19  C   UNL     1       7.268   4.986  13.887  0.00  0.00    +0.000 A 
ATOM     20  C   UNL     1       7.845   4.396  12.754  0.00  0.00    +0.000 A 
ATOM     21  C   UNL     1       7.096   3.543  11.948  0.00  0.00    +0.000 A 
ATOM     22  C   UNL     1       5.779   3.262  12.287  0.00  0.00    +0.000 A 
ATOM     23  C   UNL     1       5.202   3.859  13.414  0.00  0.00    +0.000 A 
ENDBRANCH  16  18
BRANCH  17  24
ATOM     24  C   UNL     1       4.322   3.702  16.929  0.00  0.00    +0.000 C 
ATOM     25  F   UNL     1       4.468   3.478  18.252  0.00  0.00    +0.000 F 
ATOM     26  F   UNL     1       3.051   3.316  16.640  0.00  0.00    +0.000 F 
ATOM     27  F   UNL     1       5.147   2.817  16.310  0.00  0.00    +0.000 F 
ENDBRANCH  17  24
ENDBRANCH  12  13
BRANCH   1  28
ATOM     28  C   UNL     1      -1.221  11.598  21.305  0.00  0.00    +0.000 C 
BRANCH  28  31
ATOM     29  C   UNL     1      -2.688  13.491  23.001  0.00  0.00    +0.000 C 
ATOM     30  C   UNL     1      -1.156  13.494  22.872  0.00  0.00    +0.000 C 
ATOM     31  N   UNL     1      -1.158  12.023  22.715  0.00  0.00    +0.000 NA
ATOM     32  C   UNL     1      -2.516  11.987  23.320  0.00  0.00    +0.000 C 
BRANCH  29  34
ATOM     33  O   UNL     1      -3.369  14.140  25.277  0.00  0.00    +0.000 OA
ATOM     34  C   UNL     1      -3.327  14.384  24.078  0.00  0.00    +0.000 C 
BRANCH  34  35
ATOM     35  O   UNL     1      -3.899  15.520  23.587  0.00  0.00    +0.000 OA
ATOM     36  H   UNL     1      -4.145  15.465  22.644  0.00  0.00    +0.000 HD
ENDBRANCH  34  35
ENDBRANCH  29  34
ENDBRANCH  28  31
ENDBRANCH   1  28
TORSDOF 7
ENDMDL
MODEL 8
REMARK VINA RESULT:      -8.3      2.930      4.675
REMARK  Name = 
REMARK  7 active torsions:
REMARK  status: ('A' for Active; 'I' for Inactive)
REMARK    1  A    between atoms: C_2  and  O_3
REMARK    2  A    between atoms: C_2  and  C_4
REMARK    3  A    between atoms: N_6  and  C_7
REMARK    4  A    between atoms: C_7  and  C_8
REMARK    5  A    between atoms: C_19  and  C_20
REMARK    6  A    between atoms: C_23  and  C_24
REMARK    7  A    between atoms: C_30  and  C_31
REMARK                            x       y       z     vdW  Elec       q    Type
REMARK                         _______ _______ _______ _____ _____    ______ ____
ROOT
ATOM      1  C   UNL     1       5.954   4.961  15.914  0.00  0.00    +0.000 A 
ATOM      2  C   UNL     1       5.436   3.787  16.520  0.00  0.00    +0.000 A 
ATOM      3  C   UNL     1       4.482   3.857  17.527  0.00  0.00    +0.000 A 
ATOM      4  C   UNL     1       4.061   5.114  17.900  0.00  0.00    +0.000 A 
ATOM      5  C   UNL     1       4.527   6.316  17.320  0.00  0.00    +0.000 A 
ATOM      6  C   UNL     1       5.487   6.238  16.314  0.00  0.00    +0.000 A 
ATOM      7  C   UNL     1       3.866   7.578  17.934  0.00  0.00    +0.000 C 
ATOM      8  C   UNL     1       2.980   6.885  18.924  0.00  0.00    +0.000 A 
ATOM      9  C   UNL     1       3.121   5.491  18.885  0.00  0.00    +0.000 A 
ATOM     10  N   UNL     1       2.382   4.838  19.758  0.00  0.00    +0.000 NA
ATOM     11  O   UNL     1       1.703   5.859  20.416  0.00  0.00    +0.000 OA
ATOM     12  C   UNL     1       2.048   7.099  19.917  0.00  0.00    +0.000 A 
ENDROOT
BRANCH  12  13
ATOM     13  C   UNL     1       1.452   8.372  20.429  0.00  0.00    +0.000 A 
ATOM     14  N   UNL     1       1.318   8.596  21.738  0.00  0.00    +0.000 NA
ATOM     15  O   UNL     1       0.777   9.863  21.856  0.00  0.00    +0.000 OA
ATOM     16  C   UNL     1       0.545  10.392  20.619  0.00  0.00    +0.000 A 
ATOM     17  C   UNL     1       0.975   9.484  19.660  0.00  0.00    +0.000 A 
BRANCH  16  18
ATOM     18  C   UNL     1      -0.123  11.698  20.616  0.00  0.00    +0.000 A 
ATOM     19  C   UNL     1      -1.510  11.802  20.423  0.00  0.00    +0.000 A 
ATOM     20  C   UNL     1      -2.134  13.053  20.317  0.00  0.00    +0.000 A 
ATOM     21  C   UNL     1      -1.384  14.222  20.417  0.00  0.00    +0.000 A 
ATOM     22  C   UNL     1      -0.017  14.141  20.647  0.00  0.00    +0.000 A 
ATOM     23  C   UNL     1       0.605  12.891  20.745  0.00  0.00    +0.000 A 
ENDBRANCH  16  18
BRANCH  17  24
ATOM     24  C   UNL     1       0.906   9.678  18.201  0.00  0.00    +0.000 C 
ATOM     25  F   UNL     1       1.988  10.255  17.638  0.00  0.00    +0.000 F 
ATOM     26  F   UNL     1       0.749   8.496  17.547  0.00  0.00    +0.000 F 
ATOM     27  F   UNL     1      -0.152  10.457  17.854  0.00  0.00    +0.000 F 
ENDBRANCH  17  24
ENDBRANCH  12  13
BRANCH   1  28
ATOM     28  C   UNL     1       7.016   4.799  14.840  0.00  0.00    +0.000 C 
BRANCH  28  31
ATOM     29  C   UNL     1       6.088   2.964  12.745  0.00  0.00    +0.000 C 
ATOM     30  C   UNL     1       7.167   4.034  12.506  0.00  0.00    +0.000 C 
ATOM     31  N   UNL     1       6.497   4.936  13.467  0.00  0.00    +0.000 NA
ATOM     32  C   UNL     1       5.252   4.138  13.309  0.00  0.00    +0.000 C 
BRANCH  29  34
ATOM     33  O   UNL     1       4.530   2.512  10.891  0.00  0.00    +0.000 OA
ATOM     34  C   UNL     1       5.533   2.209  11.526  0.00  0.00    +0.000 C 
BRANCH  34  35
ATOM     35  O   UNL     1       6.252   1.102  11.186  0.00  0.00    +0.000 OA
ATOM     36  H   UNL     1       7.128   1.050  11.613  0.00  0.00    +0.000 HD
ENDBRANCH  34  35
ENDBRANCH  29  34
ENDBRANCH  28  31
ENDBRANCH   1  28
TORSDOF 7
ENDMDL
MODEL 9
REMARK VINA RESULT:      -8.3      1.993      2.274
REMARK  Name = 
REMARK  7 active torsions:
REMARK  status: ('A' for Active; 'I' for Inactive)
REMARK    1  A    between atoms: C_2  and  O_3
REMARK    2  A    between atoms: C_2  and  C_4
REMARK    3  A    between atoms: N_6  and  C_7
REMARK    4  A    between atoms: C_7  and  C_8
REMARK    5  A    between atoms: C_19  and  C_20
REMARK    6  A    between atoms: C_23  and  C_24
REMARK    7  A    between atoms: C_30  and  C_31
REMARK                            x       y       z     vdW  Elec       q    Type
REMARK                         _______ _______ _______ _____ _____    ______ ____
ROOT
ATOM      1  C   UNL     1       2.491   5.573  18.685  0.00  0.00    +0.000 A 
ATOM      2  C   UNL     1       2.339   5.515  20.095  0.00  0.00    +0.000 A 
ATOM      3  C   UNL     1       1.942   6.629  20.823  0.00  0.00    +0.000 A 
ATOM      4  C   UNL     1       1.694   7.783  20.112  0.00  0.00    +0.000 A 
ATOM      5  C   UNL     1       1.809   7.893  18.707  0.00  0.00    +0.000 A 
ATOM      6  C   UNL     1       2.214   6.773  17.985  0.00  0.00    +0.000 A 
ATOM      7  C   UNL     1       1.457   9.310  18.184  0.00  0.00    +0.000 C 
ATOM      8  C   UNL     1       1.136   9.943  19.503  0.00  0.00    +0.000 A 
ATOM      9  C   UNL     1       1.288   9.054  20.575  0.00  0.00    +0.000 A 
ATOM     10  N   UNL     1       1.045   9.574  21.761  0.00  0.00    +0.000 NA
ATOM     11  O   UNL     1       0.704  10.888  21.461  0.00  0.00    +0.000 OA
ATOM     12  C   UNL     1       0.746  11.123  20.101  0.00  0.00    +0.000 A 
ENDROOT
BRANCH  12  13
ATOM     13  C   UNL     1       0.405  12.449  19.497  0.00  0.00    +0.000 A 
ATOM     14  N   UNL     1      -0.703  12.614  18.770  0.00  0.00    +0.000 NA
ATOM     15  O   UNL     1      -0.726  13.947  18.406  0.00  0.00    +0.000 OA
ATOM     16  C   UNL     1       0.387  14.582  18.876  0.00  0.00    +0.000 A 
ATOM     17  C   UNL     1       1.145  13.672  19.601  0.00  0.00    +0.000 A 
BRANCH  16  18
ATOM     18  C   UNL     1       0.524  15.984  18.465  0.00  0.00    +0.000 A 
ATOM     19  C   UNL     1      -0.577  16.856  18.482  0.00  0.00    +0.000 A 
ATOM     20  C   UNL     1      -0.471  18.165  17.991  0.00  0.00    +0.000 A 
ATOM     21  C   UNL     1       0.741  18.631  17.489  0.00  0.00    +0.000 A 
ATOM     22  C   UNL     1       1.852  17.797  17.499  0.00  0.00    +0.000 A 
ATOM     23  C   UNL     1       1.742  16.488  17.981  0.00  0.00    +0.000 A 
ENDBRANCH  16  18
BRANCH  17  24
ATOM     24  C   UNL     1       2.421  13.963  20.277  0.00  0.00    +0.000 C 
ATOM     25  F   UNL     1       2.858  13.014  21.132  0.00  0.00    +0.000 F 
ATOM     26  F   UNL     1       3.433  14.132  19.384  0.00  0.00    +0.000 F 
ATOM     27  F   UNL     1       2.348  15.109  21.003  0.00  0.00    +0.000 F 
ENDBRANCH  17  24
ENDBRANCH  12  13
BRANCH   1  28
ATOM     28  C   UNL     1       2.957   4.319  17.967  0.00  0.00    +0.000 C 
BRANCH  28  31
ATOM     29  C   UNL     1       5.638   4.704  16.839  0.00  0.00    +0.000 C 
ATOM     30  C   UNL     1       5.066   3.320  17.186  0.00  0.00    +0.000 C 
ATOM     31  N   UNL     1       4.325   3.902  18.325  0.00  0.00    +0.000 NA
ATOM     32  C   UNL     1       5.241   5.073  18.288  0.00  0.00    +0.000 C 
BRANCH  29  34
ATOM     33  O   UNL     1       8.047   4.219  17.019  0.00  0.00    +0.000 OA
ATOM     34  C   UNL     1       7.126   4.798  16.457  0.00  0.00    +0.000 C 
BRANCH  34  35
ATOM     35  O   UNL     1       7.377   5.632  15.409  0.00  0.00    +0.000 OA
ATOM     36  H   UNL     1       7.860   5.212  14.674  0.00  0.00    +0.000 HD
ENDBRANCH  34  35
ENDBRANCH  29  34
ENDBRANCH  28  31
ENDBRANCH   1  28
TORSDOF 7
ENDMDL
