MODEL 1
REMARK VINA RESULT:      -8.0      0.000      0.000
REMARK  Name = 
REMARK  6 active torsions:
REMARK  status: ('A' for Active; 'I' for Inactive)
REMARK    1  A    between atoms: C_1  and  C_2
REMARK    2  A    between atoms: C_2  and  O_3
REMARK    3  A    between atoms: O_3  and  C_4
REMARK    4  A    between atoms: C_4  and  N_5
REMARK    5  A    between atoms: C_7  and  C_8
REMARK    6  A    between atoms: N_10  and  C_11
REMARK                            x       y       z     vdW  Elec       q    Type
REMARK                         _______ _______ _______ _____ _____    ______ ____
ROOT
ATOM      1  N   UNL     1      -2.013  10.594  18.041  0.00  0.00    +0.000 N 
ATOM      2  C   UNL     1      -1.075  10.727  19.171  0.00  0.00    +0.000 C 
ATOM      3  C   UNL     1       0.222  10.316  19.430  0.00  0.00    +0.000 C 
ATOM      4  C   UNL     1       0.720  10.792  20.772  0.00  0.00    +0.000 C 
ATOM      5  O   UNL     1       1.921  10.952  20.974  0.00  0.00    +0.000 OA
ATOM      6  C   UNL     1      -0.262  11.061  21.877  0.00  0.00    +0.000 C 
ATOM      7  C   UNL     1      -1.273  12.054  21.355  0.00  0.00    +0.000 C 
ATOM      8  N   UNL     1      -1.786  11.519  20.115  0.00  0.00    +0.000 N 
ATOM      9  C   UNL     1      -3.029  11.894  19.586  0.00  0.00    +0.000 A 
ATOM     10  C   UNL     1      -4.033  12.678  20.104  0.00  0.00    +0.000 A 
ATOM     11  C   UNL     1      -5.235  12.947  19.400  0.00  0.00    +0.000 A 
ATOM     12  C   UNL     1      -6.151  13.794  19.997  0.00  0.00    +0.000 A 
ATOM     13  C   UNL     1      -7.428  13.926  19.386  0.00  0.00    +0.000 A 
ATOM     14  C   UNL     1      -7.916  13.788  18.075  0.00  0.00    +0.000 A 
ATOM     15  C   UNL     1      -6.933  12.986  17.536  0.00  0.00    +0.000 A 
ATOM     16  C   UNL     1      -5.531  12.447  18.125  0.00  0.00    +0.000 A 
ATOM     17  C   UNL     1      -4.452  11.530  17.640  0.00  0.00    +0.000 A 
ATOM     18  C   UNL     1      -3.222  11.313  18.346  0.00  0.00    +0.000 A 
ENDROOT
BRANCH   3  19
ATOM     19  C   UNL     1       1.207   9.405  18.658  0.00  0.00    +0.000 C 
ATOM     20  O   UNL     1       1.651   9.674  17.545  0.00  0.00    +0.000 OA
ATOM     21  N   UNL     1       1.557   8.306  19.397  0.00  0.00    +0.000 N 
ATOM     22  H   UNL     1       1.733   8.635  20.315  0.00  0.00    +0.000 HD
BRANCH  21  23
ATOM     23  C   UNL     1       2.454   7.280  19.075  0.00  0.00    +0.000 A 
ATOM     24  C   UNL     1       3.341   7.427  18.025  0.00  0.00    +0.000 A 
ATOM     25  C   UNL     1       3.984   6.295  17.541  0.00  0.00    +0.000 A 
ATOM     26  C   UNL     1       3.925   5.085  18.241  0.00  0.00    +0.000 A 
ATOM     27  C   UNL     1       3.260   5.017  19.458  0.00  0.00    +0.000 A 
ATOM     28  C   UNL     1       2.454   6.086  19.816  0.00  0.00    +0.000 A 
ATOM     29  F   UNL     1       1.597   5.915  20.829  0.00  0.00    +0.000 F 
ENDBRANCH  21  23
ENDBRANCH   3  19
BRANCH   1  30
ATOM     30  C   UNL     1      -1.889   9.876  16.771  0.00  0.00    +0.000 C 
BRANCH  30  31
ATOM     31  O   UNL     1      -2.987   9.570  15.975  0.00  0.00    +0.000 OA
BRANCH  31  33
ATOM     32  C   UNL     1      -3.876   9.848  13.836  0.00  0.00    +0.000 C 
ATOM     33  C   UNL     1      -2.886  10.391  14.807  0.00  0.00    +0.000 C 
ENDBRANCH  31  33
ENDBRANCH  30  31
ENDBRANCH   1  30
TORSDOF 5
ENDMDL
MODEL 2
REMARK VINA RESULT:      -7.9      1.499      1.942
REMARK  Name = 
REMARK  6 active torsions:
REMARK  status: ('A' for Active; 'I' for Inactive)
REMARK    1  A    between atoms: C_1  and  C_2
REMARK    2  A    between atoms: C_2  and  O_3
REMARK    3  A    between atoms: O_3  and  C_4
REMARK    4  A    between atoms: C_4  and  N_5
REMARK    5  A    between atoms: C_7  and  C_8
REMARK    6  A    between atoms: N_10  and  C_11
REMARK                            x       y       z     vdW  Elec       q    Type
REMARK                         _______ _______ _______ _____ _____    ______ ____
ROOT
ATOM      1  N   UNL     1      -1.586  11.365  19.559  0.00  0.00    +0.000 N 
ATOM      2  C   UNL     1      -0.788  10.755  20.639  0.00  0.00    +0.000 C 
ATOM      3  C   UNL     1       0.349   9.968  20.700  0.00  0.00    +0.000 C 
ATOM      4  C   UNL     1       0.769   9.670  22.119  0.00  0.00    +0.000 C 
ATOM      5  O   UNL     1       1.941   9.424  22.388  0.00  0.00    +0.000 OA
ATOM      6  C   UNL     1      -0.262   9.660  23.212  0.00  0.00    +0.000 C 
ATOM      7  C   UNL     1      -0.967  10.996  23.185  0.00  0.00    +0.000 C 
ATOM      8  N   UNL     1      -1.425  11.202  21.831  0.00  0.00    +0.000 N 
ATOM      9  C   UNL     1      -2.485  12.063  21.512  0.00  0.00    +0.000 A 
ATOM     10  C   UNL     1      -3.354  12.762  22.317  0.00  0.00    +0.000 A 
ATOM     11  C   UNL     1      -4.374  13.598  21.795  0.00  0.00    +0.000 A 
ATOM     12  C   UNL     1      -5.156  14.295  22.699  0.00  0.00    +0.000 A 
ATOM     13  C   UNL     1      -6.290  14.990  22.198  0.00  0.00    +0.000 A 
ATOM     14  C   UNL     1      -6.631  15.565  20.961  0.00  0.00    +0.000 A 
ATOM     15  C   UNL     1      -5.782  14.865  20.130  0.00  0.00    +0.000 A 
ATOM     16  C   UNL     1      -4.611  13.796  20.429  0.00  0.00    +0.000 A 
ATOM     17  C   UNL     1      -3.701  12.950  19.595  0.00  0.00    +0.000 A 
ATOM     18  C   UNL     1      -2.642  12.151  20.142  0.00  0.00    +0.000 A 
ENDROOT
BRANCH   3  19
ATOM     19  C   UNL     1       1.206   9.276  19.613  0.00  0.00    +0.000 C 
ATOM     20  O   UNL     1       1.549   9.822  18.567  0.00  0.00    +0.000 OA
ATOM     21  N   UNL     1       1.574   8.012  19.994  0.00  0.00    +0.000 N 
ATOM     22  H   UNL     1       1.857   8.080  20.941  0.00  0.00    +0.000 HD
BRANCH  21  23
ATOM     23  C   UNL     1       2.382   7.090  19.317  0.00  0.00    +0.000 A 
ATOM     24  C   UNL     1       3.199   7.502  18.280  0.00  0.00    +0.000 A 
ATOM     25  C   UNL     1       3.736   6.535  17.440  0.00  0.00    +0.000 A 
ATOM     26  C   UNL     1       3.655   5.178  17.768  0.00  0.00    +0.000 A 
ATOM     27  C   UNL     1       3.076   4.785  18.967  0.00  0.00    +0.000 A 
ATOM     28  C   UNL     1       2.363   5.734  19.684  0.00  0.00    +0.000 A 
ATOM     29  F   UNL     1       1.572   5.309  20.675  0.00  0.00    +0.000 F 
ENDBRANCH  21  23
ENDBRANCH   3  19
BRANCH   1  30
ATOM     30  C   UNL     1      -1.462  11.269  18.104  0.00  0.00    +0.000 C 
BRANCH  30  31
ATOM     31  O   UNL     1      -2.143  10.316  17.357  0.00  0.00    +0.000 OA
BRANCH  31  33
ATOM     32  C   UNL     1      -2.992   9.986  15.208  0.00  0.00    +0.000 C 
ATOM     33  C   UNL     1      -2.748  11.011  16.260  0.00  0.00    +0.000 C 
ENDBRANCH  31  33
ENDBRANCH  30  31
ENDBRANCH   1  30
TORSDOF 5
ENDMDL
MODEL 3
REMARK VINA RESULT:      -7.9      4.204      8.697
REMARK  Name = 
REMARK  6 active torsions:
REMARK  status: ('A' for Active; 'I' for Inactive)
REMARK    1  A    between atoms: C_1  and  C_2
REMARK    2  A    between atoms: C_2  and  O_3
REMARK    3  A    between atoms: O_3  and  C_4
REMARK    4  A    between atoms: C_4  and  N_5
REMARK    5  A    between atoms: C_7  and  C_8
REMARK    6  A    between atoms: N_10  and  C_11
REMARK                            x       y       z     vdW  Elec       q    Type
REMARK                         _______ _______ _______ _____ _____    ______ ____
ROOT
ATOM      1  N   UNL     1       1.089  10.178  19.322  0.00  0.00    +0.000 N 
ATOM      2  C   UNL     1       0.333  10.392  20.570  0.00  0.00    +0.000 C 
ATOM      3  C   UNL     1      -0.424  11.424  21.099  0.00  0.00    +0.000 C 
ATOM      4  C   UNL     1      -1.032  11.068  22.433  0.00  0.00    +0.000 C 
ATOM      5  O   UNL     1      -2.065  11.609  22.816  0.00  0.00    +0.000 OA
ATOM      6  C   UNL     1      -0.358  10.049  23.309  0.00  0.00    +0.000 C 
ATOM      7  C   UNL     1      -0.197   8.786  22.496  0.00  0.00    +0.000 C 
ATOM      8  N   UNL     1       0.463   9.159  21.267  0.00  0.00    +0.000 N 
ATOM      9  C   UNL     1       1.185   8.243  20.487  0.00  0.00    +0.000 A 
ATOM     10  C   UNL     1       1.527   6.931  20.719  0.00  0.00    +0.000 A 
ATOM     11  C   UNL     1       2.270   6.159  19.789  0.00  0.00    +0.000 A 
ATOM     12  C   UNL     1       2.509   4.833  20.105  0.00  0.00    +0.000 A 
ATOM     13  C   UNL     1       3.401   4.104  19.272  0.00  0.00    +0.000 A 
ATOM     14  C   UNL     1       3.795   4.196  17.925  0.00  0.00    +0.000 A 
ATOM     15  C   UNL     1       3.477   5.514  17.672  0.00  0.00    +0.000 A 
ATOM     16  C   UNL     1       2.736   6.639  18.559  0.00  0.00    +0.000 A 
ATOM     17  C   UNL     1       2.417   8.092  18.390  0.00  0.00    +0.000 A 
ATOM     18  C   UNL     1       1.620   8.840  19.319  0.00  0.00    +0.000 A 
ENDROOT
BRANCH   3  19
ATOM     19  C   UNL     1      -0.690  12.876  20.633  0.00  0.00    +0.000 C 
ATOM     20  O   UNL     1      -1.128  13.164  19.522  0.00  0.00    +0.000 OA
ATOM     21  N   UNL     1      -0.430  13.777  21.631  0.00  0.00    +0.000 N 
ATOM     22  H   UNL     1      -0.822  13.396  22.457  0.00  0.00    +0.000 HD
BRANCH  21  23
ATOM     23  C   UNL     1      -0.590  15.169  21.622  0.00  0.00    +0.000 A 
ATOM     24  C   UNL     1       0.398  15.985  21.105  0.00  0.00    +0.000 A 
ATOM     25  C   UNL     1       0.350  17.344  21.393  0.00  0.00    +0.000 A 
ATOM     26  C   UNL     1      -0.785  17.909  21.983  0.00  0.00    +0.000 A 
ATOM     27  C   UNL     1      -1.900  17.123  22.244  0.00  0.00    +0.000 A 
ATOM     28  C   UNL     1      -1.758  15.747  22.148  0.00  0.00    +0.000 A 
ATOM     29  F   UNL     1      -2.723  14.979  22.666  0.00  0.00    +0.000 F 
ENDBRANCH  21  23
ENDBRANCH   3  19
BRANCH   1  30
ATOM     30  C   UNL     1       1.357  11.075  18.197  0.00  0.00    +0.000 C 
BRANCH  30  31
ATOM     31  O   UNL     1       2.528  11.816  18.094  0.00  0.00    +0.000 OA
BRANCH  31  33
ATOM     32  C   UNL     1       2.779  13.721  19.419  0.00  0.00    +0.000 C 
ATOM     33  C   UNL     1       2.148  13.195  18.178  0.00  0.00    +0.000 C 
ENDBRANCH  31  33
ENDBRANCH  30  31
ENDBRANCH   1  30
TORSDOF 5
ENDMDL
MODEL 4
REMARK VINA RESULT:      -7.8      1.824      4.138
REMARK  Name = 
REMARK  6 active torsions:
REMARK  status: ('A' for Active; 'I' for Inactive)
REMARK    1  A    between atoms: C_1  and  C_2
REMARK    2  A    between atoms: C_2  and  O_3
REMARK    3  A    between atoms: O_3  and  C_4
REMARK    4  A    between atoms: C_4  and  N_5
REMARK    5  A    between atoms: C_7  and  C_8
REMARK    6  A    between atoms: N_10  and  C_11
REMARK                            x       y       z     vdW  Elec       q    Type
REMARK                         _______ _______ _______ _____ _____    ______ ____
ROOT
ATOM      1  N   UNL     1      -1.391  12.244  20.816  0.00  0.00    +0.000 N 
ATOM      2  C   UNL     1      -1.593  11.616  19.497  0.00  0.00    +0.000 C 
ATOM      3  C   UNL     1      -0.834  10.814  18.660  0.00  0.00    +0.000 C 
ATOM      4  C   UNL     1      -1.585  10.407  17.416  0.00  0.00    +0.000 C 
ATOM      5  O   UNL     1      -1.300   9.371  16.823  0.00  0.00    +0.000 OA
ATOM      6  C   UNL     1      -2.684  11.286  16.890  0.00  0.00    +0.000 C 
ATOM      7  C   UNL     1      -3.677  11.492  18.009  0.00  0.00    +0.000 C 
ATOM      8  N   UNL     1      -2.929  11.962  19.153  0.00  0.00    +0.000 N 
ATOM      9  C   UNL     1      -3.520  12.687  20.198  0.00  0.00    +0.000 A 
ATOM     10  C   UNL     1      -4.790  13.198  20.339  0.00  0.00    +0.000 A 
ATOM     11  C   UNL     1      -5.202  13.911  21.494  0.00  0.00    +0.000 A 
ATOM     12  C   UNL     1      -6.519  14.331  21.550  0.00  0.00    +0.000 A 
ATOM     13  C   UNL     1      -6.894  15.197  22.613  0.00  0.00    +0.000 A 
ATOM     14  C   UNL     1      -6.424  15.422  23.918  0.00  0.00    +0.000 A 
ATOM     15  C   UNL     1      -5.140  14.933  23.798  0.00  0.00    +0.000 A 
ATOM     16  C   UNL     1      -4.378  14.177  22.595  0.00  0.00    +0.000 A 
ATOM     17  C   UNL     1      -2.985  13.681  22.358  0.00  0.00    +0.000 A 
ATOM     18  C   UNL     1      -2.602  12.917  21.206  0.00  0.00    +0.000 A 
ENDROOT
BRANCH   3  19
ATOM     19  C   UNL     1       0.637  10.337  18.715  0.00  0.00    +0.000 C 
ATOM     20  O   UNL     1       1.588  11.088  18.911  0.00  0.00    +0.000 OA
ATOM     21  N   UNL     1       0.727   8.977  18.575  0.00  0.00    +0.000 N 
ATOM     22  H   UNL     1       0.014   8.592  19.144  0.00  0.00    +0.000 HD
BRANCH  21  23
ATOM     23  C   UNL     1       1.867   8.163  18.617  0.00  0.00    +0.000 A 
ATOM     24  C   UNL     1       2.798   8.207  17.596  0.00  0.00    +0.000 A 
ATOM     25  C   UNL     1       3.733   7.183  17.512  0.00  0.00    +0.000 A 
ATOM     26  C   UNL     1       3.885   6.266  18.557  0.00  0.00    +0.000 A 
ATOM     27  C   UNL     1       3.132   6.401  19.716  0.00  0.00    +0.000 A 
ATOM     28  C   UNL     1       2.067   7.289  19.697  0.00  0.00    +0.000 A 
ATOM     29  F   UNL     1       1.175   7.219  20.691  0.00  0.00    +0.000 F 
ENDBRANCH  21  23
ENDBRANCH   3  19
BRANCH   1  30
ATOM     30  C   UNL     1      -0.219  12.280  21.692  0.00  0.00    +0.000 C 
BRANCH  30  31
ATOM     31  O   UNL     1       0.373  11.128  22.197  0.00  0.00    +0.000 OA
BRANCH  31  33
ATOM     32  C   UNL     1      -0.506   9.019  22.667  0.00  0.00    +0.000 C 
ATOM     33  C   UNL     1      -0.623  10.468  22.986  0.00  0.00    +0.000 C 
ENDBRANCH  31  33
ENDBRANCH  30  31
ENDBRANCH   1  30
TORSDOF 5
ENDMDL
MODEL 5
REMARK VINA RESULT:      -7.8      5.110      7.927
REMARK  Name = 
REMARK  6 active torsions:
REMARK  status: ('A' for Active; 'I' for Inactive)
REMARK    1  A    between atoms: C_1  and  C_2
REMARK    2  A    between atoms: C_2  and  O_3
REMARK    3  A    between atoms: O_3  and  C_4
REMARK    4  A    between atoms: C_4  and  N_5
REMARK    5  A    between atoms: C_7  and  C_8
REMARK    6  A    between atoms: N_10  and  C_11
REMARK                            x       y       z     vdW  Elec       q    Type
REMARK                         _______ _______ _______ _____ _____    ______ ____
ROOT
ATOM      1  N   UNL     1       3.678   6.914  17.903  0.00  0.00    +0.000 N 
ATOM      2  C   UNL     1       3.810   5.532  18.400  0.00  0.00    +0.000 C 
ATOM      3  C   UNL     1       4.595   4.438  18.075  0.00  0.00    +0.000 C 
ATOM      4  C   UNL     1       4.340   3.257  18.979  0.00  0.00    +0.000 C 
ATOM      5  O   UNL     1       5.212   2.415  19.171  0.00  0.00    +0.000 OA
ATOM      6  C   UNL     1       2.999   3.103  19.640  0.00  0.00    +0.000 C 
ATOM      7  C   UNL     1       2.724   4.372  20.411  0.00  0.00    +0.000 C 
ATOM      8  N   UNL     1       2.896   5.470  19.489  0.00  0.00    +0.000 N 
ATOM      9  C   UNL     1       2.299   6.724  19.683  0.00  0.00    +0.000 A 
ATOM     10  C   UNL     1       1.392   7.157  20.623  0.00  0.00    +0.000 A 
ATOM     11  C   UNL     1       0.902   8.487  20.656  0.00  0.00    +0.000 A 
ATOM     12  C   UNL     1       0.035   8.825  21.680  0.00  0.00    +0.000 A 
ATOM     13  C   UNL     1      -0.600  10.096  21.619  0.00  0.00    +0.000 A 
ATOM     14  C   UNL     1      -0.275  11.337  21.044  0.00  0.00    +0.000 A 
ATOM     15  C   UNL     1       0.623  10.927  20.082  0.00  0.00    +0.000 A 
ATOM     16  C   UNL     1       1.274   9.489  19.750  0.00  0.00    +0.000 A 
ATOM     17  C   UNL     1       2.191   8.950  18.696  0.00  0.00    +0.000 A 
ATOM     18  C   UNL     1       2.714   7.614  18.711  0.00  0.00    +0.000 A 
ENDROOT
BRANCH   3  19
ATOM     19  C   UNL     1       5.602   4.173  16.930  0.00  0.00    +0.000 C 
ATOM     20  O   UNL     1       6.726   3.709  17.107  0.00  0.00    +0.000 OA
ATOM     21  N   UNL     1       5.058   4.465  15.708  0.00  0.00    +0.000 N 
ATOM     22  H   UNL     1       4.141   4.092  15.716  0.00  0.00    +0.000 HD
BRANCH  21  23
ATOM     23  C   UNL     1       5.625   4.316  14.435  0.00  0.00    +0.000 A 
ATOM     24  C   UNL     1       4.958   3.615  13.448  0.00  0.00    +0.000 A 
ATOM     25  C   UNL     1       5.671   3.222  12.322  0.00  0.00    +0.000 A 
ATOM     26  C   UNL     1       6.954   3.722  12.078  0.00  0.00    +0.000 A 
ATOM     27  C   UNL     1       7.512   4.658  12.938  0.00  0.00    +0.000 A 
ATOM     28  C   UNL     1       6.883   4.875  14.155  0.00  0.00    +0.000 A 
ATOM     29  F   UNL     1       7.553   5.547  15.097  0.00  0.00    +0.000 F 
ENDBRANCH  21  23
ENDBRANCH   3  19
BRANCH   1  30
ATOM     30  C   UNL     1       4.329   7.597  16.783  0.00  0.00    +0.000 C 
BRANCH  30  31
ATOM     31  O   UNL     1       5.653   7.363  16.433  0.00  0.00    +0.000 OA
BRANCH  31  33
ATOM     32  C   UNL     1       7.545   7.077  17.769  0.00  0.00    +0.000 C 
ATOM     33  C   UNL     1       6.460   8.031  17.410  0.00  0.00    +0.000 C 
ENDBRANCH  31  33
ENDBRANCH  30  31
ENDBRANCH   1  30
TORSDOF 5
ENDMDL
MODEL 6
REMARK VINA RESULT:      -7.8      2.591      8.387
REMARK  Name = 
REMARK  6 active torsions:
REMARK  status: ('A' for Active; 'I' for Inactive)
REMARK    1  A    between atoms: C_1  and  C_2
REMARK    2  A    between atoms: C_2  and  O_3
REMARK    3  A    between atoms: O_3  and  C_4
REMARK    4  A    between atoms: C_4  and  N_5
REMARK    5  A    between atoms: C_7  and  C_8
REMARK    6  A    between atoms: N_10  and  C_11
REMARK                            x       y       z     vdW  Elec       q    Type
REMARK                         _______ _______ _______ _____ _____    ______ ____
ROOT
ATOM      1  N   UNL     1      -0.307  10.885  19.230  0.00  0.00    +0.000 N 
ATOM      2  C   UNL     1      -0.826  11.012  20.604  0.00  0.00    +0.000 C 
ATOM      3  C   UNL     1      -1.758  11.819  21.235  0.00  0.00    +0.000 C 
ATOM      4  C   UNL     1      -1.937  11.465  22.691  0.00  0.00    +0.000 C 
ATOM      5  O   UNL     1      -2.992  11.706  23.270  0.00  0.00    +0.000 OA
ATOM      6  C   UNL     1      -0.805  10.822  23.443  0.00  0.00    +0.000 C 
ATOM      7  C   UNL     1      -0.405   9.578  22.686  0.00  0.00    +0.000 C 
ATOM      8  N   UNL     1      -0.162   9.977  21.319  0.00  0.00    +0.000 N 
ATOM      9  C   UNL     1       0.649   9.237  20.447  0.00  0.00    +0.000 A 
ATOM     10  C   UNL     1       1.441   8.134  20.666  0.00  0.00    +0.000 A 
ATOM     11  C   UNL     1       2.195   7.518  19.635  0.00  0.00    +0.000 A 
ATOM     12  C   UNL     1       2.914   6.381  19.960  0.00  0.00    +0.000 A 
ATOM     13  C   UNL     1       3.811   5.863  18.986  0.00  0.00    +0.000 A 
ATOM     14  C   UNL     1       3.876   5.900  17.582  0.00  0.00    +0.000 A 
ATOM     15  C   UNL     1       3.100   7.013  17.336  0.00  0.00    +0.000 A 
ATOM     16  C   UNL     1       2.223   7.958  18.306  0.00  0.00    +0.000 A 
ATOM     17  C   UNL     1       1.419   9.209  18.134  0.00  0.00    +0.000 A 
ATOM     18  C   UNL     1       0.622   9.786  19.179  0.00  0.00    +0.000 A 
ENDROOT
BRANCH   3  19
ATOM     19  C   UNL     1      -2.573  13.048  20.762  0.00  0.00    +0.000 C 
ATOM     20  O   UNL     1      -2.061  14.096  20.377  0.00  0.00    +0.000 OA
ATOM     21  N   UNL     1      -3.919  12.792  20.777  0.00  0.00    +0.000 N 
ATOM     22  H   UNL     1      -4.032  11.888  20.388  0.00  0.00    +0.000 HD
BRANCH  21  23
ATOM     23  C   UNL     1      -4.975  13.621  20.380  0.00  0.00    +0.000 A 
ATOM     24  C   UNL     1      -5.384  14.669  21.183  0.00  0.00    +0.000 A 
ATOM     25  C   UNL     1      -6.612  15.264  20.918  0.00  0.00    +0.000 A 
ATOM     26  C   UNL     1      -7.304  14.978  19.737  0.00  0.00    +0.000 A 
ATOM     27  C   UNL     1      -6.745  14.130  18.791  0.00  0.00    +0.000 A 
ATOM     28  C   UNL     1      -5.634  13.388  19.161  0.00  0.00    +0.000 A 
ATOM     29  F   UNL     1      -5.265  12.373  18.372  0.00  0.00    +0.000 F 
ENDBRANCH  21  23
ENDBRANCH   3  19
BRANCH   1  30
ATOM     30  C   UNL     1      -0.577  11.671  18.025  0.00  0.00    +0.000 C 
BRANCH  30  31
ATOM     31  O   UNL     1      -1.858  11.830  17.508  0.00  0.00    +0.000 OA
BRANCH  31  33
ATOM     32  C   UNL     1      -3.031  10.977  15.680  0.00  0.00    +0.000 C 
ATOM     33  C   UNL     1      -2.187  10.602  16.847  0.00  0.00    +0.000 C 
ENDBRANCH  31  33
ENDBRANCH  30  31
ENDBRANCH   1  30
TORSDOF 5
ENDMDL
MODEL 7
REMARK VINA RESULT:      -7.8      3.997      8.524
REMARK  Name = 
REMARK  6 active torsions:
REMARK  status: ('A' for Active; 'I' for Inactive)
REMARK    1  A    between atoms: C_1  and  C_2
REMARK    2  A    between atoms: C_2  and  O_3
REMARK    3  A    between atoms: O_3  and  C_4
REMARK    4  A    between atoms: C_4  and  N_5
REMARK    5  A    between atoms: C_7  and  C_8
REMARK    6  A    between atoms: N_10  and  C_11
REMARK                            x       y       z     vdW  Elec       q    Type
REMARK                         _______ _______ _______ _____ _____    ______ ____
ROOT
ATOM      1  N   UNL     1       0.631  10.667  19.374  0.00  0.00    +0.000 N 
ATOM      2  C   UNL     1      -0.098  10.801  20.649  0.00  0.00    +0.000 C 
ATOM      3  C   UNL     1      -0.936  11.750  21.210  0.00  0.00    +0.000 C 
ATOM      4  C   UNL     1      -1.458  11.331  22.562  0.00  0.00    +0.000 C 
ATOM      5  O   UNL     1      -2.526  11.765  22.984  0.00  0.00    +0.000 OA
ATOM      6  C   UNL     1      -0.655  10.383  23.407  0.00  0.00    +0.000 C 
ATOM      7  C   UNL     1      -0.397   9.145  22.582  0.00  0.00    +0.000 C 
ATOM      8  N   UNL     1       0.179   9.585  21.333  0.00  0.00    +0.000 N 
ATOM      9  C   UNL     1       0.961   8.749  20.523  0.00  0.00    +0.000 A 
ATOM     10  C   UNL     1       1.441   7.477  20.734  0.00  0.00    +0.000 A 
ATOM     11  C   UNL     1       2.225   6.786  19.775  0.00  0.00    +0.000 A 
ATOM     12  C   UNL     1       2.607   5.490  20.073  0.00  0.00    +0.000 A 
ATOM     13  C   UNL     1       3.538   4.857  19.205  0.00  0.00    +0.000 A 
ATOM     14  C   UNL     1       3.874   4.992  17.847  0.00  0.00    +0.000 A 
ATOM     15  C   UNL     1       3.417   6.272  17.613  0.00  0.00    +0.000 A 
ATOM     16  C   UNL     1       2.598   7.314  18.532  0.00  0.00    +0.000 A 
ATOM     17  C   UNL     1       2.129   8.728  18.383  0.00  0.00    +0.000 A 
ATOM     18  C   UNL     1       1.294   9.390  19.344  0.00  0.00    +0.000 A 
ENDROOT
BRANCH   3  19
ATOM     19  C   UNL     1      -1.362  13.170  20.763  0.00  0.00    +0.000 C 
ATOM     20  O   UNL     1      -2.513  13.468  20.453  0.00  0.00    +0.000 OA
ATOM     21  N   UNL     1      -0.312  14.047  20.814  0.00  0.00    +0.000 N 
ATOM     22  H   UNL     1       0.156  13.869  21.669  0.00  0.00    +0.000 HD
BRANCH  21  23
ATOM     23  C   UNL     1      -0.299  15.420  20.538  0.00  0.00    +0.000 A 
ATOM     24  C   UNL     1      -0.193  16.341  21.563  0.00  0.00    +0.000 A 
ATOM     25  C   UNL     1      -0.497  17.670  21.291  0.00  0.00    +0.000 A 
ATOM     26  C   UNL     1      -0.670  18.107  19.974  0.00  0.00    +0.000 A 
ATOM     27  C   UNL     1      -0.492  17.224  18.917  0.00  0.00    +0.000 A 
ATOM     28  C   UNL     1      -0.401  15.872  19.212  0.00  0.00    +0.000 A 
ATOM     29  F   UNL     1      -0.517  15.001  18.203  0.00  0.00    +0.000 F 
ENDBRANCH  21  23
ENDBRANCH   3  19
BRANCH   1  30
ATOM     30  C   UNL     1       0.769  11.590  18.246  0.00  0.00    +0.000 C 
BRANCH  30  31
ATOM     31  O   UNL     1       1.242  12.889  18.395  0.00  0.00    +0.000 OA
BRANCH  31  33
ATOM     32  C   UNL     1       3.149  14.233  18.334  0.00  0.00    +0.000 C 
ATOM     33  C   UNL     1       2.655  12.838  18.168  0.00  0.00    +0.000 C 
ENDBRANCH  31  33
ENDBRANCH  30  31
ENDBRANCH   1  30
TORSDOF 5
ENDMDL
MODEL 8
REMARK VINA RESULT:      -7.8      4.046      8.469
REMARK  Name = 
REMARK  6 active torsions:
REMARK  status: ('A' for Active; 'I' for Inactive)
REMARK    1  A    between atoms: C_1  and  C_2
REMARK    2  A    between atoms: C_2  and  O_3
REMARK    3  A    between atoms: O_3  and  C_4
REMARK    4  A    between atoms: C_4  and  N_5
REMARK    5  A    between atoms: C_7  and  C_8
REMARK    6  A    between atoms: N_10  and  C_11
REMARK                            x       y       z     vdW  Elec       q    Type
REMARK                         _______ _______ _______ _____ _____    ______ ____
ROOT
ATOM      1  N   UNL     1       0.734  10.506  19.313  0.00  0.00    +0.000 N 
ATOM      2  C   UNL     1      -0.008  10.687  20.574  0.00  0.00    +0.000 C 
ATOM      3  C   UNL     1      -0.832  11.667  21.101  0.00  0.00    +0.000 C 
ATOM      4  C   UNL     1      -1.379  11.292  22.456  0.00  0.00    +0.000 C 
ATOM      5  O   UNL     1      -2.443  11.758  22.854  0.00  0.00    +0.000 OA
ATOM      6  C   UNL     1      -0.607  10.348  23.335  0.00  0.00    +0.000 C 
ATOM      7  C   UNL     1      -0.365   9.085  22.543  0.00  0.00    +0.000 C 
ATOM      8  N   UNL     1       0.236   9.482  21.291  0.00  0.00    +0.000 N 
ATOM      9  C   UNL     1       1.010   8.610  20.512  0.00  0.00    +0.000 A 
ATOM     10  C   UNL     1       1.460   7.334  20.760  0.00  0.00    +0.000 A 
ATOM     11  C   UNL     1       2.240   6.604  19.827  0.00  0.00    +0.000 A 
ATOM     12  C   UNL     1       2.591   5.308  20.162  0.00  0.00    +0.000 A 
ATOM     13  C   UNL     1       3.519   4.634  19.322  0.00  0.00    +0.000 A 
ATOM     14  C   UNL     1       3.874   4.728  17.965  0.00  0.00    +0.000 A 
ATOM     15  C   UNL     1       3.447   6.011  17.694  0.00  0.00    +0.000 A 
ATOM     16  C   UNL     1       2.639   7.093  18.577  0.00  0.00    +0.000 A 
ATOM     17  C   UNL     1       2.203   8.512  18.388  0.00  0.00    +0.000 A 
ATOM     18  C   UNL     1       1.370   9.215  19.322  0.00  0.00    +0.000 A 
ENDROOT
BRANCH   3  19
ATOM     19  C   UNL     1      -1.222  13.083  20.614  0.00  0.00    +0.000 C 
ATOM     20  O   UNL     1      -2.360  13.395  20.271  0.00  0.00    +0.000 OA
ATOM     21  N   UNL     1      -0.158  13.943  20.672  0.00  0.00    +0.000 N 
ATOM     22  H   UNL     1       0.286  13.775  21.541  0.00  0.00    +0.000 HD
BRANCH  21  23
ATOM     23  C   UNL     1      -0.114  15.310  20.367  0.00  0.00    +0.000 A 
ATOM     24  C   UNL     1      -0.278  15.743  19.065  0.00  0.00    +0.000 A 
ATOM     25  C   UNL     1       0.079  17.050  18.754  0.00  0.00    +0.000 A 
ATOM     26  C   UNL     1       0.367  17.971  19.766  0.00  0.00    +0.000 A 
ATOM     27  C   UNL     1       0.252  17.600  21.099  0.00  0.00    +0.000 A 
ATOM     28  C   UNL     1       0.104  16.252  21.386  0.00  0.00    +0.000 A 
ATOM     29  F   UNL     1       0.278  15.856  22.652  0.00  0.00    +0.000 F 
ENDBRANCH  21  23
ENDBRANCH   3  19
BRANCH   1  30
ATOM     30  C   UNL     1       0.905  11.398  18.164  0.00  0.00    +0.000 C 
BRANCH  30  31
ATOM     31  O   UNL     1       1.231  12.742  18.302  0.00  0.00    +0.000 OA
BRANCH  31  33
ATOM     32  C   UNL     1       2.986  14.276  18.192  0.00  0.00    +0.000 C 
ATOM     33  C   UNL     1       2.660  12.824  18.247  0.00  0.00    +0.000 C 
ENDBRANCH  31  33
ENDBRANCH  30  31
ENDBRANCH   1  30
TORSDOF 5
ENDMDL
MODEL 9
REMARK VINA RESULT:      -7.8      3.179      4.130
REMARK  Name = 
REMARK  6 active torsions:
REMARK  status: ('A' for Active; 'I' for Inactive)
REMARK    1  A    between atoms: C_1  and  C_2
REMARK    2  A    between atoms: C_2  and  O_3
REMARK    3  A    between atoms: O_3  and  C_4
REMARK    4  A    between atoms: C_4  and  N_5
REMARK    5  A    between atoms: C_7  and  C_8
REMARK    6  A    between atoms: N_10  and  C_11
REMARK                            x       y       z     vdW  Elec       q    Type
REMARK                         _______ _______ _______ _____ _____    ______ ____
ROOT
ATOM      1  N   UNL     1      -0.144  11.949  19.556  0.00  0.00    +0.000 N 
ATOM      2  C   UNL     1      -0.407  11.505  20.937  0.00  0.00    +0.000 C 
ATOM      3  C   UNL     1      -0.311  10.306  21.623  0.00  0.00    +0.000 C 
ATOM      4  C   UNL     1      -0.669  10.446  23.082  0.00  0.00    +0.000 C 
ATOM      5  O   UNL     1      -0.207   9.674  23.917  0.00  0.00    +0.000 OA
ATOM      6  C   UNL     1      -1.611  11.533  23.515  0.00  0.00    +0.000 C 
ATOM      7  C   UNL     1      -1.046  12.846  23.027  0.00  0.00    +0.000 C 
ATOM      8  N   UNL     1      -0.797  12.696  21.612  0.00  0.00    +0.000 N 
ATOM      9  C   UNL     1      -0.720  13.789  20.736  0.00  0.00    +0.000 A 
ATOM     10  C   UNL     1      -0.959  15.128  20.939  0.00  0.00    +0.000 A 
ATOM     11  C   UNL     1      -0.820  16.094  19.909  0.00  0.00    +0.000 A 
ATOM     12  C   UNL     1      -1.034  17.420  20.242  0.00  0.00    +0.000 A 
ATOM     13  C   UNL     1      -1.075  18.370  19.186  0.00  0.00    +0.000 A 
ATOM     14  C   UNL     1      -0.514  18.443  17.899  0.00  0.00    +0.000 A 
ATOM     15  C   UNL     1      -0.280  17.105  17.663  0.00  0.00    +0.000 A 
ATOM     16  C   UNL     1      -0.438  15.797  18.595  0.00  0.00    +0.000 A 
ATOM     17  C   UNL     1      -0.275  14.322  18.400  0.00  0.00    +0.000 A 
ATOM     18  C   UNL     1      -0.370  13.368  19.466  0.00  0.00    +0.000 A 
ENDROOT
BRANCH   3  19
ATOM     19  C   UNL     1       0.004   8.860  21.168  0.00  0.00    +0.000 C 
ATOM     20  O   UNL     1      -0.761   7.914  21.333  0.00  0.00    +0.000 OA
ATOM     21  N   UNL     1       1.207   8.791  20.516  0.00  0.00    +0.000 N 
ATOM     22  H   UNL     1       1.233   9.567  19.901  0.00  0.00    +0.000 HD
BRANCH  21  23
ATOM     23  C   UNL     1       1.819   7.683  19.916  0.00  0.00    +0.000 A 
ATOM     24  C   UNL     1       1.790   6.447  20.533  0.00  0.00    +0.000 A 
ATOM     25  C   UNL     1       2.658   5.462  20.078  0.00  0.00    +0.000 A 
ATOM     26  C   UNL     1       3.369   5.631  18.886  0.00  0.00    +0.000 A 
ATOM     27  C   UNL     1       3.175   6.770  18.115  0.00  0.00    +0.000 A 
ATOM     28  C   UNL     1       2.476   7.824  18.683  0.00  0.00    +0.000 A 
ATOM     29  F   UNL     1       2.529   9.013  18.072  0.00  0.00    +0.000 F 
ENDBRANCH  21  23
ENDBRANCH   3  19
BRANCH   1  30
ATOM     30  C   UNL     1       0.266  11.197  18.368  0.00  0.00    +0.000 C 
BRANCH  30  31
ATOM     31  O   UNL     1      -0.330   9.996  18.002  0.00  0.00    +0.000 OA
BRANCH  31  33
ATOM     32  C   UNL     1      -2.195  10.221  16.617  0.00  0.00    +0.000 C 
ATOM     33  C   UNL     1      -1.745  10.213  18.037  0.00  0.00    +0.000 C 
ENDBRANCH  31  33
ENDBRANCH  30  31
ENDBRANCH   1  30
TORSDOF 5
ENDMDL
