MODEL 1
REMARK VINA RESULT:      -8.8      0.000      0.000
REMARK  Name = 
REMARK  7 active torsions:
REMARK  status: ('A' for Active; 'I' for Inactive)
REMARK    1  A    between atoms: C_1  and  C_2
REMARK    2  A    between atoms: C_7  and  N_8
REMARK    3  A    between atoms: C_9  and  C_11
REMARK    4  A    between atoms: C_11  and  N_12
REMARK    5  A    between atoms: N_15  and  C_16
REMARK    6  A    between atoms: C_16  and  C_17
REMARK    7  A    between atoms: C_17  and  C_18
REMARK                            x       y       z     vdW  Elec       q    Type
REMARK                         _______ _______ _______ _____ _____    ______ ____
ROOT
ATOM      1  N   UNL     1       1.062  10.296  19.310  0.00  0.00    +0.000 N 
ATOM      2  C   UNL     1       1.593   9.213  18.613  0.00  0.00    +0.000 A 
ATOM      3  O   UNL     1       1.661   9.234  17.382  0.00  0.00    +0.000 OA
ATOM      4  N   UNL     1       2.015   8.128  19.373  0.00  0.00    +0.000 N 
ATOM      5  C   UNL     1       1.378   7.780  20.553  0.00  0.00    +0.000 A 
ATOM      6  O   UNL     1       1.388   6.648  21.038  0.00  0.00    +0.000 OA
ATOM      7  C   UNL     1       0.667   8.868  21.245  0.00  0.00    +0.000 A 
ATOM      8  C   UNL     1       0.139   8.629  22.522  0.00  0.00    +0.000 A 
ATOM      9  C   UNL     1      -0.441   9.671  23.238  0.00  0.00    +0.000 A 
ATOM     10  C   UNL     1      -0.496  10.941  22.670  0.00  0.00    +0.000 A 
ATOM     11  C   UNL     1       0.006  11.169  21.382  0.00  0.00    +0.000 A 
ATOM     12  C   UNL     1       0.590  10.131  20.643  0.00  0.00    +0.000 A 
ENDROOT
BRANCH   1  13
ATOM     13  C   UNL     1       0.993  11.603  18.606  0.00  0.00    +0.000 C 
BRANCH  13  15
ATOM     14  N   UNL     1      -1.418  11.176  18.153  0.00  0.00    +0.000 N 
ATOM     15  C   UNL     1      -0.441  12.157  18.385  0.00  0.00    +0.000 C 
ATOM     16  O   UNL     1      -0.656  13.369  18.423  0.00  0.00    +0.000 OA
ATOM     17  H   UNL     1      -1.091  10.239  17.957  0.00  0.00    +0.000 HD
BRANCH  14  24
ATOM     18  C   UNL     1      -2.763  10.609  15.464  0.00  0.00    +0.000 C 
ATOM     19  C   UNL     1      -3.430  11.184  16.685  0.00  0.00    +0.000 A 
ATOM     20  C   UNL     1      -4.786  11.554  16.497  0.00  0.00    +0.000 A 
ATOM     21  C   UNL     1      -5.541  12.104  17.526  0.00  0.00    +0.000 A 
ATOM     22  C   UNL     1      -4.963  12.260  18.774  0.00  0.00    +0.000 A 
ATOM     23  C   UNL     1      -3.622  11.912  18.975  0.00  0.00    +0.000 A 
ATOM     24  C   UNL     1      -2.813  11.420  17.937  0.00  0.00    +0.000 A 
ENDBRANCH  14  24
ENDBRANCH  13  15
ENDBRANCH   1  13
BRANCH   4  25
ATOM     25  C   UNL     1       2.917   7.113  18.796  0.00  0.00    +0.000 C 
BRANCH  25  26
ATOM     26  C   UNL     1       2.230   6.224  17.759  0.00  0.00    +0.000 C 
BRANCH  26  27
ATOM     27  C   UNL     1       2.363   4.724  17.826  0.00  0.00    +0.000 A 
ATOM     28  C   UNL     1       3.628   4.181  17.537  0.00  0.00    +0.000 A 
ATOM     29  C   UNL     1       3.922   2.852  17.825  0.00  0.00    +0.000 A 
ATOM     30  C   UNL     1       2.947   2.040  18.394  0.00  0.00    +0.000 A 
ATOM     31  C   UNL     1       1.670   2.548  18.627  0.00  0.00    +0.000 A 
ATOM     32  C   UNL     1       1.373   3.884  18.343  0.00  0.00    +0.000 A 
ENDBRANCH  26  27
ENDBRANCH  25  26
ENDBRANCH   4  25
TORSDOF 6
ENDMDL
MODEL 2
REMARK VINA RESULT:      -8.8      2.856      5.484
REMARK  Name = 
REMARK  7 active torsions:
REMARK  status: ('A' for Active; 'I' for Inactive)
REMARK    1  A    between atoms: C_1  and  C_2
REMARK    2  A    between atoms: C_7  and  N_8
REMARK    3  A    between atoms: C_9  and  C_11
REMARK    4  A    between atoms: C_11  and  N_12
REMARK    5  A    between atoms: N_15  and  C_16
REMARK    6  A    between atoms: C_16  and  C_17
REMARK    7  A    between atoms: C_17  and  C_18
REMARK                            x       y       z     vdW  Elec       q    Type
REMARK                         _______ _______ _______ _____ _____    ______ ____
ROOT
ATOM      1  N   UNL     1       3.013   5.940  19.163  0.00  0.00    +0.000 N 
ATOM      2  C   UNL     1       3.439   5.967  17.837  0.00  0.00    +0.000 A 
ATOM      3  O   UNL     1       3.506   7.035  17.224  0.00  0.00    +0.000 OA
ATOM      4  N   UNL     1       3.758   4.744  17.259  0.00  0.00    +0.000 N 
ATOM      5  C   UNL     1       3.093   3.582  17.613  0.00  0.00    +0.000 A 
ATOM      6  O   UNL     1       2.998   2.590  16.889  0.00  0.00    +0.000 OA
ATOM      7  C   UNL     1       2.490   3.570  18.957  0.00  0.00    +0.000 A 
ATOM      8  C   UNL     1       1.945   2.373  19.445  0.00  0.00    +0.000 A 
ATOM      9  C   UNL     1       1.467   2.311  20.749  0.00  0.00    +0.000 A 
ATOM     10  C   UNL     1       1.530   3.446  21.553  0.00  0.00    +0.000 A 
ATOM     11  C   UNL     1       2.048   4.648  21.053  0.00  0.00    +0.000 A 
ATOM     12  C   UNL     1       2.531   4.730  19.739  0.00  0.00    +0.000 A 
ENDROOT
BRANCH   1  13
ATOM     13  C   UNL     1       3.066   7.212  19.931  0.00  0.00    +0.000 C 
BRANCH  13  15
ATOM     14  N   UNL     1       1.588   8.962  18.957  0.00  0.00    +0.000 N 
ATOM     15  C   UNL     1       1.735   8.009  19.978  0.00  0.00    +0.000 C 
ATOM     16  O   UNL     1       0.902   7.786  20.857  0.00  0.00    +0.000 OA
ATOM     17  H   UNL     1       2.411   9.185  18.414  0.00  0.00    +0.000 HD
BRANCH  14  24
ATOM     18  C   UNL     1       1.087  11.412  20.719  0.00  0.00    +0.000 C 
ATOM     19  C   UNL     1       0.204  10.932  19.599  0.00  0.00    +0.000 A 
ATOM     20  C   UNL     1      -0.996  11.669  19.436  0.00  0.00    +0.000 A 
ATOM     21  C   UNL     1      -1.920  11.348  18.449  0.00  0.00    +0.000 A 
ATOM     22  C   UNL     1      -1.642  10.306  17.581  0.00  0.00    +0.000 A 
ATOM     23  C   UNL     1      -0.468   9.559  17.735  0.00  0.00    +0.000 A 
ATOM     24  C   UNL     1       0.451   9.814  18.766  0.00  0.00    +0.000 A 
ENDBRANCH  14  24
ENDBRANCH  13  15
ENDBRANCH   1  13
BRANCH   4  25
ATOM     25  C   UNL     1       4.559   4.685  16.022  0.00  0.00    +0.000 C 
BRANCH  25  26
ATOM     26  C   UNL     1       6.016   4.296  16.273  0.00  0.00    +0.000 C 
BRANCH  26  27
ATOM     27  C   UNL     1       6.922   5.194  17.077  0.00  0.00    +0.000 A 
ATOM     28  C   UNL     1       7.013   6.538  16.672  0.00  0.00    +0.000 A 
ATOM     29  C   UNL     1       7.603   7.496  17.490  0.00  0.00    +0.000 A 
ATOM     30  C   UNL     1       8.124   7.120  18.723  0.00  0.00    +0.000 A 
ATOM     31  C   UNL     1       8.097   5.781  19.110  0.00  0.00    +0.000 A 
ATOM     32  C   UNL     1       7.502   4.817  18.292  0.00  0.00    +0.000 A 
ENDBRANCH  26  27
ENDBRANCH  25  26
ENDBRANCH   4  25
TORSDOF 6
ENDMDL
MODEL 3
REMARK VINA RESULT:      -8.6      0.463      1.549
REMARK  Name = 
REMARK  7 active torsions:
REMARK  status: ('A' for Active; 'I' for Inactive)
REMARK    1  A    between atoms: C_1  and  C_2
REMARK    2  A    between atoms: C_7  and  N_8
REMARK    3  A    between atoms: C_9  and  C_11
REMARK    4  A    between atoms: C_11  and  N_12
REMARK    5  A    between atoms: N_15  and  C_16
REMARK    6  A    between atoms: C_16  and  C_17
REMARK    7  A    between atoms: C_17  and  C_18
REMARK                            x       y       z     vdW  Elec       q    Type
REMARK                         _______ _______ _______ _____ _____    ______ ____
ROOT
ATOM      1  N   UNL     1       1.198  10.298  19.329  0.00  0.00    +0.000 N 
ATOM      2  C   UNL     1       1.726   9.199  18.656  0.00  0.00    +0.000 A 
ATOM      3  O   UNL     1       1.846   9.216  17.429  0.00  0.00    +0.000 OA
ATOM      4  N   UNL     1       2.085   8.104  19.434  0.00  0.00    +0.000 N 
ATOM      5  C   UNL     1       1.390   7.777  20.586  0.00  0.00    +0.000 A 
ATOM      6  O   UNL     1       1.349   6.646  21.072  0.00  0.00    +0.000 OA
ATOM      7  C   UNL     1       0.683   8.886  21.247  0.00  0.00    +0.000 A 
ATOM      8  C   UNL     1       0.096   8.665  22.502  0.00  0.00    +0.000 A 
ATOM      9  C   UNL     1      -0.483   9.724  23.193  0.00  0.00    +0.000 A 
ATOM     10  C   UNL     1      -0.478  10.994  22.622  0.00  0.00    +0.000 A 
ATOM     11  C   UNL     1       0.083  11.206  21.355  0.00  0.00    +0.000 A 
ATOM     12  C   UNL     1       0.667  10.149  20.642  0.00  0.00    +0.000 A 
ENDROOT
BRANCH   1  13
ATOM     13  C   UNL     1       1.196  11.605  18.622  0.00  0.00    +0.000 C 
BRANCH  13  15
ATOM     14  N   UNL     1      -1.188  11.152  18.064  0.00  0.00    +0.000 N 
ATOM     15  C   UNL     1      -0.209  12.144  18.239  0.00  0.00    +0.000 C 
ATOM     16  O   UNL     1      -0.403  13.353  18.112  0.00  0.00    +0.000 OA
ATOM     17  H   UNL     1      -0.867  10.195  18.007  0.00  0.00    +0.000 HD
BRANCH  14  24
ATOM     18  C   UNL     1      -3.162  12.370  20.059  0.00  0.00    +0.000 C 
ATOM     19  C   UNL     1      -3.482  11.922  18.658  0.00  0.00    +0.000 A 
ATOM     20  C   UNL     1      -4.851  12.020  18.306  0.00  0.00    +0.000 A 
ATOM     21  C   UNL     1      -5.309  11.641  17.049  0.00  0.00    +0.000 A 
ATOM     22  C   UNL     1      -4.398  11.191  16.109  0.00  0.00    +0.000 A 
ATOM     23  C   UNL     1      -3.044  11.076  16.444  0.00  0.00    +0.000 A 
ATOM     24  C   UNL     1      -2.562  11.384  17.726  0.00  0.00    +0.000 A 
ENDBRANCH  14  24
ENDBRANCH  13  15
ENDBRANCH   1  13
BRANCH   4  25
ATOM     25  C   UNL     1       2.981   7.063  18.895  0.00  0.00    +0.000 C 
BRANCH  25  26
ATOM     26  C   UNL     1       2.261   6.069  17.984  0.00  0.00    +0.000 C 
BRANCH  26  27
ATOM     27  C   UNL     1       2.349   4.586  18.245  0.00  0.00    +0.000 A 
ATOM     28  C   UNL     1       1.320   4.011  19.012  0.00  0.00    +0.000 A 
ATOM     29  C   UNL     1       1.166   2.630  19.087  0.00  0.00    +0.000 A 
ATOM     30  C   UNL     1       2.049   1.802  18.403  0.00  0.00    +0.000 A 
ATOM     31  C   UNL     1       3.111   2.357  17.689  0.00  0.00    +0.000 A 
ATOM     32  C   UNL     1       3.266   3.744  17.610  0.00  0.00    +0.000 A 
ENDBRANCH  26  27
ENDBRANCH  25  26
ENDBRANCH   4  25
TORSDOF 6
ENDMDL
MODEL 4
REMARK VINA RESULT:      -8.5      3.012      5.445
REMARK  Name = 
REMARK  7 active torsions:
REMARK  status: ('A' for Active; 'I' for Inactive)
REMARK    1  A    between atoms: C_1  and  C_2
REMARK    2  A    between atoms: C_7  and  N_8
REMARK    3  A    between atoms: C_9  and  C_11
REMARK    4  A    between atoms: C_11  and  N_12
REMARK    5  A    between atoms: N_15  and  C_16
REMARK    6  A    between atoms: C_16  and  C_17
REMARK    7  A    between atoms: C_17  and  C_18
REMARK                            x       y       z     vdW  Elec       q    Type
REMARK                         _______ _______ _______ _____ _____    ______ ____
ROOT
ATOM      1  N   UNL     1       2.711   6.386  19.389  0.00  0.00    +0.000 N 
ATOM      2  C   UNL     1       3.311   6.734  18.181  0.00  0.00    +0.000 A 
ATOM      3  O   UNL     1       3.362   7.913  17.825  0.00  0.00    +0.000 OA
ATOM      4  N   UNL     1       3.820   5.692  17.415  0.00  0.00    +0.000 N 
ATOM      5  C   UNL     1       3.225   4.441  17.408  0.00  0.00    +0.000 A 
ATOM      6  O   UNL     1       3.324   3.631  16.485  0.00  0.00    +0.000 OA
ATOM      7  C   UNL     1       2.445   4.094  18.609  0.00  0.00    +0.000 A 
ATOM      8  C   UNL     1       1.953   2.787  18.743  0.00  0.00    +0.000 A 
ATOM      9  C   UNL     1       1.308   2.407  19.915  0.00  0.00    +0.000 A 
ATOM     10  C   UNL     1       1.153   3.336  20.940  0.00  0.00    +0.000 A 
ATOM     11  C   UNL     1       1.620   4.649  20.791  0.00  0.00    +0.000 A 
ATOM     12  C   UNL     1       2.270   5.051  19.615  0.00  0.00    +0.000 A 
ENDROOT
BRANCH   1  13
ATOM     13  C   UNL     1       2.538   7.456  20.407  0.00  0.00    +0.000 C 
BRANCH  13  15
ATOM     14  N   UNL     1       1.190   9.259  19.342  0.00  0.00    +0.000 N 
ATOM     15  C   UNL     1       1.204   8.244  20.313  0.00  0.00    +0.000 C 
ATOM     16  O   UNL     1       0.259   7.964  21.051  0.00  0.00    +0.000 OA
ATOM     17  H   UNL     1       2.079   9.517  18.936  0.00  0.00    +0.000 HD
BRANCH  14  24
ATOM     18  C   UNL     1       0.553  11.725  21.036  0.00  0.00    +0.000 C 
ATOM     19  C   UNL     1      -0.230  11.243  19.845  0.00  0.00    +0.000 A 
ATOM     20  C   UNL     1      -1.406  11.986  19.571  0.00  0.00    +0.000 A 
ATOM     21  C   UNL     1      -2.241  11.664  18.507  0.00  0.00    +0.000 A 
ATOM     22  C   UNL     1      -1.894  10.613  17.675  0.00  0.00    +0.000 A 
ATOM     23  C   UNL     1      -0.744   9.860  17.938  0.00  0.00    +0.000 A 
ATOM     24  C   UNL     1       0.081  10.116  19.045  0.00  0.00    +0.000 A 
ENDBRANCH  14  24
ENDBRANCH  13  15
ENDBRANCH   1  13
BRANCH   4  25
ATOM     25  C   UNL     1       4.787   5.959  16.332  0.00  0.00    +0.000 C 
BRANCH  25  26
ATOM     26  C   UNL     1       5.822   4.846  16.170  0.00  0.00    +0.000 C 
BRANCH  26  27
ATOM     27  C   UNL     1       6.433   4.558  14.822  0.00  0.00    +0.000 A 
ATOM     28  C   UNL     1       5.766   3.627  14.004  0.00  0.00    +0.000 A 
ATOM     29  C   UNL     1       6.092   3.490  12.658  0.00  0.00    +0.000 A 
ATOM     30  C   UNL     1       7.103   4.274  12.113  0.00  0.00    +0.000 A 
ATOM     31  C   UNL     1       7.815   5.155  12.926  0.00  0.00    +0.000 A 
ATOM     32  C   UNL     1       7.486   5.298  14.278  0.00  0.00    +0.000 A 
ENDBRANCH  26  27
ENDBRANCH  25  26
ENDBRANCH   4  25
TORSDOF 6
ENDMDL
MODEL 5
REMARK VINA RESULT:      -8.3      2.989      5.518
REMARK  Name = 
REMARK  7 active torsions:
REMARK  status: ('A' for Active; 'I' for Inactive)
REMARK    1  A    between atoms: C_1  and  C_2
REMARK    2  A    between atoms: C_7  and  N_8
REMARK    3  A    between atoms: C_9  and  C_11
REMARK    4  A    between atoms: C_11  and  N_12
REMARK    5  A    between atoms: N_15  and  C_16
REMARK    6  A    between atoms: C_16  and  C_17
REMARK    7  A    between atoms: C_17  and  C_18
REMARK                            x       y       z     vdW  Elec       q    Type
REMARK                         _______ _______ _______ _____ _____    ______ ____
ROOT
ATOM      1  N   UNL     1       2.871   6.130  18.205  0.00  0.00    +0.000 N 
ATOM      2  C   UNL     1       4.172   6.221  17.714  0.00  0.00    +0.000 A 
ATOM      3  O   UNL     1       4.407   6.849  16.680  0.00  0.00    +0.000 OA
ATOM      4  N   UNL     1       5.158   5.562  18.438  0.00  0.00    +0.000 N 
ATOM      5  C   UNL     1       4.894   4.383  19.115  0.00  0.00    +0.000 A 
ATOM      6  O   UNL     1       5.747   3.540  19.397  0.00  0.00    +0.000 OA
ATOM      7  C   UNL     1       3.493   4.172  19.516  0.00  0.00    +0.000 A 
ATOM      8  C   UNL     1       3.181   3.084  20.344  0.00  0.00    +0.000 A 
ATOM      9  C   UNL     1       1.884   2.927  20.822  0.00  0.00    +0.000 A 
ATOM     10  C   UNL     1       0.909   3.854  20.464  0.00  0.00    +0.000 A 
ATOM     11  C   UNL     1       1.218   4.923  19.613  0.00  0.00    +0.000 A 
ATOM     12  C   UNL     1       2.518   5.095  19.118  0.00  0.00    +0.000 A 
ENDROOT
BRANCH   1  13
ATOM     13  C   UNL     1       1.881   7.130  17.727  0.00  0.00    +0.000 C 
BRANCH  13  15
ATOM     14  N   UNL     1       1.551   9.598  17.767  0.00  0.00    +0.000 N 
ATOM     15  C   UNL     1       1.846   8.457  18.532  0.00  0.00    +0.000 C 
ATOM     16  O   UNL     1       2.062   8.460  19.744  0.00  0.00    +0.000 OA
ATOM     17  H   UNL     1       1.581   9.497  16.762  0.00  0.00    +0.000 HD
BRANCH  14  24
ATOM     18  C   UNL     1      -0.942  10.573  19.248  0.00  0.00    +0.000 C 
ATOM     19  C   UNL     1       0.278  11.396  18.931  0.00  0.00    +0.000 A 
ATOM     20  C   UNL     1       0.182  12.760  19.302  0.00  0.00    +0.000 A 
ATOM     21  C   UNL     1       1.223  13.653  19.072  0.00  0.00    +0.000 A 
ATOM     22  C   UNL     1       2.393  13.187  18.499  0.00  0.00    +0.000 A 
ATOM     23  C   UNL     1       2.501  11.846  18.115  0.00  0.00    +0.000 A 
ATOM     24  C   UNL     1       1.442  10.936  18.269  0.00  0.00    +0.000 A 
ENDBRANCH  14  24
ENDBRANCH  13  15
ENDBRANCH   1  13
BRANCH   4  25
ATOM     25  C   UNL     1       6.583   5.893  18.238  0.00  0.00    +0.000 C 
BRANCH  25  26
ATOM     26  C   UNL     1       7.301   4.906  17.318  0.00  0.00    +0.000 C 
BRANCH  26  27
ATOM     27  C   UNL     1       6.830   4.695  15.902  0.00  0.00    +0.000 A 
ATOM     28  C   UNL     1       7.559   5.336  14.884  0.00  0.00    +0.000 A 
ATOM     29  C   UNL     1       7.374   5.000  13.546  0.00  0.00    +0.000 A 
ATOM     30  C   UNL     1       6.444   4.025  13.206  0.00  0.00    +0.000 A 
ATOM     31  C   UNL     1       5.669   3.426  14.199  0.00  0.00    +0.000 A 
ATOM     32  C   UNL     1       5.856   3.759  15.543  0.00  0.00    +0.000 A 
ENDBRANCH  26  27
ENDBRANCH  25  26
ENDBRANCH   4  25
TORSDOF 6
ENDMDL
MODEL 6
REMARK VINA RESULT:      -8.2      3.188      5.656
REMARK  Name = 
REMARK  7 active torsions:
REMARK  status: ('A' for Active; 'I' for Inactive)
REMARK    1  A    between atoms: C_1  and  C_2
REMARK    2  A    between atoms: C_7  and  N_8
REMARK    3  A    between atoms: C_9  and  C_11
REMARK    4  A    between atoms: C_11  and  N_12
REMARK    5  A    between atoms: N_15  and  C_16
REMARK    6  A    between atoms: C_16  and  C_17
REMARK    7  A    between atoms: C_17  and  C_18
REMARK                            x       y       z     vdW  Elec       q    Type
REMARK                         _______ _______ _______ _____ _____    ______ ____
ROOT
ATOM      1  N   UNL     1       3.121   6.093  18.916  0.00  0.00    +0.000 N 
ATOM      2  C   UNL     1       4.183   6.119  18.015  0.00  0.00    +0.000 A 
ATOM      3  O   UNL     1       4.565   7.186  17.530  0.00  0.00    +0.000 OA
ATOM      4  N   UNL     1       4.759   4.895  17.695  0.00  0.00    +0.000 N 
ATOM      5  C   UNL     1       4.008   3.733  17.645  0.00  0.00    +0.000 A 
ATOM      6  O   UNL     1       4.309   2.740  16.980  0.00  0.00    +0.000 OA
ATOM      7  C   UNL     1       2.785   3.722  18.465  0.00  0.00    +0.000 A 
ATOM      8  C   UNL     1       2.063   2.526  18.593  0.00  0.00    +0.000 A 
ATOM      9  C   UNL     1       0.968   2.465  19.447  0.00  0.00    +0.000 A 
ATOM     10  C   UNL     1       0.597   3.601  20.162  0.00  0.00    +0.000 A 
ATOM     11  C   UNL     1       1.302   4.802  20.011  0.00  0.00    +0.000 A 
ATOM     12  C   UNL     1       2.407   4.884  19.151  0.00  0.00    +0.000 A 
ENDROOT
BRANCH   1  13
ATOM     13  C   UNL     1       2.761   7.365  19.595  0.00  0.00    +0.000 C 
BRANCH  13  15
ATOM     14  N   UNL     1       1.131   9.247  19.562  0.00  0.00    +0.000 N 
ATOM     15  C   UNL     1       1.819   8.299  18.787  0.00  0.00    +0.000 C 
ATOM     16  O   UNL     1       1.718   8.181  17.566  0.00  0.00    +0.000 OA
ATOM     17  H   UNL     1       1.149   9.122  20.565  0.00  0.00    +0.000 HD
BRANCH  14  24
ATOM     18  C   UNL     1       1.468  12.226  20.173  0.00  0.00    +0.000 C 
ATOM     19  C   UNL     1       0.358  11.607  19.366  0.00  0.00    +0.000 A 
ATOM     20  C   UNL     1      -0.640  12.519  18.939  0.00  0.00    +0.000 A 
ATOM     21  C   UNL     1      -1.734  12.104  18.189  0.00  0.00    +0.000 A 
ATOM     22  C   UNL     1      -1.830  10.773  17.820  0.00  0.00    +0.000 A 
ATOM     23  C   UNL     1      -0.861   9.857  18.244  0.00  0.00    +0.000 A 
ATOM     24  C   UNL     1       0.218  10.232  19.061  0.00  0.00    +0.000 A 
ENDBRANCH  14  24
ENDBRANCH  13  15
ENDBRANCH   1  13
BRANCH   4  25
ATOM     25  C   UNL     1       6.094   4.835  17.068  0.00  0.00    +0.000 C 
BRANCH  25  26
ATOM     26  C   UNL     1       6.164   5.588  15.740  0.00  0.00    +0.000 C 
BRANCH  26  27
ATOM     27  C   UNL     1       6.552   4.872  14.471  0.00  0.00    +0.000 A 
ATOM     28  C   UNL     1       5.680   3.867  14.014  0.00  0.00    +0.000 A 
ATOM     29  C   UNL     1       5.805   3.336  12.733  0.00  0.00    +0.000 A 
ATOM     30  C   UNL     1       6.815   3.794  11.895  0.00  0.00    +0.000 A 
ATOM     31  C   UNL     1       7.725   4.745  12.358  0.00  0.00    +0.000 A 
ATOM     32  C   UNL     1       7.599   5.282  13.642  0.00  0.00    +0.000 A 
ENDBRANCH  26  27
ENDBRANCH  25  26
ENDBRANCH   4  25
TORSDOF 6
ENDMDL
MODEL 7
REMARK VINA RESULT:      -8.2      3.194      5.495
REMARK  Name = 
REMARK  7 active torsions:
REMARK  status: ('A' for Active; 'I' for Inactive)
REMARK    1  A    between atoms: C_1  and  C_2
REMARK    2  A    between atoms: C_7  and  N_8
REMARK    3  A    between atoms: C_9  and  C_11
REMARK    4  A    between atoms: C_11  and  N_12
REMARK    5  A    between atoms: N_15  and  C_16
REMARK    6  A    between atoms: C_16  and  C_17
REMARK    7  A    between atoms: C_17  and  C_18
REMARK                            x       y       z     vdW  Elec       q    Type
REMARK                         _______ _______ _______ _____ _____    ______ ____
ROOT
ATOM      1  N   UNL     1       2.898   6.149  18.491  0.00  0.00    +0.000 N 
ATOM      2  C   UNL     1       4.204   6.216  18.010  0.00  0.00    +0.000 A 
ATOM      3  O   UNL     1       4.476   6.929  17.041  0.00  0.00    +0.000 OA
ATOM      4  N   UNL     1       5.150   5.435  18.662  0.00  0.00    +0.000 N 
ATOM      5  C   UNL     1       4.819   4.212  19.220  0.00  0.00    +0.000 A 
ATOM      6  O   UNL     1       5.623   3.299  19.416  0.00  0.00    +0.000 OA
ATOM      7  C   UNL     1       3.407   4.040  19.601  0.00  0.00    +0.000 A 
ATOM      8  C   UNL     1       3.032   2.894  20.318  0.00  0.00    +0.000 A 
ATOM      9  C   UNL     1       1.727   2.763  20.782  0.00  0.00    +0.000 A 
ATOM     10  C   UNL     1       0.806   3.773  20.519  0.00  0.00    +0.000 A 
ATOM     11  C   UNL     1       1.176   4.903  19.777  0.00  0.00    +0.000 A 
ATOM     12  C   UNL     1       2.485   5.051  19.298  0.00  0.00    +0.000 A 
ENDROOT
BRANCH   1  13
ATOM     13  C   UNL     1       1.967   7.245  18.116  0.00  0.00    +0.000 C 
BRANCH  13  15
ATOM     14  N   UNL     1       1.099   9.486  18.766  0.00  0.00    +0.000 N 
ATOM     15  C   UNL     1       1.740   8.320  19.214  0.00  0.00    +0.000 C 
ATOM     16  O   UNL     1       2.107   8.119  20.372  0.00  0.00    +0.000 OA
ATOM     17  H   UNL     1       1.019   9.612  17.766  0.00  0.00    +0.000 HD
BRANCH  14  24
ATOM     18  C   UNL     1       2.334  12.245  18.297  0.00  0.00    +0.000 C 
ATOM     19  C   UNL     1       1.351  11.888  19.379  0.00  0.00    +0.000 A 
ATOM     20  C   UNL     1       1.064  12.939  20.285  0.00  0.00    +0.000 A 
ATOM     21  C   UNL     1       0.179  12.767  21.344  0.00  0.00    +0.000 A 
ATOM     22  C   UNL     1      -0.463  11.550  21.492  0.00  0.00    +0.000 A 
ATOM     23  C   UNL     1      -0.182  10.497  20.614  0.00  0.00    +0.000 A 
ATOM     24  C   UNL     1       0.759  10.617  19.578  0.00  0.00    +0.000 A 
ENDBRANCH  14  24
ENDBRANCH  13  15
ENDBRANCH   1  13
BRANCH   4  25
ATOM     25  C   UNL     1       6.591   5.705  18.493  0.00  0.00    +0.000 C 
BRANCH  25  26
ATOM     26  C   UNL     1       7.270   4.736  17.525  0.00  0.00    +0.000 C 
BRANCH  26  27
ATOM     27  C   UNL     1       6.797   4.621  16.098  0.00  0.00    +0.000 A 
ATOM     28  C   UNL     1       7.563   5.275  15.116  0.00  0.00    +0.000 A 
ATOM     29  C   UNL     1       7.369   5.016  13.763  0.00  0.00    +0.000 A 
ATOM     30  C   UNL     1       6.393   4.108  13.370  0.00  0.00    +0.000 A 
ATOM     31  C   UNL     1       5.583   3.499  14.329  0.00  0.00    +0.000 A 
ATOM     32  C   UNL     1       5.779   3.754  15.689  0.00  0.00    +0.000 A 
ENDBRANCH  26  27
ENDBRANCH  25  26
ENDBRANCH   4  25
TORSDOF 6
ENDMDL
MODEL 8
REMARK VINA RESULT:      -8.2      2.777      5.068
REMARK  Name = 
REMARK  7 active torsions:
REMARK  status: ('A' for Active; 'I' for Inactive)
REMARK    1  A    between atoms: C_1  and  C_2
REMARK    2  A    between atoms: C_7  and  N_8
REMARK    3  A    between atoms: C_9  and  C_11
REMARK    4  A    between atoms: C_11  and  N_12
REMARK    5  A    between atoms: N_15  and  C_16
REMARK    6  A    between atoms: C_16  and  C_17
REMARK    7  A    between atoms: C_17  and  C_18
REMARK                            x       y       z     vdW  Elec       q    Type
REMARK                         _______ _______ _______ _____ _____    ______ ____
ROOT
ATOM      1  N   UNL     1       2.345   6.585  19.783  0.00  0.00    +0.000 N 
ATOM      2  C   UNL     1       2.777   7.061  18.547  0.00  0.00    +0.000 A 
ATOM      3  O   UNL     1       2.642   8.250  18.253  0.00  0.00    +0.000 OA
ATOM      4  N   UNL     1       3.340   6.129  17.682  0.00  0.00    +0.000 N 
ATOM      5  C   UNL     1       2.913   4.812  17.660  0.00  0.00    +0.000 A 
ATOM      6  O   UNL     1       3.026   4.063  16.689  0.00  0.00    +0.000 OA
ATOM      7  C   UNL     1       2.302   4.313  18.904  0.00  0.00    +0.000 A 
ATOM      8  C   UNL     1       1.997   2.948  19.010  0.00  0.00    +0.000 A 
ATOM      9  C   UNL     1       1.521   2.435  20.212  0.00  0.00    +0.000 A 
ATOM     10  C   UNL     1       1.347   3.291  21.296  0.00  0.00    +0.000 A 
ATOM     11  C   UNL     1       1.625   4.660  21.178  0.00  0.00    +0.000 A 
ATOM     12  C   UNL     1       2.102   5.195  19.973  0.00  0.00    +0.000 A 
ENDROOT
BRANCH   1  13
ATOM     13  C   UNL     1       2.134   7.578  20.869  0.00  0.00    +0.000 C 
BRANCH  13  15
ATOM     14  N   UNL     1       0.789   9.597  20.311  0.00  0.00    +0.000 N 
ATOM     15  C   UNL     1       0.759   8.298  20.845  0.00  0.00    +0.000 C 
ATOM     16  O   UNL     1      -0.250   7.735  21.268  0.00  0.00    +0.000 OA
ATOM     17  H   UNL     1       1.698  10.017  20.176  0.00  0.00    +0.000 HD
BRANCH  14  24
ATOM     18  C   UNL     1      -0.773   9.781  17.687  0.00  0.00    +0.000 C 
ATOM     19  C   UNL     1      -1.048  10.571  18.939  0.00  0.00    +0.000 A 
ATOM     20  C   UNL     1      -2.084  11.531  18.815  0.00  0.00    +0.000 A 
ATOM     21  C   UNL     1      -2.455  12.344  19.880  0.00  0.00    +0.000 A 
ATOM     22  C   UNL     1      -1.820  12.185  21.100  0.00  0.00    +0.000 A 
ATOM     23  C   UNL     1      -0.786  11.252  21.237  0.00  0.00    +0.000 A 
ATOM     24  C   UNL     1      -0.342  10.465  20.161  0.00  0.00    +0.000 A 
ENDBRANCH  14  24
ENDBRANCH  13  15
ENDBRANCH   1  13
BRANCH   4  25
ATOM     25  C   UNL     1       4.157   6.568  16.534  0.00  0.00    +0.000 C 
BRANCH  25  26
ATOM     26  C   UNL     1       5.470   5.796  16.406  0.00  0.00    +0.000 C 
BRANCH  26  27
ATOM     27  C   UNL     1       6.652   6.143  17.276  0.00  0.00    +0.000 A 
ATOM     28  C   UNL     1       7.175   7.444  17.153  0.00  0.00    +0.000 A 
ATOM     29  C   UNL     1       8.080   7.944  18.084  0.00  0.00    +0.000 A 
ATOM     30  C   UNL     1       8.487   7.144  19.145  0.00  0.00    +0.000 A 
ATOM     31  C   UNL     1       8.025   5.832  19.244  0.00  0.00    +0.000 A 
ATOM     32  C   UNL     1       7.113   5.328  18.313  0.00  0.00    +0.000 A 
ENDBRANCH  26  27
ENDBRANCH  25  26
ENDBRANCH   4  25
TORSDOF 6
ENDMDL
MODEL 9
REMARK VINA RESULT:      -8.1      1.623      2.654
REMARK  Name = 
REMARK  7 active torsions:
REMARK  status: ('A' for Active; 'I' for Inactive)
REMARK    1  A    between atoms: C_1  and  C_2
REMARK    2  A    between atoms: C_7  and  N_8
REMARK    3  A    between atoms: C_9  and  C_11
REMARK    4  A    between atoms: C_11  and  N_12
REMARK    5  A    between atoms: N_15  and  C_16
REMARK    6  A    between atoms: C_16  and  C_17
REMARK    7  A    between atoms: C_17  and  C_18
REMARK                            x       y       z     vdW  Elec       q    Type
REMARK                         _______ _______ _______ _____ _____    ______ ____
ROOT
ATOM      1  N   UNL     1      -0.294  10.571  19.228  0.00  0.00    +0.000 N 
ATOM      2  C   UNL     1       0.461   9.688  18.459  0.00  0.00    +0.000 A 
ATOM      3  O   UNL     1       0.222   9.543  17.258  0.00  0.00    +0.000 OA
ATOM      4  N   UNL     1       1.464   8.988  19.118  0.00  0.00    +0.000 N 
ATOM      5  C   UNL     1       1.330   8.606  20.443  0.00  0.00    +0.000 A 
ATOM      6  O   UNL     1       1.928   7.659  20.955  0.00  0.00    +0.000 OA
ATOM      7  C   UNL     1       0.414   9.423  21.257  0.00  0.00    +0.000 A 
ATOM      8  C   UNL     1       0.353   9.198  22.640  0.00  0.00    +0.000 A 
ATOM      9  C   UNL     1      -0.423  10.027  23.443  0.00  0.00    +0.000 A 
ATOM     10  C   UNL     1      -1.137  11.069  22.858  0.00  0.00    +0.000 A 
ATOM     11  C   UNL     1      -1.097  11.272  21.472  0.00  0.00    +0.000 A 
ATOM     12  C   UNL     1      -0.323  10.444  20.646  0.00  0.00    +0.000 A 
ENDROOT
BRANCH   1  13
ATOM     13  C   UNL     1      -1.068  11.620  18.514  0.00  0.00    +0.000 C 
BRANCH  13  15
ATOM     14  N   UNL     1      -3.392  12.376  18.991  0.00  0.00    +0.000 N 
ATOM     15  C   UNL     1      -2.597  11.365  18.426  0.00  0.00    +0.000 C 
ATOM     16  O   UNL     1      -3.032  10.344  17.892  0.00  0.00    +0.000 OA
ATOM     17  H   UNL     1      -2.921  13.064  19.563  0.00  0.00    +0.000 HD
BRANCH  14  24
ATOM     18  C   UNL     1      -4.943  12.695  21.608  0.00  0.00    +0.000 C 
ATOM     19  C   UNL     1      -5.543  12.512  20.240  0.00  0.00    +0.000 A 
ATOM     20  C   UNL     1      -6.956  12.404  20.225  0.00  0.00    +0.000 A 
ATOM     21  C   UNL     1      -7.661  12.226  19.040  0.00  0.00    +0.000 A 
ATOM     22  C   UNL     1      -6.966  12.190  17.843  0.00  0.00    +0.000 A 
ATOM     23  C   UNL     1      -5.570  12.282  17.840  0.00  0.00    +0.000 A 
ATOM     24  C   UNL     1      -4.824  12.392  19.026  0.00  0.00    +0.000 A 
ENDBRANCH  14  24
ENDBRANCH  13  15
ENDBRANCH   1  13
BRANCH   4  25
ATOM     25  C   UNL     1       2.545   8.330  18.358  0.00  0.00    +0.000 C 
BRANCH  25  26
ATOM     26  C   UNL     1       2.319   6.829  18.177  0.00  0.00    +0.000 C 
BRANCH  26  27
ATOM     27  C   UNL     1       3.421   5.946  17.648  0.00  0.00    +0.000 A 
ATOM     28  C   UNL     1       3.198   4.558  17.681  0.00  0.00    +0.000 A 
ATOM     29  C   UNL     1       4.025   3.681  16.984  0.00  0.00    +0.000 A 
ATOM     30  C   UNL     1       5.097   4.181  16.254  0.00  0.00    +0.000 A 
ATOM     31  C   UNL     1       5.367   5.549  16.264  0.00  0.00    +0.000 A 
ATOM     32  C   UNL     1       4.536   6.432  16.959  0.00  0.00    +0.000 A 
ENDBRANCH  26  27
ENDBRANCH  25  26
ENDBRANCH   4  25
TORSDOF 6
ENDMDL
