MODEL 1
REMARK VINA RESULT:      -7.5      0.000      0.000
REMARK  Name = 
REMARK  7 active torsions:
REMARK  status: ('A' for Active; 'I' for Inactive)
REMARK    1  A    between atoms: C_1  and  C_2
REMARK    2  A    between atoms: C_5  and  N_6
REMARK    3  A    between atoms: C_10  and  C_12
REMARK    4  A    between atoms: C_12  and  S_13
REMARK    5  A    between atoms: S_13  and  C_14
REMARK    6  A    between atoms: N_18  and  C_19
REMARK    7  A    between atoms: C_20  and  C_21
REMARK                            x       y       z     vdW  Elec       q    Type
REMARK                         _______ _______ _______ _____ _____    ______ ____
ROOT
ATOM      1  N   UNL     1       1.765   8.110  19.798  0.00  0.00    +0.000 N 
ATOM      2  C   UNL     1       2.013   6.767  19.939  0.00  0.00    +0.000 C 
ATOM      3  O   UNL     1       1.626   6.030  20.842  0.00  0.00    +0.000 OA
ATOM      4  N   UNL     1       2.807   6.211  18.956  0.00  0.00    +0.000 N 
ATOM      5  C   UNL     1       3.362   6.827  17.850  0.00  0.00    +0.000 C 
ATOM      6  O   UNL     1       3.169   8.011  17.576  0.00  0.00    +0.000 OA
ATOM      7  H   UNL     1       2.266   8.548  19.033  0.00  0.00    +0.000 HD
ATOM      8  H   UNL     1       3.026   5.246  19.157  0.00  0.00    +0.000 HD
ENDROOT
BRANCH   1  13
ATOM      9  C   UNL     1      -1.367  11.511  23.200  0.00  0.00    +0.000 C 
ATOM     10  C   UNL     1      -0.561  10.612  22.313  0.00  0.00    +0.000 A 
ATOM     11  C   UNL     1       0.295   9.658  22.856  0.00  0.00    +0.000 A 
ATOM     12  C   UNL     1       1.060   8.839  22.023  0.00  0.00    +0.000 A 
ATOM     13  C   UNL     1       0.989   8.947  20.628  0.00  0.00    +0.000 A 
ATOM     14  C   UNL     1       0.107   9.892  20.062  0.00  0.00    +0.000 A 
ATOM     15  C   UNL     1      -0.064  10.141  18.587  0.00  0.00    +0.000 C 
ATOM     16  C   UNL     1      -0.651  10.719  20.922  0.00  0.00    +0.000 A 
ENDBRANCH   1  13
BRANCH   5  17
ATOM     17  C   UNL     1       4.238   5.931  16.997  0.00  0.00    +0.000 C 
BRANCH  17  18
ATOM     18  S   UNL     1       4.564   4.371  17.874  0.00  0.00    +0.000 S 
BRANCH  18  19
ATOM     19  C   UNL     1       6.053   4.759  18.653  0.00  0.00    +0.000 A 
ATOM     20  N   UNL     1       6.216   5.107  19.908  0.00  0.00    +0.000 NA
ATOM     21  N   UNL     1       7.571   5.288  20.069  0.00  0.00    +0.000 NA
ATOM     22  N   UNL     1       8.221   5.076  18.932  0.00  0.00    +0.000 NA
ATOM     23  N   UNL     1       7.269   4.754  18.037  0.00  0.00    +0.000 N 
ATOM     24  C   UNL     1       7.604   4.516  16.661  0.00  0.00    +0.000 C 
ENDBRANCH  18  19
ENDBRANCH  17  18
ENDBRANCH   5  17
TORSDOF 4
ENDMDL
MODEL 2
REMARK VINA RESULT:      -7.4      2.806      3.545
REMARK  Name = 
REMARK  7 active torsions:
REMARK  status: ('A' for Active; 'I' for Inactive)
REMARK    1  A    between atoms: C_1  and  C_2
REMARK    2  A    between atoms: C_5  and  N_6
REMARK    3  A    between atoms: C_10  and  C_12
REMARK    4  A    between atoms: C_12  and  S_13
REMARK    5  A    between atoms: S_13  and  C_14
REMARK    6  A    between atoms: N_18  and  C_19
REMARK    7  A    between atoms: C_20  and  C_21
REMARK                            x       y       z     vdW  Elec       q    Type
REMARK                         _______ _______ _______ _____ _____    ______ ____
ROOT
ATOM      1  N   UNL     1       3.117   6.767  18.880  0.00  0.00    +0.000 N 
ATOM      2  C   UNL     1       2.873   5.555  18.282  0.00  0.00    +0.000 C 
ATOM      3  O   UNL     1       1.800   4.964  18.212  0.00  0.00    +0.000 OA
ATOM      4  N   UNL     1       3.978   4.945  17.723  0.00  0.00    +0.000 N 
ATOM      5  C   UNL     1       5.282   5.404  17.677  0.00  0.00    +0.000 C 
ATOM      6  O   UNL     1       5.622   6.499  18.123  0.00  0.00    +0.000 OA
ATOM      7  H   UNL     1       4.097   7.026  18.913  0.00  0.00    +0.000 HD
ATOM      8  H   UNL     1       3.757   4.023  17.375  0.00  0.00    +0.000 HD
ENDROOT
BRANCH   1  13
ATOM      9  C   UNL     1      -0.609  10.247  21.517  0.00  0.00    +0.000 C 
ATOM     10  C   UNL     1       0.352   9.330  20.823  0.00  0.00    +0.000 A 
ATOM     11  C   UNL     1       0.781   8.155  21.434  0.00  0.00    +0.000 A 
ATOM     12  C   UNL     1       1.693   7.317  20.790  0.00  0.00    +0.000 A 
ATOM     13  C   UNL     1       2.198   7.625  19.521  0.00  0.00    +0.000 A 
ATOM     14  C   UNL     1       1.753   8.800  18.878  0.00  0.00    +0.000 A 
ATOM     15  C   UNL     1       2.220   9.277  17.528  0.00  0.00    +0.000 C 
ATOM     16  C   UNL     1       0.838   9.642  19.550  0.00  0.00    +0.000 A 
ENDBRANCH   1  13
BRANCH   5  17
ATOM     17  C   UNL     1       6.269   4.448  17.035  0.00  0.00    +0.000 C 
BRANCH  17  18
ATOM     18  S   UNL     1       5.586   3.814  15.473  0.00  0.00    +0.000 S 
BRANCH  18  19
ATOM     19  C   UNL     1       6.677   4.528  14.345  0.00  0.00    +0.000 A 
ATOM     20  N   UNL     1       7.572   5.455  14.596  0.00  0.00    +0.000 NA
ATOM     21  N   UNL     1       8.215   5.682  13.400  0.00  0.00    +0.000 NA
ATOM     22  N   UNL     1       7.710   4.926  12.434  0.00  0.00    +0.000 NA
ATOM     23  N   UNL     1       6.736   4.207  13.021  0.00  0.00    +0.000 N 
ATOM     24  C   UNL     1       5.918   3.311  12.253  0.00  0.00    +0.000 C 
ENDBRANCH  18  19
ENDBRANCH  17  18
ENDBRANCH   5  17
TORSDOF 4
ENDMDL
MODEL 3
REMARK VINA RESULT:      -7.4      1.528      1.747
REMARK  Name = 
REMARK  7 active torsions:
REMARK  status: ('A' for Active; 'I' for Inactive)
REMARK    1  A    between atoms: C_1  and  C_2
REMARK    2  A    between atoms: C_5  and  N_6
REMARK    3  A    between atoms: C_10  and  C_12
REMARK    4  A    between atoms: C_12  and  S_13
REMARK    5  A    between atoms: S_13  and  C_14
REMARK    6  A    between atoms: N_18  and  C_19
REMARK    7  A    between atoms: C_20  and  C_21
REMARK                            x       y       z     vdW  Elec       q    Type
REMARK                         _______ _______ _______ _____ _____    ______ ____
ROOT
ATOM      1  N   UNL     1       2.476   7.096  19.093  0.00  0.00    +0.000 N 
ATOM      2  C   UNL     1       2.418   5.728  19.198  0.00  0.00    +0.000 C 
ATOM      3  O   UNL     1       1.748   5.072  19.990  0.00  0.00    +0.000 OA
ATOM      4  N   UNL     1       3.228   5.038  18.319  0.00  0.00    +0.000 N 
ATOM      5  C   UNL     1       4.068   5.546  17.345  0.00  0.00    +0.000 C 
ATOM      6  O   UNL     1       4.168   6.749  17.109  0.00  0.00    +0.000 OA
ATOM      7  H   UNL     1       3.172   7.434  18.438  0.00  0.00    +0.000 HD
ATOM      8  H   UNL     1       3.209   4.044  18.499  0.00  0.00    +0.000 HD
ENDROOT
BRANCH   1  13
ATOM      9  C   UNL     1      -0.398  11.009  22.155  0.00  0.00    +0.000 C 
ATOM     10  C   UNL     1       0.339   9.979  21.353  0.00  0.00    +0.000 A 
ATOM     11  C   UNL     1       0.787   8.802  21.946  0.00  0.00    +0.000 A 
ATOM     12  C   UNL     1       1.492   7.859  21.197  0.00  0.00    +0.000 A 
ATOM     13  C   UNL     1       1.765   8.061  19.838  0.00  0.00    +0.000 A 
ATOM     14  C   UNL     1       1.296   9.237  19.217  0.00  0.00    +0.000 A 
ATOM     15  C   UNL     1       1.528   9.606  17.776  0.00  0.00    +0.000 C 
ATOM     16  C   UNL     1       0.593  10.187  19.994  0.00  0.00    +0.000 A 
ENDBRANCH   1  13
BRANCH   5  17
ATOM     17  C   UNL     1       4.867   4.502  16.589  0.00  0.00    +0.000 C 
BRANCH  17  18
ATOM     18  S   UNL     1       6.456   5.208  16.057  0.00  0.00    +0.000 S 
BRANCH  18  19
ATOM     19  C   UNL     1       7.224   5.428  17.585  0.00  0.00    +0.000 A 
ATOM     20  N   UNL     1       7.463   4.504  18.485  0.00  0.00    +0.000 NA
ATOM     21  N   UNL     1       8.112   5.147  19.514  0.00  0.00    +0.000 NA
ATOM     22  N   UNL     1       8.249   6.442  19.258  0.00  0.00    +0.000 NA
ATOM     23  N   UNL     1       7.683   6.625  18.052  0.00  0.00    +0.000 N 
ATOM     24  C   UNL     1       7.590   7.936  17.474  0.00  0.00    +0.000 C 
ENDBRANCH  18  19
ENDBRANCH  17  18
ENDBRANCH   5  17
TORSDOF 4
ENDMDL
MODEL 4
REMARK VINA RESULT:      -7.4      1.899      2.354
REMARK  Name = 
REMARK  7 active torsions:
REMARK  status: ('A' for Active; 'I' for Inactive)
REMARK    1  A    between atoms: C_1  and  C_2
REMARK    2  A    between atoms: C_5  and  N_6
REMARK    3  A    between atoms: C_10  and  C_12
REMARK    4  A    between atoms: C_12  and  S_13
REMARK    5  A    between atoms: S_13  and  C_14
REMARK    6  A    between atoms: N_18  and  C_19
REMARK    7  A    between atoms: C_20  and  C_21
REMARK                            x       y       z     vdW  Elec       q    Type
REMARK                         _______ _______ _______ _____ _____    ______ ____
ROOT
ATOM      1  N   UNL     1       2.324   7.109  19.951  0.00  0.00    +0.000 N 
ATOM      2  C   UNL     1       2.109   5.772  20.175  0.00  0.00    +0.000 C 
ATOM      3  O   UNL     1       1.202   5.263  20.827  0.00  0.00    +0.000 OA
ATOM      4  N   UNL     1       3.042   4.926  19.609  0.00  0.00    +0.000 N 
ATOM      5  C   UNL     1       4.144   5.253  18.841  0.00  0.00    +0.000 C 
ATOM      6  O   UNL     1       4.416   6.409  18.519  0.00  0.00    +0.000 OA
ATOM      7  H   UNL     1       3.191   7.317  19.469  0.00  0.00    +0.000 HD
ATOM      8  H   UNL     1       2.883   3.965  19.877  0.00  0.00    +0.000 HD
ENDROOT
BRANCH   1  13
ATOM      9  C   UNL     1      -0.827  11.556  21.754  0.00  0.00    +0.000 C 
ATOM     10  C   UNL     1      -0.018  10.387  21.281  0.00  0.00    +0.000 A 
ATOM     11  C   UNL     1       0.351   9.374  22.162  0.00  0.00    +0.000 A 
ATOM     12  C   UNL     1       1.124   8.299  21.719  0.00  0.00    +0.000 A 
ATOM     13  C   UNL     1       1.546   8.203  20.386  0.00  0.00    +0.000 A 
ATOM     14  C   UNL     1       1.159   9.209  19.476  0.00  0.00    +0.000 A 
ATOM     15  C   UNL     1       1.551   9.258  18.023  0.00  0.00    +0.000 C 
ATOM     16  C   UNL     1       0.385  10.296  19.946  0.00  0.00    +0.000 A 
ENDBRANCH   1  13
BRANCH   5  17
ATOM     17  C   UNL     1       5.002   4.073  18.427  0.00  0.00    +0.000 C 
BRANCH  17  18
ATOM     18  S   UNL     1       4.729   3.701  16.667  0.00  0.00    +0.000 S 
BRANCH  18  19
ATOM     19  C   UNL     1       6.017   4.601  15.956  0.00  0.00    +0.000 A 
ATOM     20  N   UNL     1       6.793   5.472  16.558  0.00  0.00    +0.000 NA
ATOM     21  N   UNL     1       7.681   5.903  15.599  0.00  0.00    +0.000 NA
ATOM     22  N   UNL     1       7.439   5.324  14.429  0.00  0.00    +0.000 NA
ATOM     23  N   UNL     1       6.388   4.513  14.647  0.00  0.00    +0.000 N 
ATOM     24  C   UNL     1       5.803   3.762  13.573  0.00  0.00    +0.000 C 
ENDBRANCH  18  19
ENDBRANCH  17  18
ENDBRANCH   5  17
TORSDOF 4
ENDMDL
MODEL 5
REMARK VINA RESULT:      -7.3      1.312      2.524
REMARK  Name = 
REMARK  7 active torsions:
REMARK  status: ('A' for Active; 'I' for Inactive)
REMARK    1  A    between atoms: C_1  and  C_2
REMARK    2  A    between atoms: C_5  and  N_6
REMARK    3  A    between atoms: C_10  and  C_12
REMARK    4  A    between atoms: C_12  and  S_13
REMARK    5  A    between atoms: S_13  and  C_14
REMARK    6  A    between atoms: N_18  and  C_19
REMARK    7  A    between atoms: C_20  and  C_21
REMARK                            x       y       z     vdW  Elec       q    Type
REMARK                         _______ _______ _______ _____ _____    ______ ____
ROOT
ATOM      1  N   UNL     1       1.561   8.216  19.416  0.00  0.00    +0.000 N 
ATOM      2  C   UNL     1       2.432   7.910  18.400  0.00  0.00    +0.000 C 
ATOM      3  O   UNL     1       2.730   8.614  17.439  0.00  0.00    +0.000 OA
ATOM      4  N   UNL     1       3.007   6.658  18.478  0.00  0.00    +0.000 N 
ATOM      5  C   UNL     1       2.830   5.691  19.450  0.00  0.00    +0.000 C 
ATOM      6  O   UNL     1       2.124   5.861  20.443  0.00  0.00    +0.000 OA
ATOM      7  H   UNL     1       1.381   7.451  20.056  0.00  0.00    +0.000 HD
ATOM      8  H   UNL     1       3.569   6.455  17.664  0.00  0.00    +0.000 HD
ENDROOT
BRANCH   1  13
ATOM      9  C   UNL     1      -1.413  13.064  20.191  0.00  0.00    +0.000 C 
ATOM     10  C   UNL     1      -0.624  11.807  19.986  0.00  0.00    +0.000 A 
ATOM     11  C   UNL     1      -0.424  11.293  18.708  0.00  0.00    +0.000 A 
ATOM     12  C   UNL     1       0.293  10.109  18.527  0.00  0.00    +0.000 A 
ATOM     13  C   UNL     1       0.835   9.410  19.614  0.00  0.00    +0.000 A 
ATOM     14  C   UNL     1       0.662   9.932  20.913  0.00  0.00    +0.000 A 
ATOM     15  C   UNL     1       1.163   9.287  22.179  0.00  0.00    +0.000 C 
ATOM     16  C   UNL     1      -0.077  11.126  21.077  0.00  0.00    +0.000 A 
ENDBRANCH   1  13
BRANCH   5  17
ATOM     17  C   UNL     1       3.573   4.393  19.198  0.00  0.00    +0.000 C 
BRANCH  17  18
ATOM     18  S   UNL     1       4.030   4.276  17.441  0.00  0.00    +0.000 S 
BRANCH  18  19
ATOM     19  C   UNL     1       5.747   4.398  17.558  0.00  0.00    +0.000 A 
ATOM     20  N   UNL     1       6.449   4.569  18.653  0.00  0.00    +0.000 NA
ATOM     21  N   UNL     1       7.765   4.576  18.252  0.00  0.00    +0.000 NA
ATOM     22  N   UNL     1       7.865   4.434  16.936  0.00  0.00    +0.000 NA
ATOM     23  N   UNL     1       6.598   4.332  16.495  0.00  0.00    +0.000 N 
ATOM     24  C   UNL     1       6.313   4.228  15.092  0.00  0.00    +0.000 C 
ENDBRANCH  18  19
ENDBRANCH  17  18
ENDBRANCH   5  17
TORSDOF 4
ENDMDL
MODEL 6
REMARK VINA RESULT:      -7.3      3.393      8.317
REMARK  Name = 
REMARK  7 active torsions:
REMARK  status: ('A' for Active; 'I' for Inactive)
REMARK    1  A    between atoms: C_1  and  C_2
REMARK    2  A    between atoms: C_5  and  N_6
REMARK    3  A    between atoms: C_10  and  C_12
REMARK    4  A    between atoms: C_12  and  S_13
REMARK    5  A    between atoms: S_13  and  C_14
REMARK    6  A    between atoms: N_18  and  C_19
REMARK    7  A    between atoms: C_20  and  C_21
REMARK                            x       y       z     vdW  Elec       q    Type
REMARK                         _______ _______ _______ _____ _____    ______ ____
ROOT
ATOM      1  N   UNL     1       2.645   7.267  18.739  0.00  0.00    +0.000 N 
ATOM      2  C   UNL     1       2.074   8.466  18.389  0.00  0.00    +0.000 C 
ATOM      3  O   UNL     1       2.163   9.044  17.310  0.00  0.00    +0.000 OA
ATOM      4  N   UNL     1       1.341   9.080  19.385  0.00  0.00    +0.000 N 
ATOM      5  C   UNL     1       1.099   8.635  20.671  0.00  0.00    +0.000 C 
ATOM      6  O   UNL     1       1.502   7.551  21.091  0.00  0.00    +0.000 OA
ATOM      7  H   UNL     1       2.528   7.020  19.716  0.00  0.00    +0.000 HD
ATOM      8  H   UNL     1       1.018   9.993  19.099  0.00  0.00    +0.000 HD
ENDROOT
BRANCH   1  13
ATOM      9  C   UNL     1       5.880   3.797  15.509  0.00  0.00    +0.000 C 
ATOM     10  C   UNL     1       5.028   4.708  16.339  0.00  0.00    +0.000 A 
ATOM     11  C   UNL     1       5.382   6.042  16.523  0.00  0.00    +0.000 A 
ATOM     12  C   UNL     1       4.595   6.878  17.317  0.00  0.00    +0.000 A 
ATOM     13  C   UNL     1       3.433   6.410  17.943  0.00  0.00    +0.000 A 
ATOM     14  C   UNL     1       3.048   5.067  17.746  0.00  0.00    +0.000 A 
ATOM     15  C   UNL     1       1.843   4.412  18.369  0.00  0.00    +0.000 C 
ATOM     16  C   UNL     1       3.864   4.232  16.948  0.00  0.00    +0.000 A 
ENDBRANCH   1  13
BRANCH   5  17
ATOM     17  C   UNL     1       0.297   9.591  21.533  0.00  0.00    +0.000 C 
BRANCH  17  18
ATOM     18  S   UNL     1      -0.416  10.905  20.497  0.00  0.00    +0.000 S 
BRANCH  18  19
ATOM     19  C   UNL     1       0.407  12.281  21.133  0.00  0.00    +0.000 A 
ATOM     20  N   UNL     1       1.639  12.649  20.873  0.00  0.00    +0.000 NA
ATOM     21  N   UNL     1       1.836  13.811  21.584  0.00  0.00    +0.000 NA
ATOM     22  N   UNL     1       0.755  14.135  22.281  0.00  0.00    +0.000 NA
ATOM     23  N   UNL     1      -0.143  13.170  22.008  0.00  0.00    +0.000 N 
ATOM     24  C   UNL     1      -1.429  13.160  22.646  0.00  0.00    +0.000 C 
ENDBRANCH  18  19
ENDBRANCH  17  18
ENDBRANCH   5  17
TORSDOF 4
ENDMDL
MODEL 7
REMARK VINA RESULT:      -7.2      2.147      2.699
REMARK  Name = 
REMARK  7 active torsions:
REMARK  status: ('A' for Active; 'I' for Inactive)
REMARK    1  A    between atoms: C_1  and  C_2
REMARK    2  A    between atoms: C_5  and  N_6
REMARK    3  A    between atoms: C_10  and  C_12
REMARK    4  A    between atoms: C_12  and  S_13
REMARK    5  A    between atoms: S_13  and  C_14
REMARK    6  A    between atoms: N_18  and  C_19
REMARK    7  A    between atoms: C_20  and  C_21
REMARK                            x       y       z     vdW  Elec       q    Type
REMARK                         _______ _______ _______ _____ _____    ______ ____
ROOT
ATOM      1  N   UNL     1       1.852   8.125  19.784  0.00  0.00    +0.000 N 
ATOM      2  C   UNL     1       2.080   6.776  19.903  0.00  0.00    +0.000 C 
ATOM      3  O   UNL     1       1.634   6.019  20.759  0.00  0.00    +0.000 OA
ATOM      4  N   UNL     1       2.927   6.240  18.953  0.00  0.00    +0.000 N 
ATOM      5  C   UNL     1       3.553   6.881  17.900  0.00  0.00    +0.000 C 
ATOM      6  O   UNL     1       3.386   8.074  17.648  0.00  0.00    +0.000 OA
ATOM      7  H   UNL     1       2.401   8.579  19.064  0.00  0.00    +0.000 HD
ATOM      8  H   UNL     1       3.126   5.267  19.139  0.00  0.00    +0.000 HD
ENDROOT
BRANCH   1  13
ATOM      9  C   UNL     1      -1.450  11.462  23.087  0.00  0.00    +0.000 C 
ATOM     10  C   UNL     1      -0.599  10.579  22.226  0.00  0.00    +0.000 A 
ATOM     11  C   UNL     1       0.255   9.640  22.795  0.00  0.00    +0.000 A 
ATOM     12  C   UNL     1       1.062   8.837  21.986  0.00  0.00    +0.000 A 
ATOM     13  C   UNL     1       1.034   8.946  20.590  0.00  0.00    +0.000 A 
ATOM     14  C   UNL     1       0.155   9.876  19.997  0.00  0.00    +0.000 A 
ATOM     15  C   UNL     1       0.028  10.125  18.517  0.00  0.00    +0.000 C 
ATOM     16  C   UNL     1      -0.646  10.688  20.833  0.00  0.00    +0.000 A 
ENDBRANCH   1  13
BRANCH   5  17
ATOM     17  C   UNL     1       4.471   6.000  17.076  0.00  0.00    +0.000 C 
BRANCH  17  18
ATOM     18  S   UNL     1       5.171   4.688  18.123  0.00  0.00    +0.000 S 
BRANCH  18  19
ATOM     19  C   UNL     1       3.906   3.518  18.040  0.00  0.00    +0.000 A 
ATOM     20  N   UNL     1       2.964   3.443  17.131  0.00  0.00    +0.000 NA
ATOM     21  N   UNL     1       2.213   2.339  17.465  0.00  0.00    +0.000 NA
ATOM     22  N   UNL     1       2.673   1.764  18.569  0.00  0.00    +0.000 NA
ATOM     23  N   UNL     1       3.731   2.508  18.940  0.00  0.00    +0.000 N 
ATOM     24  C   UNL     1       4.452   2.213  20.146  0.00  0.00    +0.000 C 
ENDBRANCH  18  19
ENDBRANCH  17  18
ENDBRANCH   5  17
TORSDOF 4
ENDMDL
MODEL 8
REMARK VINA RESULT:      -7.2      1.648      2.275
REMARK  Name = 
REMARK  7 active torsions:
REMARK  status: ('A' for Active; 'I' for Inactive)
REMARK    1  A    between atoms: C_1  and  C_2
REMARK    2  A    between atoms: C_5  and  N_6
REMARK    3  A    between atoms: C_10  and  C_12
REMARK    4  A    between atoms: C_12  and  S_13
REMARK    5  A    between atoms: S_13  and  C_14
REMARK    6  A    between atoms: N_18  and  C_19
REMARK    7  A    between atoms: C_20  and  C_21
REMARK                            x       y       z     vdW  Elec       q    Type
REMARK                         _______ _______ _______ _____ _____    ______ ____
ROOT
ATOM      1  N   UNL     1       1.181   9.163  19.159  0.00  0.00    +0.000 N 
ATOM      2  C   UNL     1       2.077   9.288  18.126  0.00  0.00    +0.000 C 
ATOM      3  O   UNL     1       2.269  10.276  17.423  0.00  0.00    +0.000 OA
ATOM      4  N   UNL     1       2.817   8.155  17.852  0.00  0.00    +0.000 N 
ATOM      5  C   UNL     1       2.781   6.930  18.492  0.00  0.00    +0.000 C 
ATOM      6  O   UNL     1       2.067   6.706  19.469  0.00  0.00    +0.000 OA
ATOM      7  H   UNL     1       1.112   8.226  19.540  0.00  0.00    +0.000 HD
ATOM      8  H   UNL     1       3.395   8.277  17.033  0.00  0.00    +0.000 HD
ENDROOT
BRANCH   1  13
ATOM      9  C   UNL     1      -2.369  13.148  21.272  0.00  0.00    +0.000 C 
ATOM     10  C   UNL     1      -1.450  12.097  20.729  0.00  0.00    +0.000 A 
ATOM     11  C   UNL     1      -0.307  11.720  21.429  0.00  0.00    +0.000 A 
ATOM     12  C   UNL     1       0.556  10.756  20.906  0.00  0.00    +0.000 A 
ATOM     13  C   UNL     1       0.302  10.139  19.674  0.00  0.00    +0.000 A 
ATOM     14  C   UNL     1      -0.865  10.492  18.965  0.00  0.00    +0.000 A 
ATOM     15  C   UNL     1      -1.263   9.936  17.622  0.00  0.00    +0.000 C 
ATOM     16  C   UNL     1      -1.722  11.478  19.505  0.00  0.00    +0.000 A 
ENDBRANCH   1  13
BRANCH   5  17
ATOM     17  C   UNL     1       3.691   5.874  17.895  0.00  0.00    +0.000 C 
BRANCH  17  18
ATOM     18  S   UNL     1       5.017   6.672  16.940  0.00  0.00    +0.000 S 
BRANCH  18  19
ATOM     19  C   UNL     1       6.364   5.703  17.411  0.00  0.00    +0.000 A 
ATOM     20  N   UNL     1       6.892   5.622  18.610  0.00  0.00    +0.000 NA
ATOM     21  N   UNL     1       7.917   4.710  18.502  0.00  0.00    +0.000 NA
ATOM     22  N   UNL     1       8.028   4.259  17.258  0.00  0.00    +0.000 NA
ATOM     23  N   UNL     1       7.060   4.889  16.567  0.00  0.00    +0.000 N 
ATOM     24  C   UNL     1       6.918   4.691  15.153  0.00  0.00    +0.000 C 
ENDBRANCH  18  19
ENDBRANCH  17  18
ENDBRANCH   5  17
TORSDOF 4
ENDMDL
MODEL 9
REMARK VINA RESULT:      -7.1      2.960      3.721
REMARK  Name = 
REMARK  7 active torsions:
REMARK  status: ('A' for Active; 'I' for Inactive)
REMARK    1  A    between atoms: C_1  and  C_2
REMARK    2  A    between atoms: C_5  and  N_6
REMARK    3  A    between atoms: C_10  and  C_12
REMARK    4  A    between atoms: C_12  and  S_13
REMARK    5  A    between atoms: S_13  and  C_14
REMARK    6  A    between atoms: N_18  and  C_19
REMARK    7  A    between atoms: C_20  and  C_21
REMARK                            x       y       z     vdW  Elec       q    Type
REMARK                         _______ _______ _______ _____ _____    ______ ____
ROOT
ATOM      1  N   UNL     1       1.107   9.304  19.398  0.00  0.00    +0.000 N 
ATOM      2  C   UNL     1       1.932   9.118  18.316  0.00  0.00    +0.000 C 
ATOM      3  O   UNL     1       2.132   9.899  17.391  0.00  0.00    +0.000 OA
ATOM      4  N   UNL     1       2.580   7.899  18.277  0.00  0.00    +0.000 N 
ATOM      5  C   UNL     1       2.516   6.862  19.189  0.00  0.00    +0.000 C 
ATOM      6  O   UNL     1       1.862   6.925  20.229  0.00  0.00    +0.000 OA
ATOM      7  H   UNL     1       1.009   8.489  19.993  0.00  0.00    +0.000 HD
ATOM      8  H   UNL     1       3.103   7.785  17.420  0.00  0.00    +0.000 HD
ENDROOT
BRANCH   1  13
ATOM      9  C   UNL     1      -2.034  13.926  20.708  0.00  0.00    +0.000 C 
ATOM     10  C   UNL     1      -1.222  12.711  20.377  0.00  0.00    +0.000 A 
ATOM     11  C   UNL     1      -0.078  12.400  21.107  0.00  0.00    +0.000 A 
ATOM     12  C   UNL     1       0.686  11.278  20.778  0.00  0.00    +0.000 A 
ATOM     13  C   UNL     1       0.328  10.436  19.717  0.00  0.00    +0.000 A 
ATOM     14  C   UNL     1      -0.843  10.725  18.985  0.00  0.00    +0.000 A 
ATOM     15  C   UNL     1      -1.345   9.930  17.808  0.00  0.00    +0.000 C 
ATOM     16  C   UNL     1      -1.598  11.871  19.325  0.00  0.00    +0.000 A 
ENDBRANCH   1  13
BRANCH   5  17
ATOM     17  C   UNL     1       3.315   5.631  18.807  0.00  0.00    +0.000 C 
BRANCH  17  18
ATOM     18  S   UNL     1       2.190   4.229  18.529  0.00  0.00    +0.000 S 
BRANCH  18  19
ATOM     19  C   UNL     1       2.195   3.511  20.097  0.00  0.00    +0.000 A 
ATOM     20  N   UNL     1       1.274   3.640  21.023  0.00  0.00    +0.000 NA
ATOM     21  N   UNL     1       1.701   2.868  22.080  0.00  0.00    +0.000 NA
ATOM     22  N   UNL     1       2.869   2.297  21.814  0.00  0.00    +0.000 NA
ATOM     23  N   UNL     1       3.188   2.707  20.573  0.00  0.00    +0.000 N 
ATOM     24  C   UNL     1       4.436   2.330  19.972  0.00  0.00    +0.000 C 
ENDBRANCH  18  19
ENDBRANCH  17  18
ENDBRANCH   5  17
TORSDOF 4
ENDMDL
