MODEL 1
REMARK VINA RESULT:      -6.0      0.000      0.000
REMARK  Name = 
REMARK  11 active torsions:
REMARK  status: ('A' for Active; 'I' for Inactive)
REMARK    1  A    between atoms: C_1  and  C_2
REMARK    2  A    between atoms: C_2  and  C_3
REMARK    3  A    between atoms: C_2  and  C_4
REMARK    4  A    between atoms: C_2  and  O_5
REMARK    5  A    between atoms: O_5  and  C_6
REMARK    6  A    between atoms: C_11  and  C_12
REMARK    7  A    between atoms: C_16  and  O_18
REMARK    8  A    between atoms: O_18  and  C_19
REMARK    9  A    between atoms: C_19  and  C_20
REMARK   10  A    between atoms: C_19  and  C_21
REMARK   11  A    between atoms: C_19  and  C_22
REMARK                            x       y       z     vdW  Elec       q    Type
REMARK                         _______ _______ _______ _____ _____    ______ ____
ROOT
ATOM      1  C   UNL     1       3.097   6.546  18.567  0.00  0.00    +0.000 C 
ATOM      2  O   UNL     1       3.641   6.458  17.469  0.00  0.00    +0.000 OA
ATOM      3  N   UNL     1       2.288   7.622  18.883  0.00  0.00    +0.000 N 
ATOM      4  C   UNL     1       1.819   8.434  17.770  0.00  0.00    +0.000 C 
ATOM      5  C   UNL     1       1.998   9.910  18.075  0.00  0.00    +0.000 C 
ATOM      6  C   UNL     1       1.215  10.340  19.327  0.00  0.00    +0.000 C 
ATOM      7  C   UNL     1       1.635   9.398  20.498  0.00  0.00    +0.000 C 
ATOM      8  C   UNL     1       1.650   7.885  20.166  0.00  0.00    +0.000 C 
ENDROOT
BRANCH   6   9
ATOM      9  C   UNL     1      -0.340  10.420  19.154  0.00  0.00    +0.000 C 
ATOM     10  C   UNL     1      -0.876  11.696  18.477  0.00  0.00    +0.000 C 
ATOM     11  C   UNL     1      -0.812  12.912  19.382  0.00  0.00    +0.000 C 
ATOM     12  N   UNL     1      -1.567  12.693  20.605  0.00  0.00    +0.000 N 
ATOM     13  C   UNL     1      -2.143  13.827  21.174  0.00  0.00    +0.000 C 
ATOM     14  O   UNL     1      -2.253  14.884  20.557  0.00  0.00    +0.000 OA
ATOM     15  C   UNL     1      -1.194  11.513  21.375  0.00  0.00    +0.000 C 
ATOM     16  C   UNL     1      -1.094  10.245  20.503  0.00  0.00    +0.000 C 
BRANCH  13  17
ATOM     17  O   UNL     1      -2.463  13.687  22.491  0.00  0.00    +0.000 OA
BRANCH  17  18
ATOM     18  C   UNL     1      -3.866  13.482  22.831  0.00  0.00    +0.000 C 
ATOM     19  C   UNL     1      -4.706  12.816  21.729  0.00  0.00    +0.000 C 
ATOM     20  C   UNL     1      -3.880  12.543  24.049  0.00  0.00    +0.000 C 
ATOM     21  C   UNL     1      -4.455  14.835  23.256  0.00  0.00    +0.000 C 
ENDBRANCH  17  18
ENDBRANCH  13  17
ENDBRANCH   6   9
BRANCH   1  22
ATOM     22  O   UNL     1       3.216   5.581  19.536  0.00  0.00    +0.000 OA
BRANCH  22  24
ATOM     23  C   UNL     1       1.690   4.350  18.007  0.00  0.00    +0.000 C 
ATOM     24  C   UNL     1       2.409   4.370  19.368  0.00  0.00    +0.000 C 
ATOM     25  C   UNL     1       1.437   4.189  20.551  0.00  0.00    +0.000 C 
ATOM     26  C   UNL     1       3.365   3.157  19.384  0.00  0.00    +0.000 C 
ENDBRANCH  22  24
ENDBRANCH   1  22
TORSDOF 5
ENDMDL
MODEL 2
REMARK VINA RESULT:      -5.9      0.796      1.092
REMARK  Name = 
REMARK  11 active torsions:
REMARK  status: ('A' for Active; 'I' for Inactive)
REMARK    1  A    between atoms: C_1  and  C_2
REMARK    2  A    between atoms: C_2  and  C_3
REMARK    3  A    between atoms: C_2  and  C_4
REMARK    4  A    between atoms: C_2  and  O_5
REMARK    5  A    between atoms: O_5  and  C_6
REMARK    6  A    between atoms: C_11  and  C_12
REMARK    7  A    between atoms: C_16  and  O_18
REMARK    8  A    between atoms: O_18  and  C_19
REMARK    9  A    between atoms: C_19  and  C_20
REMARK   10  A    between atoms: C_19  and  C_21
REMARK   11  A    between atoms: C_19  and  C_22
REMARK                            x       y       z     vdW  Elec       q    Type
REMARK                         _______ _______ _______ _____ _____    ______ ____
ROOT
ATOM      1  C   UNL     1       3.128   5.649  18.775  0.00  0.00    +0.000 C 
ATOM      2  O   UNL     1       3.682   5.510  17.687  0.00  0.00    +0.000 OA
ATOM      3  N   UNL     1       2.385   6.779  19.062  0.00  0.00    +0.000 N 
ATOM      4  C   UNL     1       1.985   7.602  17.930  0.00  0.00    +0.000 C 
ATOM      5  C   UNL     1       2.253   9.068  18.215  0.00  0.00    +0.000 C 
ATOM      6  C   UNL     1       1.480   9.567  19.448  0.00  0.00    +0.000 C 
ATOM      7  C   UNL     1       1.822   8.619  20.639  0.00  0.00    +0.000 C 
ATOM      8  C   UNL     1       1.746   7.103  20.330  0.00  0.00    +0.000 C 
ENDROOT
BRANCH   6   9
ATOM      9  C   UNL     1      -0.064   9.742  19.249  0.00  0.00    +0.000 C 
ATOM     10  C   UNL     1      -0.501  10.981  18.446  0.00  0.00    +0.000 C 
ATOM     11  C   UNL     1      -0.352  12.272  19.229  0.00  0.00    +0.000 C 
ATOM     12  N   UNL     1      -1.127  12.229  20.458  0.00  0.00    +0.000 N 
ATOM     13  C   UNL     1      -1.621  13.453  20.908  0.00  0.00    +0.000 C 
ATOM     14  O   UNL     1      -1.650  14.449  20.189  0.00  0.00    +0.000 OA
ATOM     15  C   UNL     1      -0.845  11.106  21.344  0.00  0.00    +0.000 C 
ATOM     16  C   UNL     1      -0.835   9.756  20.600  0.00  0.00    +0.000 C 
BRANCH  13  17
ATOM     17  O   UNL     1      -1.957  13.465  22.228  0.00  0.00    +0.000 OA
BRANCH  17  18
ATOM     18  C   UNL     1      -3.373  13.407  22.569  0.00  0.00    +0.000 C 
ATOM     19  C   UNL     1      -4.280  12.836  21.466  0.00  0.00    +0.000 C 
ATOM     20  C   UNL     1      -3.484  12.471  23.785  0.00  0.00    +0.000 C 
ATOM     21  C   UNL     1      -3.816  14.813  22.999  0.00  0.00    +0.000 C 
ENDBRANCH  17  18
ENDBRANCH  13  17
ENDBRANCH   6   9
BRANCH   1  22
ATOM     22  O   UNL     1       3.171   4.695  19.759  0.00  0.00    +0.000 OA
BRANCH  22  24
ATOM     23  C   UNL     1       3.307   2.289  19.146  0.00  0.00    +0.000 C 
ATOM     24  C   UNL     1       2.399   3.471  19.530  0.00  0.00    +0.000 C 
ATOM     25  C   UNL     1       1.278   3.713  18.501  0.00  0.00    +0.000 C 
ATOM     26  C   UNL     1       1.711   3.089  20.860  0.00  0.00    +0.000 C 
ENDBRANCH  22  24
ENDBRANCH   1  22
TORSDOF 5
ENDMDL
MODEL 3
REMARK VINA RESULT:      -5.9      2.313      9.420
REMARK  Name = 
REMARK  11 active torsions:
REMARK  status: ('A' for Active; 'I' for Inactive)
REMARK    1  A    between atoms: C_1  and  C_2
REMARK    2  A    between atoms: C_2  and  C_3
REMARK    3  A    between atoms: C_2  and  C_4
REMARK    4  A    between atoms: C_2  and  O_5
REMARK    5  A    between atoms: O_5  and  C_6
REMARK    6  A    between atoms: C_11  and  C_12
REMARK    7  A    between atoms: C_16  and  O_18
REMARK    8  A    between atoms: O_18  and  C_19
REMARK    9  A    between atoms: C_19  and  C_20
REMARK   10  A    between atoms: C_19  and  C_21
REMARK   11  A    between atoms: C_19  and  C_22
REMARK                            x       y       z     vdW  Elec       q    Type
REMARK                         _______ _______ _______ _____ _____    ______ ____
ROOT
ATOM      1  C   UNL     1      -0.591  15.026  20.204  0.00  0.00    +0.000 C 
ATOM      2  O   UNL     1      -0.835  15.275  21.383  0.00  0.00    +0.000 OA
ATOM      3  N   UNL     1      -0.106  13.790  19.818  0.00  0.00    +0.000 N 
ATOM      4  C   UNL     1      -0.246  12.705  20.778  0.00  0.00    +0.000 C 
ATOM      5  C   UNL     1       1.054  11.931  20.900  0.00  0.00    +0.000 C 
ATOM      6  C   UNL     1       1.485  11.313  19.559  0.00  0.00    +0.000 C 
ATOM      7  C   UNL     1       1.529  12.457  18.500  0.00  0.00    +0.000 C 
ATOM      8  C   UNL     1       0.295  13.393  18.475  0.00  0.00    +0.000 C 
ENDROOT
BRANCH   6   9
ATOM      9  C   UNL     1       0.636  10.087  19.079  0.00  0.00    +0.000 C 
ATOM     10  C   UNL     1       0.258   9.064  20.166  0.00  0.00    +0.000 C 
ATOM     11  C   UNL     1       1.433   8.210  20.602  0.00  0.00    +0.000 C 
ATOM     12  N   UNL     1       2.001   7.487  19.475  0.00  0.00    +0.000 N 
ATOM     13  C   UNL     1       2.573   6.251  19.771  0.00  0.00    +0.000 C 
ATOM     14  O   UNL     1       2.370   5.677  20.838  0.00  0.00    +0.000 OA
ATOM     15  C   UNL     1       2.410   8.308  18.341  0.00  0.00    +0.000 C 
ATOM     16  C   UNL     1       1.322   9.313  17.917  0.00  0.00    +0.000 C 
BRANCH  13  17
ATOM     17  O   UNL     1       3.448   5.804  18.828  0.00  0.00    +0.000 OA
BRANCH  17  18
ATOM     18  C   UNL     1       3.141   4.545  18.158  0.00  0.00    +0.000 C 
ATOM     19  C   UNL     1       1.673   4.384  17.731  0.00  0.00    +0.000 C 
ATOM     20  C   UNL     1       3.997   4.519  16.881  0.00  0.00    +0.000 C 
ATOM     21  C   UNL     1       3.597   3.398  19.071  0.00  0.00    +0.000 C 
ENDBRANCH  17  18
ENDBRANCH  13  17
ENDBRANCH   6   9
BRANCH   1  22
ATOM     22  O   UNL     1      -0.812  15.926  19.193  0.00  0.00    +0.000 OA
BRANCH  22  24
ATOM     23  C   UNL     1       1.522  16.739  19.466  0.00  0.00    +0.000 C 
ATOM     24  C   UNL     1       0.061  17.103  19.150  0.00  0.00    +0.000 C 
ATOM     25  C   UNL     1      -0.480  18.221  20.062  0.00  0.00    +0.000 C 
ATOM     26  C   UNL     1       0.041  17.653  17.707  0.00  0.00    +0.000 C 
ENDBRANCH  22  24
ENDBRANCH   1  22
TORSDOF 5
ENDMDL
MODEL 4
REMARK VINA RESULT:      -5.8      2.122      3.420
REMARK  Name = 
REMARK  11 active torsions:
REMARK  status: ('A' for Active; 'I' for Inactive)
REMARK    1  A    between atoms: C_1  and  C_2
REMARK    2  A    between atoms: C_2  and  C_3
REMARK    3  A    between atoms: C_2  and  C_4
REMARK    4  A    between atoms: C_2  and  O_5
REMARK    5  A    between atoms: O_5  and  C_6
REMARK    6  A    between atoms: C_11  and  C_12
REMARK    7  A    between atoms: C_16  and  O_18
REMARK    8  A    between atoms: O_18  and  C_19
REMARK    9  A    between atoms: C_19  and  C_20
REMARK   10  A    between atoms: C_19  and  C_21
REMARK   11  A    between atoms: C_19  and  C_22
REMARK                            x       y       z     vdW  Elec       q    Type
REMARK                         _______ _______ _______ _____ _____    ______ ____
ROOT
ATOM      1  C   UNL     1       2.415   6.196  19.780  0.00  0.00    +0.000 C 
ATOM      2  O   UNL     1       1.973   5.608  20.764  0.00  0.00    +0.000 OA
ATOM      3  N   UNL     1       2.096   7.518  19.531  0.00  0.00    +0.000 N 
ATOM      4  C   UNL     1       1.538   8.274  20.642  0.00  0.00    +0.000 C 
ATOM      5  C   UNL     1       0.321   9.061  20.193  0.00  0.00    +0.000 C 
ATOM      6  C   UNL     1       0.659  10.061  19.074  0.00  0.00    +0.000 C 
ATOM      7  C   UNL     1       1.359   9.269  17.925  0.00  0.00    +0.000 C 
ATOM      8  C   UNL     1       2.486   8.304  18.369  0.00  0.00    +0.000 C 
ENDROOT
BRANCH   6   9
ATOM      9  C   UNL     1       1.482  11.317  19.520  0.00  0.00    +0.000 C 
ATOM     10  C   UNL     1       1.178  11.852  20.932  0.00  0.00    +0.000 C 
ATOM     11  C   UNL     1      -0.156  12.568  21.015  0.00  0.00    +0.000 C 
ATOM     12  N   UNL     1      -0.208  13.685  20.084  0.00  0.00    +0.000 N 
ATOM     13  C   UNL     1      -0.995  14.766  20.476  0.00  0.00    +0.000 C 
ATOM     14  O   UNL     1      -1.388  14.903  21.632  0.00  0.00    +0.000 OA
ATOM     15  C   UNL     1       0.065  13.357  18.690  0.00  0.00    +0.000 C 
ATOM     16  C   UNL     1       1.337  12.501  18.522  0.00  0.00    +0.000 C 
BRANCH  13  17
ATOM     17  O   UNL     1      -1.369  15.581  19.451  0.00  0.00    +0.000 OA
BRANCH  17  18
ATOM     18  C   UNL     1      -0.790  16.918  19.398  0.00  0.00    +0.000 C 
ATOM     19  C   UNL     1       0.571  17.059  20.101  0.00  0.00    +0.000 C 
ATOM     20  C   UNL     1      -0.572  17.233  17.908  0.00  0.00    +0.000 C 
ATOM     21  C   UNL     1      -1.824  17.906  19.956  0.00  0.00    +0.000 C 
ENDBRANCH  17  18
ENDBRANCH  13  17
ENDBRANCH   6   9
BRANCH   1  22
ATOM     22  O   UNL     1       3.274   5.608  18.886  0.00  0.00    +0.000 OA
BRANCH  22  24
ATOM     23  C   UNL     1       1.399   4.462  17.724  0.00  0.00    +0.000 C 
ATOM     24  C   UNL     1       2.834   4.354  18.269  0.00  0.00    +0.000 C 
ATOM     25  C   UNL     1       3.009   3.172  19.242  0.00  0.00    +0.000 C 
ATOM     26  C   UNL     1       3.751   4.076  17.057  0.00  0.00    +0.000 C 
ENDBRANCH  22  24
ENDBRANCH   1  22
TORSDOF 5
ENDMDL
MODEL 5
REMARK VINA RESULT:      -5.8      3.941      9.864
REMARK  Name = 
REMARK  11 active torsions:
REMARK  status: ('A' for Active; 'I' for Inactive)
REMARK    1  A    between atoms: C_1  and  C_2
REMARK    2  A    between atoms: C_2  and  C_3
REMARK    3  A    between atoms: C_2  and  C_4
REMARK    4  A    between atoms: C_2  and  O_5
REMARK    5  A    between atoms: O_5  and  C_6
REMARK    6  A    between atoms: C_11  and  C_12
REMARK    7  A    between atoms: C_16  and  O_18
REMARK    8  A    between atoms: O_18  and  C_19
REMARK    9  A    between atoms: C_19  and  C_20
REMARK   10  A    between atoms: C_19  and  C_21
REMARK   11  A    between atoms: C_19  and  C_22
REMARK                            x       y       z     vdW  Elec       q    Type
REMARK                         _______ _______ _______ _____ _____    ______ ____
ROOT
ATOM      1  C   UNL     1       1.937   7.762  19.883  0.00  0.00    +0.000 C 
ATOM      2  O   UNL     1       2.042   8.453  18.873  0.00  0.00    +0.000 OA
ATOM      3  N   UNL     1       1.982   6.382  19.815  0.00  0.00    +0.000 N 
ATOM      4  C   UNL     1       2.516   5.806  18.589  0.00  0.00    +0.000 C 
ATOM      5  C   UNL     1       1.620   4.686  18.093  0.00  0.00    +0.000 C 
ATOM      6  C   UNL     1       1.490   3.550  19.122  0.00  0.00    +0.000 C 
ATOM      7  C   UNL     1       1.023   4.181  20.470  0.00  0.00    +0.000 C 
ATOM      8  C   UNL     1       1.794   5.448  20.918  0.00  0.00    +0.000 C 
ENDROOT
BRANCH   6   9
ATOM      9  C   UNL     1       2.760   2.649  19.293  0.00  0.00    +0.000 C 
ATOM     10  C   UNL     1       3.997   3.337  19.901  0.00  0.00    +0.000 C 
ATOM     11  C   UNL     1       4.675   4.287  18.933  0.00  0.00    +0.000 C 
ATOM     12  N   UNL     1       5.089   3.593  17.724  0.00  0.00    +0.000 N 
ATOM     13  C   UNL     1       6.227   4.094  17.095  0.00  0.00    +0.000 C 
ATOM     14  O   UNL     1       6.993   4.875  17.656  0.00  0.00    +0.000 OA
ATOM     15  C   UNL     1       4.036   2.873  17.017  0.00  0.00    +0.000 C 
ATOM     16  C   UNL     1       3.196   1.984  17.956  0.00  0.00    +0.000 C 
BRANCH  13  17
ATOM     17  O   UNL     1       6.347   3.728  15.788  0.00  0.00    +0.000 OA
BRANCH  17  18
ATOM     18  C   UNL     1       6.068   4.736  14.772  0.00  0.00    +0.000 C 
ATOM     19  C   UNL     1       5.302   5.969  15.280  0.00  0.00    +0.000 C 
ATOM     20  C   UNL     1       7.436   5.223  14.264  0.00  0.00    +0.000 C 
ATOM     21  C   UNL     1       5.336   4.050  13.610  0.00  0.00    +0.000 C 
ENDBRANCH  17  18
ENDBRANCH  13  17
ENDBRANCH   6   9
BRANCH   1  22
ATOM     22  O   UNL     1       1.809   8.296  21.140  0.00  0.00    +0.000 OA
BRANCH  22  24
ATOM     23  C   UNL     1      -0.673   8.160  21.196  0.00  0.00    +0.000 C 
ATOM     24  C   UNL     1       0.574   9.032  21.425  0.00  0.00    +0.000 C 
ATOM     25  C   UNL     1       0.527  10.352  20.630  0.00  0.00    +0.000 C 
ATOM     26  C   UNL     1       0.584   9.411  22.922  0.00  0.00    +0.000 C 
ENDBRANCH  22  24
ENDBRANCH   1  22
TORSDOF 5
ENDMDL
MODEL 6
REMARK VINA RESULT:      -5.8      2.956      9.563
REMARK  Name = 
REMARK  11 active torsions:
REMARK  status: ('A' for Active; 'I' for Inactive)
REMARK    1  A    between atoms: C_1  and  C_2
REMARK    2  A    between atoms: C_2  and  C_3
REMARK    3  A    between atoms: C_2  and  C_4
REMARK    4  A    between atoms: C_2  and  O_5
REMARK    5  A    between atoms: O_5  and  C_6
REMARK    6  A    between atoms: C_11  and  C_12
REMARK    7  A    between atoms: C_16  and  O_18
REMARK    8  A    between atoms: O_18  and  C_19
REMARK    9  A    between atoms: C_19  and  C_20
REMARK   10  A    between atoms: C_19  and  C_21
REMARK   11  A    between atoms: C_19  and  C_22
REMARK                            x       y       z     vdW  Elec       q    Type
REMARK                         _______ _______ _______ _____ _____    ______ ____
ROOT
ATOM      1  C   UNL     1      -1.336  11.109  19.024  0.00  0.00    +0.000 C 
ATOM      2  O   UNL     1      -1.787  11.542  20.083  0.00  0.00    +0.000 OA
ATOM      3  N   UNL     1      -0.430  10.065  19.004  0.00  0.00    +0.000 N 
ATOM      4  C   UNL     1      -0.318   9.275  20.221  0.00  0.00    +0.000 C 
ATOM      5  C   UNL     1       1.139   9.058  20.584  0.00  0.00    +0.000 C 
ATOM      6  C   UNL     1       1.906   8.316  19.475  0.00  0.00    +0.000 C 
ATOM      7  C   UNL     1       1.697   9.103  18.144  0.00  0.00    +0.000 C 
ATOM      8  C   UNL     1       0.236   9.513  17.832  0.00  0.00    +0.000 C 
ENDROOT
BRANCH   6   9
ATOM      9  C   UNL     1       1.570   6.793  19.328  0.00  0.00    +0.000 C 
ATOM     10  C   UNL     1       2.282   5.849  20.315  0.00  0.00    +0.000 C 
ATOM     11  C   UNL     1       3.752   5.661  19.992  0.00  0.00    +0.000 C 
ATOM     12  N   UNL     1       3.928   5.132  18.649  0.00  0.00    +0.000 N 
ATOM     13  C   UNL     1       5.045   4.322  18.456  0.00  0.00    +0.000 C 
ATOM     14  O   UNL     1       5.681   3.852  19.397  0.00  0.00    +0.000 OA
ATOM     15  C   UNL     1       3.306   5.904  17.580  0.00  0.00    +0.000 C 
ATOM     16  C   UNL     1       1.839   6.266  17.889  0.00  0.00    +0.000 C 
BRANCH  13  17
ATOM     17  O   UNL     1       5.422   4.195  17.154  0.00  0.00    +0.000 OA
BRANCH  17  18
ATOM     18  C   UNL     1       6.668   4.832  16.741  0.00  0.00    +0.000 C 
ATOM     19  C   UNL     1       7.901   4.434  17.569  0.00  0.00    +0.000 C 
ATOM     20  C   UNL     1       6.921   4.381  15.293  0.00  0.00    +0.000 C 
ATOM     21  C   UNL     1       6.447   6.352  16.744  0.00  0.00    +0.000 C 
ENDBRANCH  17  18
ENDBRANCH  13  17
ENDBRANCH   6   9
BRANCH   1  22
ATOM     22  O   UNL     1      -1.718  11.595  17.800  0.00  0.00    +0.000 OA
BRANCH  22  24
ATOM     23  C   UNL     1      -3.194   9.595  17.740  0.00  0.00    +0.000 C 
ATOM     24  C   UNL     1      -2.921  11.010  17.200  0.00  0.00    +0.000 C 
ATOM     25  C   UNL     1      -2.842  11.050  15.662  0.00  0.00    +0.000 C 
ATOM     26  C   UNL     1      -4.127  11.884  17.610  0.00  0.00    +0.000 C 
ENDBRANCH  22  24
ENDBRANCH   1  22
TORSDOF 5
ENDMDL
MODEL 7
REMARK VINA RESULT:      -5.7      4.099      9.611
REMARK  Name = 
REMARK  11 active torsions:
REMARK  status: ('A' for Active; 'I' for Inactive)
REMARK    1  A    between atoms: C_1  and  C_2
REMARK    2  A    between atoms: C_2  and  C_3
REMARK    3  A    between atoms: C_2  and  C_4
REMARK    4  A    between atoms: C_2  and  O_5
REMARK    5  A    between atoms: O_5  and  C_6
REMARK    6  A    between atoms: C_11  and  C_12
REMARK    7  A    between atoms: C_16  and  O_18
REMARK    8  A    between atoms: O_18  and  C_19
REMARK    9  A    between atoms: C_19  and  C_20
REMARK   10  A    between atoms: C_19  and  C_21
REMARK   11  A    between atoms: C_19  and  C_22
REMARK                            x       y       z     vdW  Elec       q    Type
REMARK                         _______ _______ _______ _____ _____    ______ ____
ROOT
ATOM      1  C   UNL     1       1.980   7.501  19.633  0.00  0.00    +0.000 C 
ATOM      2  O   UNL     1       2.036   8.148  18.590  0.00  0.00    +0.000 OA
ATOM      3  N   UNL     1       1.944   6.119  19.619  0.00  0.00    +0.000 N 
ATOM      4  C   UNL     1       2.340   5.469  18.379  0.00  0.00    +0.000 C 
ATOM      5  C   UNL     1       1.347   4.385  18.004  0.00  0.00    +0.000 C 
ATOM      6  C   UNL     1       1.243   3.297  19.087  0.00  0.00    +0.000 C 
ATOM      7  C   UNL     1       0.926   4.003  20.441  0.00  0.00    +0.000 C 
ATOM      8  C   UNL     1       1.799   5.240  20.771  0.00  0.00    +0.000 C 
ENDROOT
BRANCH   6   9
ATOM      9  C   UNL     1       2.472   2.331  19.190  0.00  0.00    +0.000 C 
ATOM     10  C   UNL     1       3.583   2.759  20.168  0.00  0.00    +0.000 C 
ATOM     11  C   UNL     1       4.408   3.920  19.646  0.00  0.00    +0.000 C 
ATOM     12  N   UNL     1       5.026   3.591  18.371  0.00  0.00    +0.000 N 
ATOM     13  C   UNL     1       6.250   4.203  18.113  0.00  0.00    +0.000 C 
ATOM     14  O   UNL     1       6.904   4.754  18.996  0.00  0.00    +0.000 OA
ATOM     15  C   UNL     1       4.112   3.154  17.322  0.00  0.00    +0.000 C 
ATOM     16  C   UNL     1       3.132   2.067  17.807  0.00  0.00    +0.000 C 
BRANCH  13  17
ATOM     17  O   UNL     1       6.592   4.229  16.794  0.00  0.00    +0.000 OA
BRANCH  17  18
ATOM     18  C   UNL     1       6.631   5.526  16.128  0.00  0.00    +0.000 C 
ATOM     19  C   UNL     1       7.428   6.609  16.872  0.00  0.00    +0.000 C 
ATOM     20  C   UNL     1       7.327   5.292  14.775  0.00  0.00    +0.000 C 
ATOM     21  C   UNL     1       5.185   5.966  15.859  0.00  0.00    +0.000 C 
ENDBRANCH  17  18
ENDBRANCH  13  17
ENDBRANCH   6   9
BRANCH   1  22
ATOM     22  O   UNL     1       1.986   8.088  20.873  0.00  0.00    +0.000 OA
BRANCH  22  24
ATOM     23  C   UNL     1      -0.479   8.067  21.195  0.00  0.00    +0.000 C 
ATOM     24  C   UNL     1       0.818   8.896  21.232  0.00  0.00    +0.000 C 
ATOM     25  C   UNL     1       0.735  10.161  20.355  0.00  0.00    +0.000 C 
ATOM     26  C   UNL     1       1.000   9.372  22.689  0.00  0.00    +0.000 C 
ENDBRANCH  22  24
ENDBRANCH   1  22
TORSDOF 5
ENDMDL
MODEL 8
REMARK VINA RESULT:      -5.7      0.488      1.279
REMARK  Name = 
REMARK  11 active torsions:
REMARK  status: ('A' for Active; 'I' for Inactive)
REMARK    1  A    between atoms: C_1  and  C_2
REMARK    2  A    between atoms: C_2  and  C_3
REMARK    3  A    between atoms: C_2  and  C_4
REMARK    4  A    between atoms: C_2  and  O_5
REMARK    5  A    between atoms: O_5  and  C_6
REMARK    6  A    between atoms: C_11  and  C_12
REMARK    7  A    between atoms: C_16  and  O_18
REMARK    8  A    between atoms: O_18  and  C_19
REMARK    9  A    between atoms: C_19  and  C_20
REMARK   10  A    between atoms: C_19  and  C_21
REMARK   11  A    between atoms: C_19  and  C_22
REMARK                            x       y       z     vdW  Elec       q    Type
REMARK                         _______ _______ _______ _____ _____    ______ ____
ROOT
ATOM      1  C   UNL     1       3.155   5.994  18.578  0.00  0.00    +0.000 C 
ATOM      2  O   UNL     1       3.705   5.900  17.483  0.00  0.00    +0.000 OA
ATOM      3  N   UNL     1       2.385   7.096  18.902  0.00  0.00    +0.000 N 
ATOM      4  C   UNL     1       1.957   7.941  17.796  0.00  0.00    +0.000 C 
ATOM      5  C   UNL     1       2.190   9.404  18.122  0.00  0.00    +0.000 C 
ATOM      6  C   UNL     1       1.412   9.847  19.374  0.00  0.00    +0.000 C 
ATOM      7  C   UNL     1       1.786   8.875  20.535  0.00  0.00    +0.000 C 
ATOM      8  C   UNL     1       1.746   7.367  20.182  0.00  0.00    +0.000 C 
ENDROOT
BRANCH   6   9
ATOM      9  C   UNL     1      -0.136   9.989  19.189  0.00  0.00    +0.000 C 
ATOM     10  C   UNL     1      -0.613  11.268  18.473  0.00  0.00    +0.000 C 
ATOM     11  C   UNL     1      -0.501  12.504  19.344  0.00  0.00    +0.000 C 
ATOM     12  N   UNL     1      -1.271  12.354  20.568  0.00  0.00    +0.000 N 
ATOM     13  C   UNL     1      -1.800  13.527  21.102  0.00  0.00    +0.000 C 
ATOM     14  O   UNL     1      -1.861  14.569  20.454  0.00  0.00    +0.000 OA
ATOM     15  C   UNL     1      -0.953  11.180  21.373  0.00  0.00    +0.000 C 
ATOM     16  C   UNL     1      -0.904   9.886  20.537  0.00  0.00    +0.000 C 
BRANCH  13  17
ATOM     17  O   UNL     1      -2.133  13.438  22.419  0.00  0.00    +0.000 OA
BRANCH  17  18
ATOM     18  C   UNL     1      -3.545  13.524  22.771  0.00  0.00    +0.000 C 
ATOM     19  C   UNL     1      -4.091  14.956  22.899  0.00  0.00    +0.000 C 
ATOM     20  C   UNL     1      -4.315  12.840  21.629  0.00  0.00    +0.000 C 
ATOM     21  C   UNL     1      -3.765  12.715  24.057  0.00  0.00    +0.000 C 
ENDBRANCH  17  18
ENDBRANCH  13  17
ENDBRANCH   6   9
BRANCH   1  22
ATOM     22  O   UNL     1       3.228   5.013  19.534  0.00  0.00    +0.000 OA
BRANCH  22  24
ATOM     23  C   UNL     1       1.267   3.790  20.450  0.00  0.00    +0.000 C 
ATOM     24  C   UNL     1       2.352   3.851  19.361  0.00  0.00    +0.000 C 
ATOM     25  C   UNL     1       3.175   2.551  19.273  0.00  0.00    +0.000 C 
ATOM     26  C   UNL     1       1.618   4.008  18.010  0.00  0.00    +0.000 C 
ENDBRANCH  22  24
ENDBRANCH   1  22
TORSDOF 5
ENDMDL
MODEL 9
REMARK VINA RESULT:      -5.6      3.992      6.683
REMARK  Name = 
REMARK  11 active torsions:
REMARK  status: ('A' for Active; 'I' for Inactive)
REMARK    1  A    between atoms: C_1  and  C_2
REMARK    2  A    between atoms: C_2  and  C_3
REMARK    3  A    between atoms: C_2  and  C_4
REMARK    4  A    between atoms: C_2  and  O_5
REMARK    5  A    between atoms: O_5  and  C_6
REMARK    6  A    between atoms: C_11  and  C_12
REMARK    7  A    between atoms: C_16  and  O_18
REMARK    8  A    between atoms: O_18  and  C_19
REMARK    9  A    between atoms: C_19  and  C_20
REMARK   10  A    between atoms: C_19  and  C_21
REMARK   11  A    between atoms: C_19  and  C_22
REMARK                            x       y       z     vdW  Elec       q    Type
REMARK                         _______ _______ _______ _____ _____    ______ ____
ROOT
ATOM      1  C   UNL     1       6.345   4.182  17.068  0.00  0.00    +0.000 C 
ATOM      2  O   UNL     1       7.128   4.874  17.716  0.00  0.00    +0.000 OA
ATOM      3  N   UNL     1       5.133   3.783  17.598  0.00  0.00    +0.000 N 
ATOM      4  C   UNL     1       4.668   4.500  18.776  0.00  0.00    +0.000 C 
ATOM      5  C   UNL     1       4.182   3.528  19.835  0.00  0.00    +0.000 C 
ATOM      6  C   UNL     1       3.017   2.659  19.330  0.00  0.00    +0.000 C 
ATOM      7  C   UNL     1       3.474   1.973  18.006  0.00  0.00    +0.000 C 
ATOM      8  C   UNL     1       4.154   2.905  16.971  0.00  0.00    +0.000 C 
ENDROOT
BRANCH   6   9
ATOM      9  C   UNL     1       1.644   3.397  19.177  0.00  0.00    +0.000 C 
ATOM     10  C   UNL     1       1.583   4.484  18.087  0.00  0.00    +0.000 C 
ATOM     11  C   UNL     1       2.335   5.744  18.472  0.00  0.00    +0.000 C 
ATOM     12  N   UNL     1       1.812   6.308  19.706  0.00  0.00    +0.000 N 
ATOM     13  C   UNL     1       1.899   7.693  19.826  0.00  0.00    +0.000 C 
ATOM     14  O   UNL     1       2.131   8.419  18.862  0.00  0.00    +0.000 OA
ATOM     15  C   UNL     1       1.789   5.406  20.851  0.00  0.00    +0.000 C 
ATOM     16  C   UNL     1       1.167   4.037  20.512  0.00  0.00    +0.000 C 
BRANCH  13  17
ATOM     17  O   UNL     1       1.812   8.147  21.107  0.00  0.00    +0.000 OA
BRANCH  17  18
ATOM     18  C   UNL     1       0.704   9.035  21.441  0.00  0.00    +0.000 C 
ATOM     19  C   UNL     1       0.578  10.275  20.541  0.00  0.00    +0.000 C 
ATOM     20  C   UNL     1      -0.579   8.205  21.261  0.00  0.00    +0.000 C 
ATOM     21  C   UNL     1       0.830   9.416  22.922  0.00  0.00    +0.000 C 
ENDBRANCH  17  18
ENDBRANCH  13  17
ENDBRANCH   6   9
BRANCH   1  22
ATOM     22  O   UNL     1       6.592   3.792  15.776  0.00  0.00    +0.000 OA
BRANCH  22  24
ATOM     23  C   UNL     1       5.411   5.922  15.278  0.00  0.00    +0.000 C 
ATOM     24  C   UNL     1       6.174   4.710  14.714  0.00  0.00    +0.000 C 
ATOM     25  C   UNL     1       5.376   3.964  13.626  0.00  0.00    +0.000 C 
ATOM     26  C   UNL     1       7.448   5.262  14.036  0.00  0.00    +0.000 C 
ENDBRANCH  22  24
ENDBRANCH   1  22
TORSDOF 5
ENDMDL
