MODEL 1
REMARK VINA RESULT:      -6.5      0.000      0.000
REMARK  Name = 
REMARK  3 active torsions:
REMARK  status: ('A' for Active; 'I' for Inactive)
REMARK    1  A    between atoms: C_2  and  C_3
REMARK    2  A    between atoms: C_3  and  N_4
REMARK    3  A    between atoms: C_14  and  S_15
REMARK                            x       y       z     vdW  Elec       q    Type
REMARK                         _______ _______ _______ _____ _____    ______ ____
ROOT
ATOM      1  N   UNL     1       3.509   4.297  18.455  0.00  0.00    +0.000 N 
ATOM      2  C   UNL     1       2.872   5.321  19.141  0.00  0.00    +0.000 A 
ATOM      3  C   UNL     1       2.072   5.305  20.295  0.00  0.00    +0.000 A 
ATOM      4  C   UNL     1       1.560   6.521  20.760  0.00  0.00    +0.000 A 
ATOM      5  C   UNL     1       1.829   7.714  20.096  0.00  0.00    +0.000 A 
ATOM      6  C   UNL     1       2.625   7.724  18.946  0.00  0.00    +0.000 A 
ATOM      7  C   UNL     1       3.159   6.513  18.460  0.00  0.00    +0.000 A 
ATOM      8  C   UNL     1       3.993   6.174  17.364  0.00  0.00    +0.000 A 
ATOM      9  N   UNL     1       4.565   6.934  16.397  0.00  0.00    +0.000 NA
ATOM     10  N   UNL     1       5.316   6.292  15.505  0.00  0.00    +0.000 NA
ATOM     11  C   UNL     1       5.490   4.945  15.585  0.00  0.00    +0.000 A 
ATOM     12  N   UNL     1       4.965   4.120  16.513  0.00  0.00    +0.000 NA
ATOM     13  C   UNL     1       4.206   4.806  17.389  0.00  0.00    +0.000 A 
ENDROOT
BRANCH  11  14
ATOM     14  S   UNL     1       6.507   4.206  14.335  0.00  0.00    +0.000 S 
ATOM     15  H   UNL     1       7.396   3.723  15.212  0.00  0.00    +0.000 HD
ENDBRANCH  11  14
BRANCH   1  16
ATOM     16  C   UNL     1       3.497   2.887  18.826  0.00  0.00    +0.000 C 
BRANCH  16  18
ATOM     17  C   UNL     1       1.084   2.192  18.712  0.00  0.00    +0.000 C 
ATOM     18  C   UNL     1       2.333   2.152  18.225  0.00  0.00    +0.000 C 
ENDBRANCH  16  18
ENDBRANCH   1  16
TORSDOF 3
ENDMDL
MODEL 2
REMARK VINA RESULT:      -6.4      2.825      5.382
REMARK  Name = 
REMARK  3 active torsions:
REMARK  status: ('A' for Active; 'I' for Inactive)
REMARK    1  A    between atoms: C_2  and  C_3
REMARK    2  A    between atoms: C_3  and  N_4
REMARK    3  A    between atoms: C_14  and  S_15
REMARK                            x       y       z     vdW  Elec       q    Type
REMARK                         _______ _______ _______ _____ _____    ______ ____
ROOT
ATOM      1  N   UNL     1       3.792   5.682  18.017  0.00  0.00    +0.000 N 
ATOM      2  C   UNL     1       4.569   5.412  16.900  0.00  0.00    +0.000 A 
ATOM      3  C   UNL     1       5.198   6.268  15.981  0.00  0.00    +0.000 A 
ATOM      4  C   UNL     1       5.929   5.691  14.937  0.00  0.00    +0.000 A 
ATOM      5  C   UNL     1       6.025   4.309  14.805  0.00  0.00    +0.000 A 
ATOM      6  C   UNL     1       5.395   3.462  15.722  0.00  0.00    +0.000 A 
ATOM      7  C   UNL     1       4.658   4.017  16.788  0.00  0.00    +0.000 A 
ATOM      8  C   UNL     1       3.929   3.467  17.873  0.00  0.00    +0.000 A 
ATOM      9  N   UNL     1       3.700   2.184  18.248  0.00  0.00    +0.000 NA
ATOM     10  N   UNL     1       2.969   2.008  19.346  0.00  0.00    +0.000 NA
ATOM     11  C   UNL     1       2.497   3.075  20.044  0.00  0.00    +0.000 A 
ATOM     12  N   UNL     1       2.683   4.378  19.746  0.00  0.00    +0.000 NA
ATOM     13  C   UNL     1       3.417   4.511  18.624  0.00  0.00    +0.000 A 
ENDROOT
BRANCH  11  14
ATOM     14  S   UNL     1       1.532   2.711  21.486  0.00  0.00    +0.000 S 
ATOM     15  H   UNL     1       2.533   2.973  22.335  0.00  0.00    +0.000 HD
ENDBRANCH  11  14
BRANCH   1  16
ATOM     16  C   UNL     1       3.457   7.009  18.521  0.00  0.00    +0.000 C 
BRANCH  16  18
ATOM     17  C   UNL     1       1.957   8.897  17.814  0.00  0.00    +0.000 C 
ATOM     18  C   UNL     1       2.256   7.590  17.832  0.00  0.00    +0.000 C 
ENDBRANCH  16  18
ENDBRANCH   1  16
TORSDOF 3
ENDMDL
MODEL 3
REMARK VINA RESULT:      -6.3      0.831      1.157
REMARK  Name = 
REMARK  3 active torsions:
REMARK  status: ('A' for Active; 'I' for Inactive)
REMARK    1  A    between atoms: C_2  and  C_3
REMARK    2  A    between atoms: C_3  and  N_4
REMARK    3  A    between atoms: C_14  and  S_15
REMARK                            x       y       z     vdW  Elec       q    Type
REMARK                         _______ _______ _______ _____ _____    ______ ____
ROOT
ATOM      1  N   UNL     1       3.130   3.838  17.907  0.00  0.00    +0.000 N 
ATOM      2  C   UNL     1       2.563   4.694  18.840  0.00  0.00    +0.000 A 
ATOM      3  C   UNL     1       1.633   4.460  19.866  0.00  0.00    +0.000 A 
ATOM      4  C   UNL     1       1.242   5.542  20.662  0.00  0.00    +0.000 A 
ATOM      5  C   UNL     1       1.754   6.817  20.441  0.00  0.00    +0.000 A 
ATOM      6  C   UNL     1       2.677   7.045  19.416  0.00  0.00    +0.000 A 
ATOM      7  C   UNL     1       3.094   5.971  18.604  0.00  0.00    +0.000 A 
ATOM      8  C   UNL     1       4.000   5.848  17.520  0.00  0.00    +0.000 A 
ATOM      9  N   UNL     1       4.787   6.760  16.895  0.00  0.00    +0.000 NA
ATOM     10  N   UNL     1       5.544   6.306  15.899  0.00  0.00    +0.000 NA
ATOM     11  C   UNL     1       5.519   4.991  15.552  0.00  0.00    +0.000 A 
ATOM     12  N   UNL     1       4.774   4.022  16.122  0.00  0.00    +0.000 NA
ATOM     13  C   UNL     1       4.016   4.524  17.116  0.00  0.00    +0.000 A 
ENDROOT
BRANCH  11  14
ATOM     14  S   UNL     1       6.569   4.511  14.206  0.00  0.00    +0.000 S 
ATOM     15  H   UNL     1       6.027   5.385  13.349  0.00  0.00    +0.000 HD
ENDBRANCH  11  14
BRANCH   1  16
ATOM     16  C   UNL     1       2.877   2.406  17.800  0.00  0.00    +0.000 C 
BRANCH  16  18
ATOM     17  C   UNL     1       4.370   2.085  19.795  0.00  0.00    +0.000 C 
ATOM     18  C   UNL     1       3.778   1.603  18.692  0.00  0.00    +0.000 C 
ENDBRANCH  16  18
ENDBRANCH   1  16
TORSDOF 3
ENDMDL
MODEL 4
REMARK VINA RESULT:      -6.2      3.347      4.737
REMARK  Name = 
REMARK  3 active torsions:
REMARK  status: ('A' for Active; 'I' for Inactive)
REMARK    1  A    between atoms: C_2  and  C_3
REMARK    2  A    between atoms: C_3  and  N_4
REMARK    3  A    between atoms: C_14  and  S_15
REMARK                            x       y       z     vdW  Elec       q    Type
REMARK                         _______ _______ _______ _____ _____    ______ ____
ROOT
ATOM      1  N   UNL     1       2.762   6.095  19.576  0.00  0.00    +0.000 N 
ATOM      2  C   UNL     1       3.634   5.667  18.585  0.00  0.00    +0.000 A 
ATOM      3  C   UNL     1       4.342   4.464  18.431  0.00  0.00    +0.000 A 
ATOM      4  C   UNL     1       5.159   4.320  17.304  0.00  0.00    +0.000 A 
ATOM      5  C   UNL     1       5.275   5.340  16.366  0.00  0.00    +0.000 A 
ATOM      6  C   UNL     1       4.569   6.537  16.525  0.00  0.00    +0.000 A 
ATOM      7  C   UNL     1       3.733   6.706  17.647  0.00  0.00    +0.000 A 
ATOM      8  C   UNL     1       2.888   7.752  18.098  0.00  0.00    +0.000 A 
ATOM      9  N   UNL     1       2.602   8.970  17.573  0.00  0.00    +0.000 NA
ATOM     10  N   UNL     1       1.740   9.722  18.254  0.00  0.00    +0.000 NA
ATOM     11  C   UNL     1       1.183   9.267  19.408  0.00  0.00    +0.000 A 
ATOM     12  N   UNL     1       1.406   8.072  19.993  0.00  0.00    +0.000 NA
ATOM     13  C   UNL     1       2.290   7.348  19.279  0.00  0.00    +0.000 A 
ENDROOT
BRANCH  11  14
ATOM     14  S   UNL     1       0.055  10.363  20.225  0.00  0.00    +0.000 S 
ATOM     15  H   UNL     1       0.176   9.755  21.411  0.00  0.00    +0.000 HD
ENDBRANCH  11  14
BRANCH   1  16
ATOM     16  C   UNL     1       2.352   5.320  20.742  0.00  0.00    +0.000 C 
BRANCH  16  18
ATOM     17  C   UNL     1       1.193   3.090  20.735  0.00  0.00    +0.000 C 
ATOM     18  C   UNL     1       1.208   4.397  20.434  0.00  0.00    +0.000 C 
ENDBRANCH  16  18
ENDBRANCH   1  16
TORSDOF 3
ENDMDL
MODEL 5
REMARK VINA RESULT:      -6.1      2.917      4.515
REMARK  Name = 
REMARK  3 active torsions:
REMARK  status: ('A' for Active; 'I' for Inactive)
REMARK    1  A    between atoms: C_2  and  C_3
REMARK    2  A    between atoms: C_3  and  N_4
REMARK    3  A    between atoms: C_14  and  S_15
REMARK                            x       y       z     vdW  Elec       q    Type
REMARK                         _______ _______ _______ _____ _____    ______ ____
ROOT
ATOM      1  N   UNL     1       3.561   4.957  18.869  0.00  0.00    +0.000 N 
ATOM      2  C   UNL     1       4.304   4.936  17.698  0.00  0.00    +0.000 A 
ATOM      3  C   UNL     1       5.048   3.911  17.090  0.00  0.00    +0.000 A 
ATOM      4  C   UNL     1       5.701   4.195  15.887  0.00  0.00    +0.000 A 
ATOM      5  C   UNL     1       5.625   5.458  15.308  0.00  0.00    +0.000 A 
ATOM      6  C   UNL     1       4.886   6.475  15.918  0.00  0.00    +0.000 A 
ATOM      7  C   UNL     1       4.211   6.215  17.128  0.00  0.00    +0.000 A 
ATOM      8  C   UNL     1       3.383   6.989  17.981  0.00  0.00    +0.000 A 
ATOM      9  N   UNL     1       2.959   8.275  17.902  0.00  0.00    +0.000 NA
ATOM     10  N   UNL     1       2.164   8.698  18.882  0.00  0.00    +0.000 NA
ATOM     11  C   UNL     1       1.804   7.863  19.894  0.00  0.00    +0.000 A 
ATOM     12  N   UNL     1       2.174   6.575  20.044  0.00  0.00    +0.000 NA
ATOM     13  C   UNL     1       2.984   6.190  19.039  0.00  0.00    +0.000 A 
ENDROOT
BRANCH  11  14
ATOM     14  S   UNL     1       0.746   8.546  21.142  0.00  0.00    +0.000 S 
ATOM     15  H   UNL     1       0.130   9.380  20.295  0.00  0.00    +0.000 HD
ENDBRANCH  11  14
BRANCH   1  16
ATOM     16  C   UNL     1       3.365   3.830  19.773  0.00  0.00    +0.000 C 
BRANCH  16  18
ATOM     17  C   UNL     1       0.963   3.122  19.979  0.00  0.00    +0.000 C 
ATOM     18  C   UNL     1       2.167   3.006  19.400  0.00  0.00    +0.000 C 
ENDBRANCH  16  18
ENDBRANCH   1  16
TORSDOF 3
ENDMDL
MODEL 6
REMARK VINA RESULT:      -6.1      2.080      3.896
REMARK  Name = 
REMARK  3 active torsions:
REMARK  status: ('A' for Active; 'I' for Inactive)
REMARK    1  A    between atoms: C_2  and  C_3
REMARK    2  A    between atoms: C_3  and  N_4
REMARK    3  A    between atoms: C_14  and  S_15
REMARK                            x       y       z     vdW  Elec       q    Type
REMARK                         _______ _______ _______ _____ _____    ______ ____
ROOT
ATOM      1  N   UNL     1       2.830   5.679  18.683  0.00  0.00    +0.000 N 
ATOM      2  C   UNL     1       2.344   4.644  19.468  0.00  0.00    +0.000 A 
ATOM      3  C   UNL     1       1.035   4.308  19.852  0.00  0.00    +0.000 A 
ATOM      4  C   UNL     1       0.854   3.183  20.663  0.00  0.00    +0.000 A 
ATOM      5  C   UNL     1       1.938   2.420  21.086  0.00  0.00    +0.000 A 
ATOM      6  C   UNL     1       3.239   2.760  20.703  0.00  0.00    +0.000 A 
ATOM      7  C   UNL     1       3.449   3.885  19.879  0.00  0.00    +0.000 A 
ATOM      8  C   UNL     1       4.600   4.486  19.307  0.00  0.00    +0.000 A 
ATOM      9  N   UNL     1       5.915   4.159  19.372  0.00  0.00    +0.000 NA
ATOM     10  N   UNL     1       6.754   4.941  18.696  0.00  0.00    +0.000 NA
ATOM     11  C   UNL     1       6.292   6.001  17.981  0.00  0.00    +0.000 A 
ATOM     12  N   UNL     1       5.006   6.390  17.859  0.00  0.00    +0.000 NA
ATOM     13  C   UNL     1       4.193   5.581  18.564  0.00  0.00    +0.000 A 
ENDROOT
BRANCH  11  14
ATOM     14  S   UNL     1       7.509   6.968  17.129  0.00  0.00    +0.000 S 
ATOM     15  H   UNL     1       7.763   6.019  16.220  0.00  0.00    +0.000 HD
ENDBRANCH  11  14
BRANCH   1  16
ATOM     16  C   UNL     1       2.023   6.702  18.027  0.00  0.00    +0.000 C 
BRANCH  16  18
ATOM     17  C   UNL     1       1.800   9.204  18.094  0.00  0.00    +0.000 C 
ATOM     18  C   UNL     1       2.199   8.053  18.656  0.00  0.00    +0.000 C 
ENDBRANCH  16  18
ENDBRANCH   1  16
TORSDOF 3
ENDMDL
MODEL 7
REMARK VINA RESULT:      -6.1      3.261      4.679
REMARK  Name = 
REMARK  3 active torsions:
REMARK  status: ('A' for Active; 'I' for Inactive)
REMARK    1  A    between atoms: C_2  and  C_3
REMARK    2  A    between atoms: C_3  and  N_4
REMARK    3  A    between atoms: C_14  and  S_15
REMARK                            x       y       z     vdW  Elec       q    Type
REMARK                         _______ _______ _______ _____ _____    ______ ____
ROOT
ATOM      1  N   UNL     1       2.863   5.142  19.671  0.00  0.00    +0.000 N 
ATOM      2  C   UNL     1       3.658   4.989  18.544  0.00  0.00    +0.000 A 
ATOM      3  C   UNL     1       4.368   3.881  18.055  0.00  0.00    +0.000 A 
ATOM      4  C   UNL     1       5.093   4.033  16.868  0.00  0.00    +0.000 A 
ATOM      5  C   UNL     1       5.117   5.249  16.193  0.00  0.00    +0.000 A 
ATOM      6  C   UNL     1       4.410   6.350  16.685  0.00  0.00    +0.000 A 
ATOM      7  C   UNL     1       3.665   6.222  17.875  0.00  0.00    +0.000 A 
ATOM      8  C   UNL     1       2.844   7.104  18.623  0.00  0.00    +0.000 A 
ATOM      9  N   UNL     1       2.499   8.401  18.426  0.00  0.00    +0.000 NA
ATOM     10  N   UNL     1       1.685   8.942  19.329  0.00  0.00    +0.000 NA
ATOM     11  C   UNL     1       1.230   8.210  20.381  0.00  0.00    +0.000 A 
ATOM     12  N   UNL     1       1.518   6.919  20.647  0.00  0.00    +0.000 NA
ATOM     13  C   UNL     1       2.350   6.414  19.717  0.00  0.00    +0.000 A 
ENDROOT
BRANCH  11  14
ATOM     14  S   UNL     1       0.156   9.045  21.518  0.00  0.00    +0.000 S 
ATOM     15  H   UNL     1       0.708   8.481  22.599  0.00  0.00    +0.000 HD
ENDBRANCH  11  14
BRANCH   1  16
ATOM     16  C   UNL     1       2.560   4.102  20.647  0.00  0.00    +0.000 C 
BRANCH  16  18
ATOM     17  C   UNL     1       0.799   2.822  19.393  0.00  0.00    +0.000 C 
ATOM     18  C   UNL     1       1.182   3.535  20.462  0.00  0.00    +0.000 C 
ENDBRANCH  16  18
ENDBRANCH   1  16
TORSDOF 3
ENDMDL
MODEL 8
REMARK VINA RESULT:      -6.1      2.930      5.322
REMARK  Name = 
REMARK  3 active torsions:
REMARK  status: ('A' for Active; 'I' for Inactive)
REMARK    1  A    between atoms: C_2  and  C_3
REMARK    2  A    between atoms: C_3  and  N_4
REMARK    3  A    between atoms: C_14  and  S_15
REMARK                            x       y       z     vdW  Elec       q    Type
REMARK                         _______ _______ _______ _____ _____    ______ ____
ROOT
ATOM      1  N   UNL     1       3.362   5.539  17.980  0.00  0.00    +0.000 N 
ATOM      2  C   UNL     1       4.556   5.553  17.274  0.00  0.00    +0.000 A 
ATOM      3  C   UNL     1       5.014   6.392  16.245  0.00  0.00    +0.000 A 
ATOM      4  C   UNL     1       6.289   6.157  15.720  0.00  0.00    +0.000 A 
ATOM      5  C   UNL     1       7.081   5.116  16.196  0.00  0.00    +0.000 A 
ATOM      6  C   UNL     1       6.619   4.282  17.218  0.00  0.00    +0.000 A 
ATOM      7  C   UNL     1       5.341   4.502  17.771  0.00  0.00    +0.000 A 
ATOM      8  C   UNL     1       4.591   3.875  18.798  0.00  0.00    +0.000 A 
ATOM      9  N   UNL     1       4.873   2.825  19.610  0.00  0.00    +0.000 NA
ATOM     10  N   UNL     1       3.937   2.490  20.494  0.00  0.00    +0.000 NA
ATOM     11  C   UNL     1       2.770   3.185  20.566  0.00  0.00    +0.000 A 
ATOM     12  N   UNL     1       2.413   4.240  19.806  0.00  0.00    +0.000 NA
ATOM     13  C   UNL     1       3.382   4.540  18.919  0.00  0.00    +0.000 A 
ENDROOT
BRANCH  11  14
ATOM     14  S   UNL     1       1.601   2.639  21.782  0.00  0.00    +0.000 S 
ATOM     15  H   UNL     1       1.569   3.816  22.416  0.00  0.00    +0.000 HD
ENDBRANCH  11  14
BRANCH   1  16
ATOM     16  C   UNL     1       2.258   6.475  17.804  0.00  0.00    +0.000 C 
BRANCH  16  18
ATOM     17  C   UNL     1       2.035   8.978  17.854  0.00  0.00    +0.000 C 
ATOM     18  C   UNL     1       2.591   7.848  18.314  0.00  0.00    +0.000 C 
ENDBRANCH  16  18
ENDBRANCH   1  16
TORSDOF 3
ENDMDL
MODEL 9
REMARK VINA RESULT:      -6.0      1.940      4.018
REMARK  Name = 
REMARK  3 active torsions:
REMARK  status: ('A' for Active; 'I' for Inactive)
REMARK    1  A    between atoms: C_2  and  C_3
REMARK    2  A    between atoms: C_3  and  N_4
REMARK    3  A    between atoms: C_14  and  S_15
REMARK                            x       y       z     vdW  Elec       q    Type
REMARK                         _______ _______ _______ _____ _____    ______ ____
ROOT
ATOM      1  N   UNL     1       3.283   5.926  18.502  0.00  0.00    +0.000 N 
ATOM      2  C   UNL     1       2.777   4.639  18.394  0.00  0.00    +0.000 A 
ATOM      3  C   UNL     1       1.500   4.119  18.663  0.00  0.00    +0.000 A 
ATOM      4  C   UNL     1       1.286   2.753  18.453  0.00  0.00    +0.000 A 
ATOM      5  C   UNL     1       2.309   1.928  17.998  0.00  0.00    +0.000 A 
ATOM      6  C   UNL     1       3.579   2.449  17.734  0.00  0.00    +0.000 A 
ATOM      7  C   UNL     1       3.820   3.824  17.930  0.00  0.00    +0.000 A 
ATOM      8  C   UNL     1       4.951   4.662  17.751  0.00  0.00    +0.000 A 
ATOM      9  N   UNL     1       6.209   4.398  17.316  0.00  0.00    +0.000 NA
ATOM     10  N   UNL     1       7.043   5.433  17.252  0.00  0.00    +0.000 NA
ATOM     11  C   UNL     1       6.629   6.680  17.603  0.00  0.00    +0.000 A 
ATOM     12  N   UNL     1       5.401   7.029  18.037  0.00  0.00    +0.000 NA
ATOM     13  C   UNL     1       4.592   5.953  18.096  0.00  0.00    +0.000 A 
ENDROOT
BRANCH  11  14
ATOM     14  S   UNL     1       7.835   7.974  17.480  0.00  0.00    +0.000 S 
ATOM     15  H   UNL     1       7.230   8.752  18.386  0.00  0.00    +0.000 HD
ENDBRANCH  11  14
BRANCH   1  16
ATOM     16  C   UNL     1       2.534   7.102  18.930  0.00  0.00    +0.000 C 
BRANCH  16  18
ATOM     17  C   UNL     1       1.635   9.214  17.907  0.00  0.00    +0.000 C 
ATOM     18  C   UNL     1       2.160   7.987  17.776  0.00  0.00    +0.000 C 
ENDBRANCH  16  18
ENDBRANCH   1  16
TORSDOF 3
ENDMDL
