MODEL 1
REMARK VINA RESULT:      -8.6      0.000      0.000
REMARK  Name = 
REMARK  5 active torsions:
REMARK  status: ('A' for Active; 'I' for Inactive)
REMARK    1  A    between atoms: C_1  and  C_2
REMARK    2  A    between atoms: C_5  and  C_6
REMARK    3  A    between atoms: C_12  and  C_13
REMARK    4  A    between atoms: N_15  and  N_16
REMARK    5  A    between atoms: C_17  and  C_19
REMARK                            x       y       z     vdW  Elec       q    Type
REMARK                         _______ _______ _______ _____ _____    ______ ____
ROOT
ATOM      1  C   UNL     1       2.417   6.604  19.668  0.00  0.00    +0.000 C 
ATOM      2  O   UNL     1       2.450   7.436  18.761  0.00  0.00    +0.000 OA
ATOM      3  N   UNL     1       1.975   6.959  20.929  0.00  0.00    +0.000 N 
ATOM      4  H   UNL     1       2.037   6.372  21.756  0.00  0.00    +0.000 HD
ENDROOT
BRANCH   1  10
ATOM      5  C   UNL     1       0.816   3.742  20.257  0.00  0.00    +0.000 C 
ATOM      6  C   UNL     1       2.160   4.075  19.743  0.00  0.00    +0.000 A 
ATOM      7  O   UNL     1       2.910   3.010  19.369  0.00  0.00    +0.000 OA
ATOM      8  N   UNL     1       4.123   3.435  18.893  0.00  0.00    +0.000 NA
ATOM      9  C   UNL     1       4.126   4.777  18.982  0.00  0.00    +0.000 A 
ATOM     10  C   UNL     1       2.866   5.239  19.498  0.00  0.00    +0.000 A 
BRANCH   9  11
ATOM     11  C   UNL     1       5.328   5.532  18.609  0.00  0.00    +0.000 A 
ATOM     12  C   UNL     1       5.314   6.378  17.488  0.00  0.00    +0.000 A 
ATOM     13  C   UNL     1       6.459   7.087  17.113  0.00  0.00    +0.000 A 
ATOM     14  C   UNL     1       7.632   6.962  17.854  0.00  0.00    +0.000 A 
ATOM     15  C   UNL     1       7.667   6.117  18.959  0.00  0.00    +0.000 A 
ATOM     16  C   UNL     1       6.526   5.397  19.326  0.00  0.00    +0.000 A 
ENDBRANCH   9  11
ENDBRANCH   1  10
BRANCH   3  17
ATOM     17  N   UNL     1       1.636   8.301  21.141  0.00  0.00    +0.000 N 
ATOM     18  C   UNL     1       0.338   8.623  21.475  0.00  0.00    +0.000 C 
ATOM     19  O   UNL     1      -0.542   7.783  21.619  0.00  0.00    +0.000 OA
ATOM     20  H   UNL     1       2.414   8.960  21.176  0.00  0.00    +0.000 HD
BRANCH  18  21
ATOM     21  C   UNL     1       0.074  10.076  21.684  0.00  0.00    +0.000 A 
ATOM     22  C   UNL     1      -0.782  10.528  22.699  0.00  0.00    +0.000 A 
ATOM     23  C   UNL     1      -1.020  11.894  22.857  0.00  0.00    +0.000 A 
ATOM     24  C   UNL     1      -0.401  12.813  22.010  0.00  0.00    +0.000 A 
ATOM     25  C   UNL     1       0.466  12.369  21.012  0.00  0.00    +0.000 A 
ATOM     26  C   UNL     1       0.709  11.003  20.851  0.00  0.00    +0.000 A 
ENDBRANCH  18  21
ENDBRANCH   3  17
TORSDOF 4
ENDMDL
MODEL 2
REMARK VINA RESULT:      -8.3      1.225      1.419
REMARK  Name = 
REMARK  5 active torsions:
REMARK  status: ('A' for Active; 'I' for Inactive)
REMARK    1  A    between atoms: C_1  and  C_2
REMARK    2  A    between atoms: C_5  and  C_6
REMARK    3  A    between atoms: C_12  and  C_13
REMARK    4  A    between atoms: N_15  and  N_16
REMARK    5  A    between atoms: C_17  and  C_19
REMARK                            x       y       z     vdW  Elec       q    Type
REMARK                         _______ _______ _______ _____ _____    ______ ____
ROOT
ATOM      1  C   UNL     1       2.501   5.833  19.253  0.00  0.00    +0.000 C 
ATOM      2  O   UNL     1       2.002   6.001  18.140  0.00  0.00    +0.000 OA
ATOM      3  N   UNL     1       2.370   6.798  20.233  0.00  0.00    +0.000 N 
ATOM      4  H   UNL     1       2.855   6.792  21.127  0.00  0.00    +0.000 HD
ENDROOT
BRANCH   1  10
ATOM      5  C   UNL     1       1.576   3.052  20.839  0.00  0.00    +0.000 C 
ATOM      6  C   UNL     1       2.846   3.516  20.246  0.00  0.00    +0.000 A 
ATOM      7  O   UNL     1       3.861   2.619  20.291  0.00  0.00    +0.000 OA
ATOM      8  N   UNL     1       4.978   3.146  19.699  0.00  0.00    +0.000 NA
ATOM      9  C   UNL     1       4.654   4.386  19.291  0.00  0.00    +0.000 A 
ATOM     10  C   UNL     1       3.275   4.659  19.596  0.00  0.00    +0.000 A 
BRANCH   9  11
ATOM     11  C   UNL     1       5.673   5.243  18.674  0.00  0.00    +0.000 A 
ATOM     12  C   UNL     1       5.479   5.756  17.381  0.00  0.00    +0.000 A 
ATOM     13  C   UNL     1       6.452   6.558  16.776  0.00  0.00    +0.000 A 
ATOM     14  C   UNL     1       7.630   6.859  17.456  0.00  0.00    +0.000 A 
ATOM     15  C   UNL     1       7.843   6.347  18.733  0.00  0.00    +0.000 A 
ATOM     16  C   UNL     1       6.877   5.534  19.331  0.00  0.00    +0.000 A 
ENDBRANCH   9  11
ENDBRANCH   1  10
BRANCH   3  17
ATOM     17  N   UNL     1       1.714   7.985  19.887  0.00  0.00    +0.000 N 
ATOM     18  C   UNL     1       1.151   8.758  20.881  0.00  0.00    +0.000 C 
ATOM     19  O   UNL     1       1.214   8.466  22.069  0.00  0.00    +0.000 OA
ATOM     20  H   UNL     1       1.816   8.288  18.919  0.00  0.00    +0.000 HD
BRANCH  18  21
ATOM     21  C   UNL     1       0.477  10.004  20.416  0.00  0.00    +0.000 A 
ATOM     22  C   UNL     1       0.305  11.106  21.266  0.00  0.00    +0.000 A 
ATOM     23  C   UNL     1      -0.344  12.252  20.804  0.00  0.00    +0.000 A 
ATOM     24  C   UNL     1      -0.816  12.307  19.494  0.00  0.00    +0.000 A 
ATOM     25  C   UNL     1      -0.630  11.221  18.638  0.00  0.00    +0.000 A 
ATOM     26  C   UNL     1       0.021  10.072  19.095  0.00  0.00    +0.000 A 
ENDBRANCH  18  21
ENDBRANCH   3  17
TORSDOF 4
ENDMDL
MODEL 3
REMARK VINA RESULT:      -8.3      1.266      1.803
REMARK  Name = 
REMARK  5 active torsions:
REMARK  status: ('A' for Active; 'I' for Inactive)
REMARK    1  A    between atoms: C_1  and  C_2
REMARK    2  A    between atoms: C_5  and  C_6
REMARK    3  A    between atoms: C_12  and  C_13
REMARK    4  A    between atoms: N_15  and  N_16
REMARK    5  A    between atoms: C_17  and  C_19
REMARK                            x       y       z     vdW  Elec       q    Type
REMARK                         _______ _______ _______ _____ _____    ______ ____
ROOT
ATOM      1  C   UNL     1       2.502   5.788  19.269  0.00  0.00    +0.000 C 
ATOM      2  O   UNL     1       1.931   5.913  18.185  0.00  0.00    +0.000 OA
ATOM      3  N   UNL     1       2.480   6.813  20.196  0.00  0.00    +0.000 N 
ATOM      4  H   UNL     1       3.027   6.838  21.052  0.00  0.00    +0.000 HD
ENDROOT
BRANCH   1  10
ATOM      5  C   UNL     1       1.532   3.068  20.932  0.00  0.00    +0.000 C 
ATOM      6  C   UNL     1       2.804   3.487  20.310  0.00  0.00    +0.000 A 
ATOM      7  O   UNL     1       3.798   2.566  20.362  0.00  0.00    +0.000 OA
ATOM      8  N   UNL     1       4.919   3.052  19.743  0.00  0.00    +0.000 NA
ATOM      9  C   UNL     1       4.619   4.289  19.311  0.00  0.00    +0.000 A 
ATOM     10  C   UNL     1       3.252   4.603  19.629  0.00  0.00    +0.000 A 
BRANCH   9  11
ATOM     11  C   UNL     1       5.650   5.107  18.660  0.00  0.00    +0.000 A 
ATOM     12  C   UNL     1       6.799   5.494  19.368  0.00  0.00    +0.000 A 
ATOM     13  C   UNL     1       7.778   6.289  18.763  0.00  0.00    +0.000 A 
ATOM     14  C   UNL     1       7.623   6.705  17.443  0.00  0.00    +0.000 A 
ATOM     15  C   UNL     1       6.482   6.341  16.732  0.00  0.00    +0.000 A 
ATOM     16  C   UNL     1       5.497   5.559  17.342  0.00  0.00    +0.000 A 
ENDBRANCH   9  11
ENDBRANCH   1  10
BRANCH   3  17
ATOM     17  N   UNL     1       1.848   8.006  19.825  0.00  0.00    +0.000 N 
ATOM     18  C   UNL     1       1.187   8.745  20.783  0.00  0.00    +0.000 C 
ATOM     19  O   UNL     1       1.141   8.418  21.963  0.00  0.00    +0.000 OA
ATOM     20  H   UNL     1       2.037   8.338  18.880  0.00  0.00    +0.000 HD
BRANCH  18  21
ATOM     21  C   UNL     1       0.548   9.999  20.294  0.00  0.00    +0.000 A 
ATOM     22  C   UNL     1       0.725  11.221  20.960  0.00  0.00    +0.000 A 
ATOM     23  C   UNL     1       0.099  12.375  20.484  0.00  0.00    +0.000 A 
ATOM     24  C   UNL     1      -0.697  12.316  19.341  0.00  0.00    +0.000 A 
ATOM     25  C   UNL     1      -0.860  11.108  18.664  0.00  0.00    +0.000 A 
ATOM     26  C   UNL     1      -0.235   9.951  19.135  0.00  0.00    +0.000 A 
ENDBRANCH  18  21
ENDBRANCH   3  17
TORSDOF 4
ENDMDL
MODEL 4
REMARK VINA RESULT:      -8.2      1.213      1.810
REMARK  Name = 
REMARK  5 active torsions:
REMARK  status: ('A' for Active; 'I' for Inactive)
REMARK    1  A    between atoms: C_1  and  C_2
REMARK    2  A    between atoms: C_5  and  C_6
REMARK    3  A    between atoms: C_12  and  C_13
REMARK    4  A    between atoms: N_15  and  N_16
REMARK    5  A    between atoms: C_17  and  C_19
REMARK                            x       y       z     vdW  Elec       q    Type
REMARK                         _______ _______ _______ _____ _____    ______ ____
ROOT
ATOM      1  C   UNL     1       2.438   5.858  19.295  0.00  0.00    +0.000 C 
ATOM      2  O   UNL     1       1.896   5.994  18.198  0.00  0.00    +0.000 OA
ATOM      3  N   UNL     1       2.354   6.856  20.247  0.00  0.00    +0.000 N 
ATOM      4  H   UNL     1       2.874   6.876  21.121  0.00  0.00    +0.000 HD
ENDROOT
BRANCH   1  10
ATOM      5  C   UNL     1       1.544   3.122  20.974  0.00  0.00    +0.000 C 
ATOM      6  C   UNL     1       2.800   3.565  20.335  0.00  0.00    +0.000 A 
ATOM      7  O   UNL     1       3.812   2.665  20.375  0.00  0.00    +0.000 OA
ATOM      8  N   UNL     1       4.915   3.172  19.741  0.00  0.00    +0.000 NA
ATOM      9  C   UNL     1       4.585   4.402  19.312  0.00  0.00    +0.000 A 
ATOM     10  C   UNL     1       3.216   4.690  19.646  0.00  0.00    +0.000 A 
BRANCH   9  11
ATOM     11  C   UNL     1       5.591   5.239  18.646  0.00  0.00    +0.000 A 
ATOM     12  C   UNL     1       6.818   5.506  19.274  0.00  0.00    +0.000 A 
ATOM     13  C   UNL     1       7.776   6.317  18.657  0.00  0.00    +0.000 A 
ATOM     14  C   UNL     1       7.520   6.871  17.404  0.00  0.00    +0.000 A 
ATOM     15  C   UNL     1       6.302   6.628  16.776  0.00  0.00    +0.000 A 
ATOM     16  C   UNL     1       5.339   5.828  17.399  0.00  0.00    +0.000 A 
ENDBRANCH   9  11
ENDBRANCH   1  10
BRANCH   3  17
ATOM     17  N   UNL     1       1.694   8.038  19.889  0.00  0.00    +0.000 N 
ATOM     18  C   UNL     1       1.135   8.824  20.874  0.00  0.00    +0.000 C 
ATOM     19  O   UNL     1       1.206   8.549  22.066  0.00  0.00    +0.000 OA
ATOM     20  H   UNL     1       1.789   8.327  18.915  0.00  0.00    +0.000 HD
BRANCH  18  21
ATOM     21  C   UNL     1       0.456  10.062  20.396  0.00  0.00    +0.000 A 
ATOM     22  C   UNL     1      -0.334  10.065  19.237  0.00  0.00    +0.000 A 
ATOM     23  C   UNL     1      -0.943  11.245  18.809  0.00  0.00    +0.000 A 
ATOM     24  C   UNL     1      -0.774  12.422  19.536  0.00  0.00    +0.000 A 
ATOM     25  C   UNL     1      -0.006  12.420  20.700  0.00  0.00    +0.000 A 
ATOM     26  C   UNL     1       0.605  11.240  21.135  0.00  0.00    +0.000 A 
ENDBRANCH  18  21
ENDBRANCH   3  17
TORSDOF 4
ENDMDL
MODEL 5
REMARK VINA RESULT:      -8.1      2.255      4.216
REMARK  Name = 
REMARK  5 active torsions:
REMARK  status: ('A' for Active; 'I' for Inactive)
REMARK    1  A    between atoms: C_1  and  C_2
REMARK    2  A    between atoms: C_5  and  C_6
REMARK    3  A    between atoms: C_12  and  C_13
REMARK    4  A    between atoms: N_15  and  N_16
REMARK    5  A    between atoms: C_17  and  C_19
REMARK                            x       y       z     vdW  Elec       q    Type
REMARK                         _______ _______ _______ _____ _____    ______ ____
ROOT
ATOM      1  C   UNL     1       3.798   6.871  17.869  0.00  0.00    +0.000 C 
ATOM      2  O   UNL     1       3.835   7.391  16.754  0.00  0.00    +0.000 OA
ATOM      3  N   UNL     1       2.885   7.302  18.813  0.00  0.00    +0.000 N 
ATOM      4  H   UNL     1       2.875   7.015  19.789  0.00  0.00    +0.000 HD
ENDROOT
BRANCH   1  10
ATOM      5  C   UNL     1       7.120   6.727  17.647  0.00  0.00    +0.000 C 
ATOM      6  C   UNL     1       6.090   5.812  18.179  0.00  0.00    +0.000 A 
ATOM      7  O   UNL     1       6.570   4.685  18.759  0.00  0.00    +0.000 OA
ATOM      8  N   UNL     1       5.533   3.923  19.231  0.00  0.00    +0.000 NA
ATOM      9  C   UNL     1       4.400   4.582  18.932  0.00  0.00    +0.000 A 
ATOM     10  C   UNL     1       4.711   5.824  18.278  0.00  0.00    +0.000 A 
BRANCH   9  11
ATOM     11  C   UNL     1       3.099   3.982  19.251  0.00  0.00    +0.000 A 
ATOM     12  C   UNL     1       2.376   3.293  18.263  0.00  0.00    +0.000 A 
ATOM     13  C   UNL     1       1.126   2.734  18.552  0.00  0.00    +0.000 A 
ATOM     14  C   UNL     1       0.585   2.853  19.830  0.00  0.00    +0.000 A 
ATOM     15  C   UNL     1       1.283   3.545  20.815  0.00  0.00    +0.000 A 
ATOM     16  C   UNL     1       2.525   4.116  20.523  0.00  0.00    +0.000 A 
ENDBRANCH   9  11
ENDBRANCH   1  10
BRANCH   3  17
ATOM     17  N   UNL     1       2.064   8.383  18.473  0.00  0.00    +0.000 N 
ATOM     18  C   UNL     1       1.327   9.007  19.457  0.00  0.00    +0.000 C 
ATOM     19  O   UNL     1       1.370   8.672  20.634  0.00  0.00    +0.000 OA
ATOM     20  H   UNL     1       2.169   8.744  17.525  0.00  0.00    +0.000 HD
BRANCH  18  21
ATOM     21  C   UNL     1       0.486  10.149  18.999  0.00  0.00    +0.000 A 
ATOM     22  C   UNL     1      -0.756   9.943  18.380  0.00  0.00    +0.000 A 
ATOM     23  C   UNL     1      -1.512  11.035  17.949  0.00  0.00    +0.000 A 
ATOM     24  C   UNL     1      -1.037  12.332  18.139  0.00  0.00    +0.000 A 
ATOM     25  C   UNL     1       0.188  12.542  18.772  0.00  0.00    +0.000 A 
ATOM     26  C   UNL     1       0.947  11.453  19.207  0.00  0.00    +0.000 A 
ENDBRANCH  18  21
ENDBRANCH   3  17
TORSDOF 4
ENDMDL
MODEL 6
REMARK VINA RESULT:      -8.1      2.278      4.330
REMARK  Name = 
REMARK  5 active torsions:
REMARK  status: ('A' for Active; 'I' for Inactive)
REMARK    1  A    between atoms: C_1  and  C_2
REMARK    2  A    between atoms: C_5  and  C_6
REMARK    3  A    between atoms: C_12  and  C_13
REMARK    4  A    between atoms: N_15  and  N_16
REMARK    5  A    between atoms: C_17  and  C_19
REMARK                            x       y       z     vdW  Elec       q    Type
REMARK                         _______ _______ _______ _____ _____    ______ ____
ROOT
ATOM      1  C   UNL     1       3.859   6.874  17.869  0.00  0.00    +0.000 C 
ATOM      2  O   UNL     1       3.947   7.435  16.776  0.00  0.00    +0.000 OA
ATOM      3  N   UNL     1       2.913   7.280  18.791  0.00  0.00    +0.000 N 
ATOM      4  H   UNL     1       2.859   6.957  19.753  0.00  0.00    +0.000 HD
ENDROOT
BRANCH   1  10
ATOM      5  C   UNL     1       7.177   6.648  17.661  0.00  0.00    +0.000 C 
ATOM      6  C   UNL     1       6.122   5.756  18.182  0.00  0.00    +0.000 A 
ATOM      7  O   UNL     1       6.571   4.613  18.756  0.00  0.00    +0.000 OA
ATOM      8  N   UNL     1       5.513   3.874  19.218  0.00  0.00    +0.000 NA
ATOM      9  C   UNL     1       4.398   4.564  18.918  0.00  0.00    +0.000 A 
ATOM     10  C   UNL     1       4.743   5.802  18.275  0.00  0.00    +0.000 A 
BRANCH   9  11
ATOM     11  C   UNL     1       3.081   3.994  19.227  0.00  0.00    +0.000 A 
ATOM     12  C   UNL     1       2.539   4.119  20.516  0.00  0.00    +0.000 A 
ATOM     13  C   UNL     1       1.293   3.564  20.825  0.00  0.00    +0.000 A 
ATOM     14  C   UNL     1       0.573   2.878  19.850  0.00  0.00    +0.000 A 
ATOM     15  C   UNL     1       1.102   2.733  18.571  0.00  0.00    +0.000 A 
ATOM     16  C   UNL     1       2.354   3.276  18.266  0.00  0.00    +0.000 A 
ENDBRANCH   9  11
ENDBRANCH   1  10
BRANCH   3  17
ATOM     17  N   UNL     1       2.118   8.383  18.458  0.00  0.00    +0.000 N 
ATOM     18  C   UNL     1       1.350   8.981  19.435  0.00  0.00    +0.000 C 
ATOM     19  O   UNL     1       1.344   8.604  20.600  0.00  0.00    +0.000 OA
ATOM     20  H   UNL     1       2.264   8.777  17.529  0.00  0.00    +0.000 HD
BRANCH  18  21
ATOM     21  C   UNL     1       0.540  10.149  18.986  0.00  0.00    +0.000 A 
ATOM     22  C   UNL     1       1.014  11.463  19.113  0.00  0.00    +0.000 A 
ATOM     23  C   UNL     1       0.223  12.535  18.697  0.00  0.00    +0.000 A 
ATOM     24  C   UNL     1      -1.036  12.302  18.147  0.00  0.00    +0.000 A 
ATOM     25  C   UNL     1      -1.503  10.996  18.000  0.00  0.00    +0.000 A 
ATOM     26  C   UNL     1      -0.715   9.919  18.413  0.00  0.00    +0.000 A 
ENDBRANCH  18  21
ENDBRANCH   3  17
TORSDOF 4
ENDMDL
MODEL 7
REMARK VINA RESULT:      -8.1      1.383      1.946
REMARK  Name = 
REMARK  5 active torsions:
REMARK  status: ('A' for Active; 'I' for Inactive)
REMARK    1  A    between atoms: C_1  and  C_2
REMARK    2  A    between atoms: C_5  and  C_6
REMARK    3  A    between atoms: C_12  and  C_13
REMARK    4  A    between atoms: N_15  and  N_16
REMARK    5  A    between atoms: C_17  and  C_19
REMARK                            x       y       z     vdW  Elec       q    Type
REMARK                         _______ _______ _______ _____ _____    ______ ____
ROOT
ATOM      1  C   UNL     1       2.798   5.097  19.853  0.00  0.00    +0.000 C 
ATOM      2  O   UNL     1       2.580   4.843  21.039  0.00  0.00    +0.000 OA
ATOM      3  N   UNL     1       2.493   6.342  19.336  0.00  0.00    +0.000 N 
ATOM      4  H   UNL     1       2.524   6.588  18.350  0.00  0.00    +0.000 HD
ENDROOT
BRANCH   1  10
ATOM      5  C   UNL     1       1.571   2.151  18.894  0.00  0.00    +0.000 C 
ATOM      6  C   UNL     1       2.787   2.915  18.547  0.00  0.00    +0.000 A 
ATOM      7  O   UNL     1       3.567   2.348  17.595  0.00  0.00    +0.000 OA
ATOM      8  N   UNL     1       4.651   3.146  17.341  0.00  0.00    +0.000 NA
ATOM      9  C   UNL     1       4.544   4.214  18.151  0.00  0.00    +0.000 A 
ATOM     10  C   UNL     1       3.339   4.124  18.929  0.00  0.00    +0.000 A 
BRANCH   9  11
ATOM     11  C   UNL     1       5.604   5.231  18.163  0.00  0.00    +0.000 A 
ATOM     12  C   UNL     1       5.571   6.299  17.253  0.00  0.00    +0.000 A 
ATOM     13  C   UNL     1       6.585   7.262  17.244  0.00  0.00    +0.000 A 
ATOM     14  C   UNL     1       7.642   7.172  18.146  0.00  0.00    +0.000 A 
ATOM     15  C   UNL     1       7.696   6.111  19.046  0.00  0.00    +0.000 A 
ATOM     16  C   UNL     1       6.690   5.140  19.045  0.00  0.00    +0.000 A 
ENDBRANCH   9  11
ENDBRANCH   1  10
BRANCH   3  17
ATOM     17  N   UNL     1       1.873   7.262  20.189  0.00  0.00    +0.000 N 
ATOM     18  C   UNL     1       1.516   8.501  19.700  0.00  0.00    +0.000 C 
ATOM     19  O   UNL     1       1.696   8.834  18.535  0.00  0.00    +0.000 OA
ATOM     20  H   UNL     1       1.587   6.906  21.101  0.00  0.00    +0.000 HD
BRANCH  18  21
ATOM     21  C   UNL     1       0.859   9.411  20.681  0.00  0.00    +0.000 A 
ATOM     22  C   UNL     1       0.518  10.729  20.345  0.00  0.00    +0.000 A 
ATOM     23  C   UNL     1      -0.081  11.560  21.294  0.00  0.00    +0.000 A 
ATOM     24  C   UNL     1      -0.350  11.078  22.574  0.00  0.00    +0.000 A 
ATOM     25  C   UNL     1      -0.030   9.762  22.906  0.00  0.00    +0.000 A 
ATOM     26  C   UNL     1       0.568   8.926  21.961  0.00  0.00    +0.000 A 
ENDBRANCH  18  21
ENDBRANCH   3  17
TORSDOF 4
ENDMDL
MODEL 8
REMARK VINA RESULT:      -8.1      1.428      2.046
REMARK  Name = 
REMARK  5 active torsions:
REMARK  status: ('A' for Active; 'I' for Inactive)
REMARK    1  A    between atoms: C_1  and  C_2
REMARK    2  A    between atoms: C_5  and  C_6
REMARK    3  A    between atoms: C_12  and  C_13
REMARK    4  A    between atoms: N_15  and  N_16
REMARK    5  A    between atoms: C_17  and  C_19
REMARK                            x       y       z     vdW  Elec       q    Type
REMARK                         _______ _______ _______ _____ _____    ______ ____
ROOT
ATOM      1  C   UNL     1       2.893   5.230  19.656  0.00  0.00    +0.000 C 
ATOM      2  O   UNL     1       2.650   4.919  20.822  0.00  0.00    +0.000 OA
ATOM      3  N   UNL     1       2.633   6.509  19.202  0.00  0.00    +0.000 N 
ATOM      4  H   UNL     1       2.686   6.807  18.232  0.00  0.00    +0.000 HD
ENDROOT
BRANCH   1  10
ATOM      5  C   UNL     1       1.588   2.386  18.509  0.00  0.00    +0.000 C 
ATOM      6  C   UNL     1       2.834   3.126  18.228  0.00  0.00    +0.000 A 
ATOM      7  O   UNL     1       3.614   2.586  17.258  0.00  0.00    +0.000 OA
ATOM      8  N   UNL     1       4.729   3.360  17.069  0.00  0.00    +0.000 NA
ATOM      9  C   UNL     1       4.642   4.384  17.936  0.00  0.00    +0.000 A 
ATOM     10  C   UNL     1       3.419   4.292  18.687  0.00  0.00    +0.000 A 
BRANCH   9  11
ATOM     11  C   UNL     1       5.734   5.361  18.025  0.00  0.00    +0.000 A 
ATOM     12  C   UNL     1       6.772   5.181  18.954  0.00  0.00    +0.000 A 
ATOM     13  C   UNL     1       7.806   6.116  19.060  0.00  0.00    +0.000 A 
ATOM     14  C   UNL     1       7.819   7.241  18.238  0.00  0.00    +0.000 A 
ATOM     15  C   UNL     1       6.790   7.440  17.322  0.00  0.00    +0.000 A 
ATOM     16  C   UNL     1       5.749   6.513  17.226  0.00  0.00    +0.000 A 
ENDBRANCH   9  11
ENDBRANCH   1  10
BRANCH   3  17
ATOM     17  N   UNL     1       2.028   7.401  20.096  0.00  0.00    +0.000 N 
ATOM     18  C   UNL     1       1.473   8.567  19.613  0.00  0.00    +0.000 C 
ATOM     19  O   UNL     1       1.464   8.857  18.423  0.00  0.00    +0.000 OA
ATOM     20  H   UNL     1       1.903   7.064  21.050  0.00  0.00    +0.000 HD
BRANCH  18  21
ATOM     21  C   UNL     1       0.849   9.451  20.638  0.00  0.00    +0.000 A 
ATOM     22  C   UNL     1       0.500   8.968  21.908  0.00  0.00    +0.000 A 
ATOM     23  C   UNL     1      -0.097   9.819  22.840  0.00  0.00    +0.000 A 
ATOM     24  C   UNL     1      -0.339  11.153  22.513  0.00  0.00    +0.000 A 
ATOM     25  C   UNL     1       0.024  11.642  21.259  0.00  0.00    +0.000 A 
ATOM     26  C   UNL     1       0.623  10.795  20.323  0.00  0.00    +0.000 A 
ENDBRANCH  18  21
ENDBRANCH   3  17
TORSDOF 4
ENDMDL
MODEL 9
REMARK VINA RESULT:      -8.0      1.377      1.653
REMARK  Name = 
REMARK  5 active torsions:
REMARK  status: ('A' for Active; 'I' for Inactive)
REMARK    1  A    between atoms: C_1  and  C_2
REMARK    2  A    between atoms: C_5  and  C_6
REMARK    3  A    between atoms: C_12  and  C_13
REMARK    4  A    between atoms: N_15  and  N_16
REMARK    5  A    between atoms: C_17  and  C_19
REMARK                            x       y       z     vdW  Elec       q    Type
REMARK                         _______ _______ _______ _____ _____    ______ ____
ROOT
ATOM      1  C   UNL     1       2.694   5.573  19.614  0.00  0.00    +0.000 C 
ATOM      2  O   UNL     1       2.468   5.340  20.802  0.00  0.00    +0.000 OA
ATOM      3  N   UNL     1       2.456   6.829  19.089  0.00  0.00    +0.000 N 
ATOM      4  H   UNL     1       2.495   7.066  18.101  0.00  0.00    +0.000 HD
ENDROOT
BRANCH   1  10
ATOM      5  C   UNL     1       1.209   2.800  18.515  0.00  0.00    +0.000 C 
ATOM      6  C   UNL     1       2.518   3.432  18.253  0.00  0.00    +0.000 A 
ATOM      7  O   UNL     1       3.283   2.802  17.329  0.00  0.00    +0.000 OA
ATOM      8  N   UNL     1       4.460   3.482  17.153  0.00  0.00    +0.000 NA
ATOM      9  C   UNL     1       4.426   4.538  17.984  0.00  0.00    +0.000 A 
ATOM     10  C   UNL     1       3.176   4.565  18.694  0.00  0.00    +0.000 A 
BRANCH   9  11
ATOM     11  C   UNL     1       5.587   5.432  18.079  0.00  0.00    +0.000 A 
ATOM     12  C   UNL     1       5.678   6.564  17.254  0.00  0.00    +0.000 A 
ATOM     13  C   UNL     1       6.789   7.412  17.324  0.00  0.00    +0.000 A 
ATOM     14  C   UNL     1       7.820   7.139  18.219  0.00  0.00    +0.000 A 
ATOM     15  C   UNL     1       7.751   6.012  19.034  0.00  0.00    +0.000 A 
ATOM     16  C   UNL     1       6.647   5.158  18.954  0.00  0.00    +0.000 A 
ENDBRANCH   9  11
ENDBRANCH   1  10
BRANCH   3  17
ATOM     17  N   UNL     1       1.891   7.789  19.938  0.00  0.00    +0.000 N 
ATOM     18  C   UNL     1       1.322   8.920  19.393  0.00  0.00    +0.000 C 
ATOM     19  O   UNL     1       1.266   9.123  18.186  0.00  0.00    +0.000 OA
ATOM     20  H   UNL     1       1.804   7.523  20.919  0.00  0.00    +0.000 HD
BRANCH  18  21
ATOM     21  C   UNL     1       0.745   9.882  20.375  0.00  0.00    +0.000 A 
ATOM     22  C   UNL     1       0.151   9.444  21.568  0.00  0.00    +0.000 A 
ATOM     23  C   UNL     1      -0.394  10.371  22.459  0.00  0.00    +0.000 A 
ATOM     24  C   UNL     1      -0.342  11.733  22.169  0.00  0.00    +0.000 A 
ATOM     25  C   UNL     1       0.265  12.174  20.993  0.00  0.00    +0.000 A 
ATOM     26  C   UNL     1       0.814  11.251  20.099  0.00  0.00    +0.000 A 
ENDBRANCH  18  21
ENDBRANCH   3  17
TORSDOF 4
ENDMDL
