MODEL 1
REMARK VINA RESULT:      -8.4      0.000      0.000
REMARK  Name = 
REMARK  7 active torsions:
REMARK  status: ('A' for Active; 'I' for Inactive)
REMARK    1  A    between atoms: C_1  and  O_2
REMARK    2  A    between atoms: O_2  and  C_3
REMARK    3  A    between atoms: C_11  and  C_12
REMARK    4  A    between atoms: C_12  and  C_13
REMARK    5  A    between atoms: N_15  and  N_16
REMARK    6  A    between atoms: C_17  and  C_18
REMARK    7  A    between atoms: C_21  and  C_22
REMARK                            x       y       z     vdW  Elec       q    Type
REMARK                         _______ _______ _______ _____ _____    ______ ____
ROOT
ATOM      1  C   UNL     1       6.659   5.257  18.751  0.00  0.00    +0.000 C 
ATOM      2  O   UNL     1       7.074   5.251  19.908  0.00  0.00    +0.000 OA
ATOM      3  N   UNL     1       7.045   6.177  17.779  0.00  0.00    +0.000 N 
ATOM      4  H   UNL     1       6.722   6.091  16.823  0.00  0.00    +0.000 HD
ENDROOT
BRANCH   3   5
ATOM      5  N   UNL     1       7.805   7.232  18.174  0.00  0.00    +0.000 NA
ATOM      6  C   UNL     1       7.616   8.388  17.625  0.00  0.00    +0.000 C 
BRANCH   6   7
ATOM      7  C   UNL     1       8.388   9.553  18.123  0.00  0.00    +0.000 A 
ATOM      8  C   UNL     1       9.169   9.414  19.277  0.00  0.00    +0.000 A 
ATOM      9  C   UNL     1       9.822  10.517  19.827  0.00  0.00    +0.000 A 
ATOM     10  C   UNL     1       9.709  11.777  19.229  0.00  0.00    +0.000 A 
ATOM     11  C   UNL     1       8.958  11.902  18.046  0.00  0.00    +0.000 A 
ATOM     12  C   UNL     1       8.298  10.795  17.492  0.00  0.00    +0.000 A 
BRANCH  10  13
ATOM     13  C   UNL     1      10.358  12.989  19.859  0.00  0.00    +0.000 C 
ATOM     14  F   UNL     1      10.583  14.007  18.981  0.00  0.00    +0.000 F 
ATOM     15  F   UNL     1       9.613  13.521  20.866  0.00  0.00    +0.000 F 
ATOM     16  F   UNL     1      11.572  12.698  20.406  0.00  0.00    +0.000 F 
ENDBRANCH  10  13
ENDBRANCH   6   7
ENDBRANCH   3   5
BRANCH   1  17
ATOM     17  C   UNL     1       5.618   4.261  18.286  0.00  0.00    +0.000 C 
BRANCH  17  26
ATOM     18  C   UNL     1       2.842   7.392  18.588  0.00  0.00    +0.000 A 
ATOM     19  C   UNL     1       1.821   7.443  19.517  0.00  0.00    +0.000 A 
ATOM     20  C   UNL     1       1.653   6.352  20.358  0.00  0.00    +0.000 A 
ATOM     21  C   UNL     1       2.494   5.242  20.229  0.00  0.00    +0.000 A 
ATOM     22  C   UNL     1       2.305   4.106  21.028  0.00  0.00    +0.000 A 
ATOM     23  C   UNL     1       3.115   2.992  20.849  0.00  0.00    +0.000 A 
ATOM     24  C   UNL     1       4.147   3.047  19.924  0.00  0.00    +0.000 A 
ATOM     25  F   UNL     1       4.932   1.970  19.781  0.00  0.00    +0.000 F 
ATOM     26  C   UNL     1       4.396   4.198  19.168  0.00  0.00    +0.000 A 
ATOM     27  C   UNL     1       3.536   5.292  19.268  0.00  0.00    +0.000 A 
ATOM     28  N   UNL     1       3.708   6.363  18.465  0.00  0.00    +0.000 NA
BRANCH  18  30
ATOM     29  C   UNL     1       1.884   9.410  17.915  0.00  0.00    +0.000 C 
ATOM     30  O   UNL     1       2.940   8.480  17.743  0.00  0.00    +0.000 OA
ENDBRANCH  18  30
ENDBRANCH  17  26
ENDBRANCH   1  17
TORSDOF 6
ENDMDL
MODEL 2
REMARK VINA RESULT:      -8.4      0.295      1.177
REMARK  Name = 
REMARK  7 active torsions:
REMARK  status: ('A' for Active; 'I' for Inactive)
REMARK    1  A    between atoms: C_1  and  O_2
REMARK    2  A    between atoms: O_2  and  C_3
REMARK    3  A    between atoms: C_11  and  C_12
REMARK    4  A    between atoms: C_12  and  C_13
REMARK    5  A    between atoms: N_15  and  N_16
REMARK    6  A    between atoms: C_17  and  C_18
REMARK    7  A    between atoms: C_21  and  C_22
REMARK                            x       y       z     vdW  Elec       q    Type
REMARK                         _______ _______ _______ _____ _____    ______ ____
ROOT
ATOM      1  C   UNL     1       6.651   5.308  18.813  0.00  0.00    +0.000 C 
ATOM      2  O   UNL     1       7.112   5.232  19.951  0.00  0.00    +0.000 OA
ATOM      3  N   UNL     1       6.959   6.317  17.904  0.00  0.00    +0.000 N 
ATOM      4  H   UNL     1       6.602   6.290  16.957  0.00  0.00    +0.000 HD
ENDROOT
BRANCH   3   5
ATOM      5  N   UNL     1       7.688   7.372  18.353  0.00  0.00    +0.000 NA
ATOM      6  C   UNL     1       7.703   8.469  17.667  0.00  0.00    +0.000 C 
BRANCH   6   7
ATOM      7  C   UNL     1       8.429   9.643  18.208  0.00  0.00    +0.000 A 
ATOM      8  C   UNL     1       8.391  10.855  17.506  0.00  0.00    +0.000 A 
ATOM      9  C   UNL     1       9.147  11.946  17.935  0.00  0.00    +0.000 A 
ATOM     10  C   UNL     1       9.951  11.845  19.076  0.00  0.00    +0.000 A 
ATOM     11  C   UNL     1       9.953  10.639  19.801  0.00  0.00    +0.000 A 
ATOM     12  C   UNL     1       9.195   9.539  19.370  0.00  0.00    +0.000 A 
BRANCH  10  13
ATOM     13  C   UNL     1      10.825  13.001  19.506  0.00  0.00    +0.000 C 
ATOM     14  F   UNL     1      12.044  12.618  19.983  0.00  0.00    +0.000 F 
ATOM     15  F   UNL     1      11.078  13.874  18.494  0.00  0.00    +0.000 F 
ATOM     16  F   UNL     1      10.254  13.737  20.501  0.00  0.00    +0.000 F 
ENDBRANCH  10  13
ENDBRANCH   6   7
ENDBRANCH   3   5
BRANCH   1  17
ATOM     17  C   UNL     1       5.636   4.305  18.311  0.00  0.00    +0.000 C 
BRANCH  17  26
ATOM     18  C   UNL     1       2.828   7.389  18.763  0.00  0.00    +0.000 A 
ATOM     19  C   UNL     1       1.803   7.382  19.689  0.00  0.00    +0.000 A 
ATOM     20  C   UNL     1       1.643   6.247  20.472  0.00  0.00    +0.000 A 
ATOM     21  C   UNL     1       2.496   5.154  20.288  0.00  0.00    +0.000 A 
ATOM     22  C   UNL     1       2.315   3.976  21.026  0.00  0.00    +0.000 A 
ATOM     23  C   UNL     1       3.136   2.881  20.793  0.00  0.00    +0.000 A 
ATOM     24  C   UNL     1       4.171   2.993  19.877  0.00  0.00    +0.000 A 
ATOM     25  F   UNL     1       4.967   1.933  19.682  0.00  0.00    +0.000 F 
ATOM     26  C   UNL     1       4.411   4.185  19.183  0.00  0.00    +0.000 A 
ATOM     27  C   UNL     1       3.541   5.263  19.335  0.00  0.00    +0.000 A 
ATOM     28  N   UNL     1       3.705   6.376  18.590  0.00  0.00    +0.000 NA
BRANCH  18  30
ATOM     29  C   UNL     1       1.681   9.199  17.840  0.00  0.00    +0.000 C 
ATOM     30  O   UNL     1       2.918   8.520  17.976  0.00  0.00    +0.000 OA
ENDBRANCH  18  30
ENDBRANCH  17  26
ENDBRANCH   1  17
TORSDOF 6
ENDMDL
MODEL 3
REMARK VINA RESULT:      -8.3      2.482      3.782
REMARK  Name = 
REMARK  7 active torsions:
REMARK  status: ('A' for Active; 'I' for Inactive)
REMARK    1  A    between atoms: C_1  and  O_2
REMARK    2  A    between atoms: O_2  and  C_3
REMARK    3  A    between atoms: C_11  and  C_12
REMARK    4  A    between atoms: C_12  and  C_13
REMARK    5  A    between atoms: N_15  and  N_16
REMARK    6  A    between atoms: C_17  and  C_18
REMARK    7  A    between atoms: C_21  and  C_22
REMARK                            x       y       z     vdW  Elec       q    Type
REMARK                         _______ _______ _______ _____ _____    ______ ____
ROOT
ATOM      1  C   UNL     1       7.542   7.251  17.894  0.00  0.00    +0.000 C 
ATOM      2  O   UNL     1       6.870   7.829  17.042  0.00  0.00    +0.000 OA
ATOM      3  N   UNL     1       8.461   7.877  18.730  0.00  0.00    +0.000 N 
ATOM      4  H   UNL     1       8.937   7.361  19.460  0.00  0.00    +0.000 HD
ENDROOT
BRANCH   3   5
ATOM      5  N   UNL     1       8.755   9.181  18.484  0.00  0.00    +0.000 NA
ATOM      6  C   UNL     1       9.239   9.912  19.436  0.00  0.00    +0.000 C 
BRANCH   6   7
ATOM      7  C   UNL     1       9.639  11.308  19.135  0.00  0.00    +0.000 A 
ATOM      8  C   UNL     1       9.262  11.880  17.914  0.00  0.00    +0.000 A 
ATOM      9  C   UNL     1       9.710  13.153  17.560  0.00  0.00    +0.000 A 
ATOM     10  C   UNL     1      10.540  13.877  18.424  0.00  0.00    +0.000 A 
ATOM     11  C   UNL     1      10.880  13.314  19.668  0.00  0.00    +0.000 A 
ATOM     12  C   UNL     1      10.433  12.033  20.025  0.00  0.00    +0.000 A 
BRANCH  10  13
ATOM     13  C   UNL     1      11.085  15.226  18.016  0.00  0.00    +0.000 C 
ATOM     14  F   UNL     1      11.646  15.237  16.773  0.00  0.00    +0.000 F 
ATOM     15  F   UNL     1      10.130  16.197  18.003  0.00  0.00    +0.000 F 
ATOM     16  F   UNL     1      12.056  15.669  18.863  0.00  0.00    +0.000 F 
ENDBRANCH  10  13
ENDBRANCH   6   7
ENDBRANCH   3   5
BRANCH   1  17
ATOM     17  C   UNL     1       7.458   5.750  18.073  0.00  0.00    +0.000 C 
BRANCH  17  26
ATOM     18  C   UNL     1       3.532   4.821  19.227  0.00  0.00    +0.000 A 
ATOM     19  C   UNL     1       2.663   4.047  18.483  0.00  0.00    +0.000 A 
ATOM     20  C   UNL     1       3.086   3.610  17.236  0.00  0.00    +0.000 A 
ATOM     21  C   UNL     1       4.352   3.977  16.767  0.00  0.00    +0.000 A 
ATOM     22  C   UNL     1       4.777   3.596  15.486  0.00  0.00    +0.000 A 
ATOM     23  C   UNL     1       6.014   4.015  15.016  0.00  0.00    +0.000 A 
ATOM     24  C   UNL     1       6.843   4.751  15.849  0.00  0.00    +0.000 A 
ATOM     25  F   UNL     1       8.043   5.127  15.385  0.00  0.00    +0.000 F 
ATOM     26  C   UNL     1       6.465   5.080  17.157  0.00  0.00    +0.000 A 
ATOM     27  C   UNL     1       5.190   4.748  17.613  0.00  0.00    +0.000 A 
ATOM     28  N   UNL     1       4.781   5.155  18.833  0.00  0.00    +0.000 NA
BRANCH  18  30
ATOM     29  C   UNL     1       2.146   4.362  21.046  0.00  0.00    +0.000 C 
ATOM     30  O   UNL     1       3.049   5.271  20.439  0.00  0.00    +0.000 OA
ENDBRANCH  18  30
ENDBRANCH  17  26
ENDBRANCH   1  17
TORSDOF 6
ENDMDL
MODEL 4
REMARK VINA RESULT:      -8.2      2.981      4.552
REMARK  Name = 
REMARK  7 active torsions:
REMARK  status: ('A' for Active; 'I' for Inactive)
REMARK    1  A    between atoms: C_1  and  O_2
REMARK    2  A    between atoms: O_2  and  C_3
REMARK    3  A    between atoms: C_11  and  C_12
REMARK    4  A    between atoms: C_12  and  C_13
REMARK    5  A    between atoms: N_15  and  N_16
REMARK    6  A    between atoms: C_17  and  C_18
REMARK    7  A    between atoms: C_21  and  C_22
REMARK                            x       y       z     vdW  Elec       q    Type
REMARK                         _______ _______ _______ _____ _____    ______ ____
ROOT
ATOM      1  C   UNL     1       7.728   7.453  18.061  0.00  0.00    +0.000 C 
ATOM      2  O   UNL     1       7.012   7.918  17.175  0.00  0.00    +0.000 OA
ATOM      3  N   UNL     1       8.600   8.204  18.844  0.00  0.00    +0.000 N 
ATOM      4  H   UNL     1       9.115   7.777  19.605  0.00  0.00    +0.000 HD
ENDROOT
BRANCH   3   5
ATOM      5  N   UNL     1       8.794   9.506  18.505  0.00  0.00    +0.000 NA
ATOM      6  C   UNL     1       9.413  10.289  19.328  0.00  0.00    +0.000 C 
BRANCH   6   7
ATOM      7  C   UNL     1       9.699  11.684  18.913  0.00  0.00    +0.000 A 
ATOM      8  C   UNL     1       9.220  12.742  19.696  0.00  0.00    +0.000 A 
ATOM      9  C   UNL     1       9.384  14.063  19.276  0.00  0.00    +0.000 A 
ATOM     10  C   UNL     1      10.033  14.347  18.069  0.00  0.00    +0.000 A 
ATOM     11  C   UNL     1      10.549  13.282  17.309  0.00  0.00    +0.000 A 
ATOM     12  C   UNL     1      10.383  11.952  17.727  0.00  0.00    +0.000 A 
BRANCH  10  13
ATOM     13  C   UNL     1      10.152  15.771  17.577  0.00  0.00    +0.000 C 
ATOM     14  F   UNL     1       8.952  16.357  17.300  0.00  0.00    +0.000 F 
ATOM     15  F   UNL     1      10.768  16.588  18.474  0.00  0.00    +0.000 F 
ATOM     16  F   UNL     1      10.880  15.861  16.428  0.00  0.00    +0.000 F 
ENDBRANCH  10  13
ENDBRANCH   6   7
ENDBRANCH   3   5
BRANCH   1  17
ATOM     17  C   UNL     1       7.757   5.967  18.345  0.00  0.00    +0.000 C 
BRANCH  17  26
ATOM     18  C   UNL     1       7.459   5.071  14.257  0.00  0.00    +0.000 A 
ATOM     19  C   UNL     1       6.333   4.545  13.653  0.00  0.00    +0.000 A 
ATOM     20  C   UNL     1       5.254   4.219  14.463  0.00  0.00    +0.000 A 
ATOM     21  C   UNL     1       5.344   4.409  15.846  0.00  0.00    +0.000 A 
ATOM     22  C   UNL     1       4.289   4.032  16.689  0.00  0.00    +0.000 A 
ATOM     23  C   UNL     1       4.417   4.177  18.063  0.00  0.00    +0.000 A 
ATOM     24  C   UNL     1       5.565   4.759  18.580  0.00  0.00    +0.000 A 
ATOM     25  F   UNL     1       5.660   4.912  19.908  0.00  0.00    +0.000 F 
ATOM     26  C   UNL     1       6.599   5.207  17.748  0.00  0.00    +0.000 A 
ATOM     27  C   UNL     1       6.528   4.985  16.373  0.00  0.00    +0.000 A 
ATOM     28  N   UNL     1       7.568   5.319  15.580  0.00  0.00    +0.000 NA
BRANCH  18  30
ATOM     29  C   UNL     1       8.122   5.898  12.178  0.00  0.00    +0.000 C 
ATOM     30  O   UNL     1       8.522   5.335  13.417  0.00  0.00    +0.000 OA
ENDBRANCH  18  30
ENDBRANCH  17  26
ENDBRANCH   1  17
TORSDOF 6
ENDMDL
MODEL 5
REMARK VINA RESULT:      -8.2      3.060      4.606
REMARK  Name = 
REMARK  7 active torsions:
REMARK  status: ('A' for Active; 'I' for Inactive)
REMARK    1  A    between atoms: C_1  and  O_2
REMARK    2  A    between atoms: O_2  and  C_3
REMARK    3  A    between atoms: C_11  and  C_12
REMARK    4  A    between atoms: C_12  and  C_13
REMARK    5  A    between atoms: N_15  and  N_16
REMARK    6  A    between atoms: C_17  and  C_18
REMARK    7  A    between atoms: C_21  and  C_22
REMARK                            x       y       z     vdW  Elec       q    Type
REMARK                         _______ _______ _______ _____ _____    ______ ____
ROOT
ATOM      1  C   UNL     1       7.738   7.583  17.986  0.00  0.00    +0.000 C 
ATOM      2  O   UNL     1       7.036   7.991  17.063  0.00  0.00    +0.000 OA
ATOM      3  N   UNL     1       8.581   8.386  18.749  0.00  0.00    +0.000 N 
ATOM      4  H   UNL     1       9.085   8.007  19.542  0.00  0.00    +0.000 HD
ENDROOT
BRANCH   3   5
ATOM      5  N   UNL     1       8.763   9.672  18.348  0.00  0.00    +0.000 NA
ATOM      6  C   UNL     1       9.647  10.403  18.948  0.00  0.00    +0.000 C 
BRANCH   6   7
ATOM      7  C   UNL     1       9.902  11.775  18.446  0.00  0.00    +0.000 A 
ATOM      8  C   UNL     1      10.982  11.999  17.584  0.00  0.00    +0.000 A 
ATOM      9  C   UNL     1      11.308  13.295  17.179  0.00  0.00    +0.000 A 
ATOM     10  C   UNL     1      10.555  14.386  17.627  0.00  0.00    +0.000 A 
ATOM     11  C   UNL     1       9.446  14.150  18.459  0.00  0.00    +0.000 A 
ATOM     12  C   UNL     1       9.117  12.849  18.870  0.00  0.00    +0.000 A 
BRANCH  10  13
ATOM     13  C   UNL     1      10.945  15.797  17.247  0.00  0.00    +0.000 C 
ATOM     14  F   UNL     1      12.244  15.917  16.850  0.00  0.00    +0.000 F 
ATOM     15  F   UNL     1      10.195  16.293  16.226  0.00  0.00    +0.000 F 
ATOM     16  F   UNL     1      10.793  16.671  18.281  0.00  0.00    +0.000 F 
ENDBRANCH  10  13
ENDBRANCH   6   7
ENDBRANCH   3   5
BRANCH   1  17
ATOM     17  C   UNL     1       7.783   6.114  18.347  0.00  0.00    +0.000 C 
BRANCH  17  26
ATOM     18  C   UNL     1       7.355   5.147  14.286  0.00  0.00    +0.000 A 
ATOM     19  C   UNL     1       6.221   4.583  13.734  0.00  0.00    +0.000 A 
ATOM     20  C   UNL     1       5.182   4.241  14.589  0.00  0.00    +0.000 A 
ATOM     21  C   UNL     1       5.320   4.455  15.965  0.00  0.00    +0.000 A 
ATOM     22  C   UNL     1       4.308   4.064  16.852  0.00  0.00    +0.000 A 
ATOM     23  C   UNL     1       4.483   4.234  18.219  0.00  0.00    +0.000 A 
ATOM     24  C   UNL     1       5.634   4.853  18.683  0.00  0.00    +0.000 A 
ATOM     25  F   UNL     1       5.776   5.029  20.004  0.00  0.00    +0.000 F 
ATOM     26  C   UNL     1       6.623   5.315  17.806  0.00  0.00    +0.000 A 
ATOM     27  C   UNL     1       6.507   5.070  16.438  0.00  0.00    +0.000 A 
ATOM     28  N   UNL     1       7.507   5.418  15.601  0.00  0.00    +0.000 NA
BRANCH  18  30
ATOM     29  C   UNL     1       7.944   5.484  12.054  0.00  0.00    +0.000 C 
ATOM     30  O   UNL     1       8.378   5.426  13.403  0.00  0.00    +0.000 OA
ENDBRANCH  18  30
ENDBRANCH  17  26
ENDBRANCH   1  17
TORSDOF 6
ENDMDL
MODEL 6
REMARK VINA RESULT:      -8.2      2.469      3.711
REMARK  Name = 
REMARK  7 active torsions:
REMARK  status: ('A' for Active; 'I' for Inactive)
REMARK    1  A    between atoms: C_1  and  O_2
REMARK    2  A    between atoms: O_2  and  C_3
REMARK    3  A    between atoms: C_11  and  C_12
REMARK    4  A    between atoms: C_12  and  C_13
REMARK    5  A    between atoms: N_15  and  N_16
REMARK    6  A    between atoms: C_17  and  C_18
REMARK    7  A    between atoms: C_21  and  C_22
REMARK                            x       y       z     vdW  Elec       q    Type
REMARK                         _______ _______ _______ _____ _____    ______ ____
ROOT
ATOM      1  C   UNL     1       7.548   7.274  17.914  0.00  0.00    +0.000 C 
ATOM      2  O   UNL     1       6.929   7.821  17.003  0.00  0.00    +0.000 OA
ATOM      3  N   UNL     1       8.462   7.918  18.743  0.00  0.00    +0.000 N 
ATOM      4  H   UNL     1       8.892   7.433  19.521  0.00  0.00    +0.000 HD
ENDROOT
BRANCH   3   5
ATOM      5  N   UNL     1       8.815   9.192  18.426  0.00  0.00    +0.000 NA
ATOM      6  C   UNL     1       9.147  10.010  19.372  0.00  0.00    +0.000 C 
BRANCH   6   7
ATOM      7  C   UNL     1       9.615  11.371  19.012  0.00  0.00    +0.000 A 
ATOM      8  C   UNL     1       9.518  12.401  19.956  0.00  0.00    +0.000 A 
ATOM      9  C   UNL     1       9.854  13.711  19.612  0.00  0.00    +0.000 A 
ATOM     10  C   UNL     1      10.295  14.012  18.318  0.00  0.00    +0.000 A 
ATOM     11  C   UNL     1      10.431  12.966  17.387  0.00  0.00    +0.000 A 
ATOM     12  C   UNL     1      10.092  11.648  17.729  0.00  0.00    +0.000 A 
BRANCH  10  13
ATOM     13  C   UNL     1      10.594  15.439  17.920  0.00  0.00    +0.000 C 
ATOM     14  F   UNL     1      10.892  16.250  18.975  0.00  0.00    +0.000 F 
ATOM     15  F   UNL     1      11.649  15.537  17.065  0.00  0.00    +0.000 F 
ATOM     16  F   UNL     1       9.542  16.029  17.286  0.00  0.00    +0.000 F 
ENDBRANCH  10  13
ENDBRANCH   6   7
ENDBRANCH   3   5
BRANCH   1  17
ATOM     17  C   UNL     1       7.400   5.792  18.182  0.00  0.00    +0.000 C 
BRANCH  17  26
ATOM     18  C   UNL     1       3.391   5.054  19.176  0.00  0.00    +0.000 A 
ATOM     19  C   UNL     1       2.536   4.262  18.434  0.00  0.00    +0.000 A 
ATOM     20  C   UNL     1       3.009   3.736  17.241  0.00  0.00    +0.000 A 
ATOM     21  C   UNL     1       4.310   4.035  16.820  0.00  0.00    +0.000 A 
ATOM     22  C   UNL     1       4.788   3.563  15.590  0.00  0.00    +0.000 A 
ATOM     23  C   UNL     1       6.061   3.915  15.162  0.00  0.00    +0.000 A 
ATOM     24  C   UNL     1       6.869   4.676  15.993  0.00  0.00    +0.000 A 
ATOM     25  F   UNL     1       8.103   4.986  15.573  0.00  0.00    +0.000 F 
ATOM     26  C   UNL     1       6.434   5.096  17.256  0.00  0.00    +0.000 A 
ATOM     27  C   UNL     1       5.127   4.831  17.663  0.00  0.00    +0.000 A 
ATOM     28  N   UNL     1       4.669   5.325  18.832  0.00  0.00    +0.000 NA
BRANCH  18  30
ATOM     29  C   UNL     1       1.692   4.919  20.769  0.00  0.00    +0.000 C 
ATOM     30  O   UNL     1       2.860   5.593  20.332  0.00  0.00    +0.000 OA
ENDBRANCH  18  30
ENDBRANCH  17  26
ENDBRANCH   1  17
TORSDOF 6
ENDMDL
MODEL 7
REMARK VINA RESULT:      -8.0      5.395      8.151
REMARK  Name = 
REMARK  7 active torsions:
REMARK  status: ('A' for Active; 'I' for Inactive)
REMARK    1  A    between atoms: C_1  and  O_2
REMARK    2  A    between atoms: O_2  and  C_3
REMARK    3  A    between atoms: C_11  and  C_12
REMARK    4  A    between atoms: C_12  and  C_13
REMARK    5  A    between atoms: N_15  and  N_16
REMARK    6  A    between atoms: C_17  and  C_18
REMARK    7  A    between atoms: C_21  and  C_22
REMARK                            x       y       z     vdW  Elec       q    Type
REMARK                         _______ _______ _______ _____ _____    ______ ____
ROOT
ATOM      1  C   UNL     1       2.585   6.931  19.581  0.00  0.00    +0.000 C 
ATOM      2  O   UNL     1       2.257   7.418  18.501  0.00  0.00    +0.000 OA
ATOM      3  N   UNL     1       1.986   7.242  20.799  0.00  0.00    +0.000 N 
ATOM      4  H   UNL     1       2.252   6.759  21.649  0.00  0.00    +0.000 HD
ENDROOT
BRANCH   3   5
ATOM      5  N   UNL     1       1.092   8.266  20.822  0.00  0.00    +0.000 NA
ATOM      6  C   UNL     1       0.868   8.886  21.935  0.00  0.00    +0.000 C 
BRANCH   6   7
ATOM      7  C   UNL     1      -0.042  10.057  21.932  0.00  0.00    +0.000 A 
ATOM      8  C   UNL     1      -0.735  10.389  23.103  0.00  0.00    +0.000 A 
ATOM      9  C   UNL     1      -1.674  11.421  23.102  0.00  0.00    +0.000 A 
ATOM     10  C   UNL     1      -1.933  12.141  21.930  0.00  0.00    +0.000 A 
ATOM     11  C   UNL     1      -1.203  11.831  20.768  0.00  0.00    +0.000 A 
ATOM     12  C   UNL     1      -0.259  10.792  20.766  0.00  0.00    +0.000 A 
BRANCH  10  13
ATOM     13  C   UNL     1      -2.998  13.213  21.906  0.00  0.00    +0.000 C 
ATOM     14  F   UNL     1      -4.234  12.749  21.564  0.00  0.00    +0.000 F 
ATOM     15  F   UNL     1      -3.151  13.829  23.110  0.00  0.00    +0.000 F 
ATOM     16  F   UNL     1      -2.715  14.202  21.013  0.00  0.00    +0.000 F 
ENDBRANCH  10  13
ENDBRANCH   6   7
ENDBRANCH   3   5
BRANCH   1  17
ATOM     17  C   UNL     1       3.740   5.960  19.686  0.00  0.00    +0.000 C 
BRANCH  17  26
ATOM     18  C   UNL     1       6.515   5.846  16.540  0.00  0.00    +0.000 A 
ATOM     19  C   UNL     1       6.428   4.997  15.454  0.00  0.00    +0.000 A 
ATOM     20  C   UNL     1       5.400   4.066  15.437  0.00  0.00    +0.000 A 
ATOM     21  C   UNL     1       4.508   4.001  16.513  0.00  0.00    +0.000 A 
ATOM     22  C   UNL     1       3.497   3.030  16.544  0.00  0.00    +0.000 A 
ATOM     23  C   UNL     1       2.654   2.944  17.644  0.00  0.00    +0.000 A 
ATOM     24  C   UNL     1       2.782   3.869  18.669  0.00  0.00    +0.000 A 
ATOM     25  F   UNL     1       1.945   3.785  19.712  0.00  0.00    +0.000 F 
ATOM     26  C   UNL     1       3.739   4.891  18.622  0.00  0.00    +0.000 A 
ATOM     27  C   UNL     1       4.654   4.935  17.570  0.00  0.00    +0.000 A 
ATOM     28  N   UNL     1       5.644   5.852  17.573  0.00  0.00    +0.000 NA
BRANCH  18  30
ATOM     29  C   UNL     1       7.626   7.547  17.687  0.00  0.00    +0.000 C 
ATOM     30  O   UNL     1       7.581   6.723  16.534  0.00  0.00    +0.000 OA
ENDBRANCH  18  30
ENDBRANCH  17  26
ENDBRANCH   1  17
TORSDOF 6
ENDMDL
MODEL 8
REMARK VINA RESULT:      -7.9      5.236      8.043
REMARK  Name = 
REMARK  7 active torsions:
REMARK  status: ('A' for Active; 'I' for Inactive)
REMARK    1  A    between atoms: C_1  and  O_2
REMARK    2  A    between atoms: O_2  and  C_3
REMARK    3  A    between atoms: C_11  and  C_12
REMARK    4  A    between atoms: C_12  and  C_13
REMARK    5  A    between atoms: N_15  and  N_16
REMARK    6  A    between atoms: C_17  and  C_18
REMARK    7  A    between atoms: C_21  and  C_22
REMARK                            x       y       z     vdW  Elec       q    Type
REMARK                         _______ _______ _______ _____ _____    ______ ____
ROOT
ATOM      1  C   UNL     1       2.591   6.831  19.630  0.00  0.00    +0.000 C 
ATOM      2  O   UNL     1       2.360   7.507  18.629  0.00  0.00    +0.000 OA
ATOM      3  N   UNL     1       1.838   6.873  20.800  0.00  0.00    +0.000 N 
ATOM      4  H   UNL     1       2.035   6.243  21.568  0.00  0.00    +0.000 HD
ENDROOT
BRANCH   3   5
ATOM      5  N   UNL     1       0.886   7.836  20.905  0.00  0.00    +0.000 NA
ATOM      6  C   UNL     1       1.005   8.747  21.816  0.00  0.00    +0.000 C 
BRANCH   6   7
ATOM      7  C   UNL     1       0.008   9.844  21.867  0.00  0.00    +0.000 A 
ATOM      8  C   UNL     1      -0.270  10.571  20.703  0.00  0.00    +0.000 A 
ATOM      9  C   UNL     1      -1.125  11.674  20.744  0.00  0.00    +0.000 A 
ATOM     10  C   UNL     1      -1.719  12.064  21.949  0.00  0.00    +0.000 A 
ATOM     11  C   UNL     1      -1.470  11.304  23.106  0.00  0.00    +0.000 A 
ATOM     12  C   UNL     1      -0.609  10.197  23.069  0.00  0.00    +0.000 A 
BRANCH  10  13
ATOM     13  C   UNL     1      -2.591  13.298  22.012  0.00  0.00    +0.000 C 
ATOM     14  F   UNL     1      -3.266  13.551  20.855  0.00  0.00    +0.000 F 
ATOM     15  F   UNL     1      -3.537  13.223  22.988  0.00  0.00    +0.000 F 
ATOM     16  F   UNL     1      -1.872  14.425  22.274  0.00  0.00    +0.000 F 
ENDBRANCH  10  13
ENDBRANCH   6   7
ENDBRANCH   3   5
BRANCH   1  17
ATOM     17  C   UNL     1       3.786   5.904  19.690  0.00  0.00    +0.000 C 
BRANCH  17  26
ATOM     18  C   UNL     1       6.535   5.879  16.520  0.00  0.00    +0.000 A 
ATOM     19  C   UNL     1       6.455   5.040  15.426  0.00  0.00    +0.000 A 
ATOM     20  C   UNL     1       5.445   4.090  15.407  0.00  0.00    +0.000 A 
ATOM     21  C   UNL     1       4.563   3.996  16.489  0.00  0.00    +0.000 A 
ATOM     22  C   UNL     1       3.572   3.005  16.518  0.00  0.00    +0.000 A 
ATOM     23  C   UNL     1       2.740   2.892  17.624  0.00  0.00    +0.000 A 
ATOM     24  C   UNL     1       2.859   3.807  18.658  0.00  0.00    +0.000 A 
ATOM     25  F   UNL     1       2.033   3.696  19.707  0.00  0.00    +0.000 F 
ATOM     26  C   UNL     1       3.796   4.847  18.614  0.00  0.00    +0.000 A 
ATOM     27  C   UNL     1       4.701   4.921  17.555  0.00  0.00    +0.000 A 
ATOM     28  N   UNL     1       5.673   5.856  17.561  0.00  0.00    +0.000 NA
BRANCH  18  30
ATOM     29  C   UNL     1       7.664   7.541  17.707  0.00  0.00    +0.000 C 
ATOM     30  O   UNL     1       7.584   6.776  16.515  0.00  0.00    +0.000 OA
ENDBRANCH  18  30
ENDBRANCH  17  26
ENDBRANCH   1  17
TORSDOF 6
ENDMDL
MODEL 9
REMARK VINA RESULT:      -7.9      5.552      9.162
REMARK  Name = 
REMARK  7 active torsions:
REMARK  status: ('A' for Active; 'I' for Inactive)
REMARK    1  A    between atoms: C_1  and  O_2
REMARK    2  A    between atoms: O_2  and  C_3
REMARK    3  A    between atoms: C_11  and  C_12
REMARK    4  A    between atoms: C_12  and  C_13
REMARK    5  A    between atoms: N_15  and  N_16
REMARK    6  A    between atoms: C_17  and  C_18
REMARK    7  A    between atoms: C_21  and  C_22
REMARK                            x       y       z     vdW  Elec       q    Type
REMARK                         _______ _______ _______ _____ _____    ______ ____
ROOT
ATOM      1  C   UNL     1       0.282  11.372  20.378  0.00  0.00    +0.000 C 
ATOM      2  O   UNL     1       0.948  11.249  21.404  0.00  0.00    +0.000 OA
ATOM      3  N   UNL     1       0.196  10.411  19.374  0.00  0.00    +0.000 N 
ATOM      4  H   UNL     1      -0.422  10.538  18.582  0.00  0.00    +0.000 HD
ENDROOT
BRANCH   3   5
ATOM      5  N   UNL     1       1.026   9.337  19.454  0.00  0.00    +0.000 NA
ATOM      6  C   UNL     1       1.559   8.867  18.373  0.00  0.00    +0.000 C 
BRANCH   6   7
ATOM      7  C   UNL     1       2.531   7.752  18.479  0.00  0.00    +0.000 A 
ATOM      8  C   UNL     1       3.503   7.594  17.484  0.00  0.00    +0.000 A 
ATOM      9  C   UNL     1       4.364   6.495  17.503  0.00  0.00    +0.000 A 
ATOM     10  C   UNL     1       4.268   5.539  18.520  0.00  0.00    +0.000 A 
ATOM     11  C   UNL     1       3.318   5.726  19.541  0.00  0.00    +0.000 A 
ATOM     12  C   UNL     1       2.449   6.828  19.523  0.00  0.00    +0.000 A 
BRANCH  10  13
ATOM     13  C   UNL     1       5.151   4.312  18.508  0.00  0.00    +0.000 C 
ATOM     14  F   UNL     1       5.005   3.521  19.608  0.00  0.00    +0.000 F 
ATOM     15  F   UNL     1       4.918   3.507  17.436  0.00  0.00    +0.000 F 
ATOM     16  F   UNL     1       6.476   4.630  18.455  0.00  0.00    +0.000 F 
ENDBRANCH  10  13
ENDBRANCH   6   7
ENDBRANCH   3   5
BRANCH   1  17
ATOM     17  C   UNL     1      -0.484  12.645  20.088  0.00  0.00    +0.000 C 
BRANCH  17  26
ATOM     18  C   UNL     1      -3.018  11.378  16.993  0.00  0.00    +0.000 A 
ATOM     19  C   UNL     1      -4.397  11.420  17.047  0.00  0.00    +0.000 A 
ATOM     20  C   UNL     1      -4.989  11.837  18.231  0.00  0.00    +0.000 A 
ATOM     21  C   UNL     1      -4.184  12.177  19.324  0.00  0.00    +0.000 A 
ATOM     22  C   UNL     1      -4.761  12.544  20.548  0.00  0.00    +0.000 A 
ATOM     23  C   UNL     1      -3.949  12.825  21.638  0.00  0.00    +0.000 A 
ATOM     24  C   UNL     1      -2.571  12.803  21.481  0.00  0.00    +0.000 A 
ATOM     25  F   UNL     1      -1.804  13.100  22.538  0.00  0.00    +0.000 F 
ATOM     26  C   UNL     1      -1.978  12.509  20.247  0.00  0.00    +0.000 A 
ATOM     27  C   UNL     1      -2.776  12.134  19.166  0.00  0.00    +0.000 A 
ATOM     28  N   UNL     1      -2.204  11.746  18.007  0.00  0.00    +0.000 NA
BRANCH  18  30
ATOM     29  C   UNL     1      -3.448  10.356  14.940  0.00  0.00    +0.000 C 
ATOM     30  O   UNL     1      -2.477  10.912  15.811  0.00  0.00    +0.000 OA
ENDBRANCH  18  30
ENDBRANCH  17  26
ENDBRANCH   1  17
TORSDOF 6
ENDMDL
