MODEL 1
REMARK VINA RESULT:      -7.7      0.000      0.000
REMARK  Name = 
REMARK  7 active torsions:
REMARK  status: ('A' for Active; 'I' for Inactive)
REMARK    1  A    between atoms: C_1  and  O_2
REMARK    2  A    between atoms: O_2  and  C_3
REMARK    3  A    between atoms: C_8  and  N_9
REMARK    4  A    between atoms: N_12  and  C_13
REMARK    5  A    between atoms: C_13  and  C_14
REMARK    6  A    between atoms: C_14  and  C_15
REMARK    7  A    between atoms: C_15  and  N_16
REMARK                            x       y       z     vdW  Elec       q    Type
REMARK                         _______ _______ _______ _____ _____    ______ ____
ROOT
ATOM      1  N   UNL     1       4.791   4.464  17.244  0.00  0.00    +0.000 N 
ATOM      2  C   UNL     1       3.762   3.449  17.552  0.00  0.00    +0.000 C 
ATOM      3  C   UNL     1       3.559   3.289  19.114  0.00  0.00    +0.000 C 
ATOM      4  N   UNL     1       3.404   4.484  19.996  0.00  0.00    +0.000 NA
ATOM      5  C   UNL     1       4.398   5.499  19.490  0.00  0.00    +0.000 C 
ATOM      6  C   UNL     1       4.516   5.738  17.944  0.00  0.00    +0.000 C 
ENDROOT
BRANCH   1  12
ATOM      7  C   UNL     1       6.909   4.905  15.945  0.00  0.00    +0.000 A 
ATOM      8  C   UNL     1       7.553   4.942  14.682  0.00  0.00    +0.000 A 
ATOM      9  C   UNL     1       6.922   4.472  13.532  0.00  0.00    +0.000 A 
ATOM     10  C   UNL     1       5.633   3.983  13.638  0.00  0.00    +0.000 A 
ATOM     11  C   UNL     1       4.983   3.978  14.881  0.00  0.00    +0.000 A 
ATOM     12  C   UNL     1       5.570   4.439  16.082  0.00  0.00    +0.000 A 
BRANCH   7  14
ATOM     13  C   UNL     1       7.617   6.715  17.325  0.00  0.00    +0.000 C 
ATOM     14  O   UNL     1       7.589   5.308  17.077  0.00  0.00    +0.000 OA
ENDBRANCH   7  14
ENDBRANCH   1  12
BRANCH   4  15
ATOM     15  C   UNL     1       2.037   5.047  20.186  0.00  0.00    +0.000 C 
BRANCH  15  16
ATOM     16  C   UNL     1       1.686   6.608  20.395  0.00  0.00    +0.000 C 
BRANCH  16  17
ATOM     17  C   UNL     1       1.835   7.883  19.318  0.00  0.00    +0.000 C 
BRANCH  17  18
ATOM     18  N   UNL     1       1.223   9.187  19.816  0.00  0.00    +0.000 N 
ATOM     19  C   UNL     1       1.082  10.012  18.701  0.00  0.00    +0.000 C 
ATOM     20  O   UNL     1       1.965  10.733  18.254  0.00  0.00    +0.000 OA
ATOM     21  C   UNL     1      -0.342  10.034  18.245  0.00  0.00    +0.000 C 
ATOM     22  S   UNL     1      -0.928  11.518  19.036  0.00  0.00    +0.000 S 
ATOM     23  C   UNL     1      -0.457  10.939  20.711  0.00  0.00    +0.000 A 
ATOM     24  C   UNL     1      -1.130  11.741  21.644  0.00  0.00    +0.000 A 
ATOM     25  C   UNL     1      -1.273  11.276  22.947  0.00  0.00    +0.000 A 
ATOM     26  C   UNL     1      -0.737  10.020  23.228  0.00  0.00    +0.000 A 
ATOM     27  C   UNL     1       0.073   9.222  22.274  0.00  0.00    +0.000 A 
ATOM     28  C   UNL     1       0.290   9.684  20.959  0.00  0.00    +0.000 A 
ENDBRANCH  17  18
ENDBRANCH  16  17
ENDBRANCH  15  16
ENDBRANCH   4  15
TORSDOF 6
ENDMDL
MODEL 2
REMARK VINA RESULT:      -7.6      5.421      7.628
REMARK  Name = 
REMARK  7 active torsions:
REMARK  status: ('A' for Active; 'I' for Inactive)
REMARK    1  A    between atoms: C_1  and  O_2
REMARK    2  A    between atoms: O_2  and  C_3
REMARK    3  A    between atoms: C_8  and  N_9
REMARK    4  A    between atoms: N_12  and  C_13
REMARK    5  A    between atoms: C_13  and  C_14
REMARK    6  A    between atoms: C_14  and  C_15
REMARK    7  A    between atoms: C_15  and  N_16
REMARK                            x       y       z     vdW  Elec       q    Type
REMARK                         _______ _______ _______ _____ _____    ______ ____
ROOT
ATOM      1  N   UNL     1       5.071   5.158  18.128  0.00  0.00    +0.000 N 
ATOM      2  C   UNL     1       6.214   5.466  19.013  0.00  0.00    +0.000 C 
ATOM      3  C   UNL     1       7.464   5.976  18.187  0.00  0.00    +0.000 C 
ATOM      4  N   UNL     1       7.314   7.024  17.134  0.00  0.00    +0.000 NA
ATOM      5  C   UNL     1       6.040   6.688  16.398  0.00  0.00    +0.000 C 
ATOM      6  C   UNL     1       4.769   6.293  17.227  0.00  0.00    +0.000 C 
ENDROOT
BRANCH   1  12
ATOM      7  C   UNL     1       3.162   4.271  19.520  0.00  0.00    +0.000 A 
ATOM      8  C   UNL     1       2.296   3.187  19.811  0.00  0.00    +0.000 A 
ATOM      9  C   UNL     1       2.276   2.042  19.018  0.00  0.00    +0.000 A 
ATOM     10  C   UNL     1       3.141   1.967  17.943  0.00  0.00    +0.000 A 
ATOM     11  C   UNL     1       4.023   3.024  17.676  0.00  0.00    +0.000 A 
ATOM     12  C   UNL     1       4.089   4.212  18.441  0.00  0.00    +0.000 A 
BRANCH   7  14
ATOM     13  C   UNL     1       1.805   5.985  20.471  0.00  0.00    +0.000 C 
ATOM     14  O   UNL     1       3.105   5.423  20.280  0.00  0.00    +0.000 OA
ENDBRANCH   7  14
ENDBRANCH   1  12
BRANCH   4  15
ATOM     15  C   UNL     1       7.391   8.454  17.548  0.00  0.00    +0.000 C 
BRANCH  15  16
ATOM     16  C   UNL     1       8.550   9.104  18.463  0.00  0.00    +0.000 C 
BRANCH  16  17
ATOM     17  C   UNL     1       9.501  10.452  18.172  0.00  0.00    +0.000 C 
BRANCH  17  18
ATOM     18  N   UNL     1       9.090  11.683  18.970  0.00  0.00    +0.000 N 
ATOM     19  C   UNL     1       9.770  11.615  20.186  0.00  0.00    +0.000 C 
ATOM     20  O   UNL     1       9.380  10.995  21.167  0.00  0.00    +0.000 OA
ATOM     21  C   UNL     1      10.935  12.553  20.184  0.00  0.00    +0.000 C 
ATOM     22  S   UNL     1      10.233  13.968  21.005  0.00  0.00    +0.000 S 
ATOM     23  C   UNL     1       8.864  14.124  19.796  0.00  0.00    +0.000 A 
ATOM     24  C   UNL     1       8.308  15.404  19.944  0.00  0.00    +0.000 A 
ATOM     25  C   UNL     1       7.544  15.926  18.906  0.00  0.00    +0.000 A 
ATOM     26  C   UNL     1       7.395  15.128  17.772  0.00  0.00    +0.000 A 
ATOM     27  C   UNL     1       7.885  13.732  17.660  0.00  0.00    +0.000 A 
ATOM     28  C   UNL     1       8.618  13.144  18.713  0.00  0.00    +0.000 A 
ENDBRANCH  17  18
ENDBRANCH  16  17
ENDBRANCH  15  16
ENDBRANCH   4  15
TORSDOF 6
ENDMDL
MODEL 3
REMARK VINA RESULT:      -7.5      5.384      7.592
REMARK  Name = 
REMARK  7 active torsions:
REMARK  status: ('A' for Active; 'I' for Inactive)
REMARK    1  A    between atoms: C_1  and  O_2
REMARK    2  A    between atoms: O_2  and  C_3
REMARK    3  A    between atoms: C_8  and  N_9
REMARK    4  A    between atoms: N_12  and  C_13
REMARK    5  A    between atoms: C_13  and  C_14
REMARK    6  A    between atoms: C_14  and  C_15
REMARK    7  A    between atoms: C_15  and  N_16
REMARK                            x       y       z     vdW  Elec       q    Type
REMARK                         _______ _______ _______ _____ _____    ______ ____
ROOT
ATOM      1  N   UNL     1       4.999   4.967  18.208  0.00  0.00    +0.000 N 
ATOM      2  C   UNL     1       5.701   5.722  19.267  0.00  0.00    +0.000 C 
ATOM      3  C   UNL     1       7.231   5.925  18.913  0.00  0.00    +0.000 C 
ATOM      4  N   UNL     1       7.652   6.396  17.560  0.00  0.00    +0.000 NA
ATOM      5  C   UNL     1       6.765   5.670  16.579  0.00  0.00    +0.000 C 
ATOM      6  C   UNL     1       5.229   5.570  16.876  0.00  0.00    +0.000 C 
ENDROOT
BRANCH   1  12
ATOM      7  C   UNL     1       3.807   3.019  19.282  0.00  0.00    +0.000 A 
ATOM      8  C   UNL     1       2.637   2.221  19.349  0.00  0.00    +0.000 A 
ATOM      9  C   UNL     1       1.484   2.564  18.647  0.00  0.00    +0.000 A 
ATOM     10  C   UNL     1       1.505   3.697  17.855  0.00  0.00    +0.000 A 
ATOM     11  C   UNL     1       2.673   4.468  17.761  0.00  0.00    +0.000 A 
ATOM     12  C   UNL     1       3.873   4.172  18.450  0.00  0.00    +0.000 A 
BRANCH   7  14
ATOM     13  C   UNL     1       4.976   1.342  20.509  0.00  0.00    +0.000 C 
ATOM     14  O   UNL     1       4.909   2.693  20.049  0.00  0.00    +0.000 OA
ENDBRANCH   7  14
ENDBRANCH   1  12
BRANCH   4  15
ATOM     15  C   UNL     1       7.716   7.865  17.315  0.00  0.00    +0.000 C 
BRANCH  15  16
ATOM     16  C   UNL     1       8.333   8.959  18.328  0.00  0.00    +0.000 C 
BRANCH  16  17
ATOM     17  C   UNL     1       9.318  10.273  17.999  0.00  0.00    +0.000 C 
BRANCH  17  18
ATOM     18  N   UNL     1       9.004  11.507  18.837  0.00  0.00    +0.000 N 
ATOM     19  C   UNL     1       9.739  11.384  20.016  0.00  0.00    +0.000 C 
ATOM     20  O   UNL     1       9.369  10.763  21.004  0.00  0.00    +0.000 OA
ATOM     21  C   UNL     1      10.945  12.267  19.972  0.00  0.00    +0.000 C 
ATOM     22  S   UNL     1      10.350  13.698  20.851  0.00  0.00    +0.000 S 
ATOM     23  C   UNL     1       8.932  13.939  19.714  0.00  0.00    +0.000 A 
ATOM     24  C   UNL     1       8.444  15.239  19.912  0.00  0.00    +0.000 A 
ATOM     25  C   UNL     1       7.655  15.816  18.922  0.00  0.00    +0.000 A 
ATOM     26  C   UNL     1       7.414  15.048  17.784  0.00  0.00    +0.000 A 
ATOM     27  C   UNL     1       7.833  13.633  17.623  0.00  0.00    +0.000 A 
ATOM     28  C   UNL     1       8.588  12.992  18.628  0.00  0.00    +0.000 A 
ENDBRANCH  17  18
ENDBRANCH  16  17
ENDBRANCH  15  16
ENDBRANCH   4  15
TORSDOF 6
ENDMDL
MODEL 4
REMARK VINA RESULT:      -7.5      0.826      1.035
REMARK  Name = 
REMARK  7 active torsions:
REMARK  status: ('A' for Active; 'I' for Inactive)
REMARK    1  A    between atoms: C_1  and  O_2
REMARK    2  A    between atoms: O_2  and  C_3
REMARK    3  A    between atoms: C_8  and  N_9
REMARK    4  A    between atoms: N_12  and  C_13
REMARK    5  A    between atoms: C_13  and  C_14
REMARK    6  A    between atoms: C_14  and  C_15
REMARK    7  A    between atoms: C_15  and  N_16
REMARK                            x       y       z     vdW  Elec       q    Type
REMARK                         _______ _______ _______ _____ _____    ______ ____
ROOT
ATOM      1  N   UNL     1       4.293   4.607  17.668  0.00  0.00    +0.000 N 
ATOM      2  C   UNL     1       3.019   5.339  17.504  0.00  0.00    +0.000 C 
ATOM      3  C   UNL     1       1.834   4.614  18.264  0.00  0.00    +0.000 C 
ATOM      4  N   UNL     1       1.997   4.146  19.673  0.00  0.00    +0.000 NA
ATOM      5  C   UNL     1       3.384   3.557  19.752  0.00  0.00    +0.000 C 
ATOM      6  C   UNL     1       4.576   4.336  19.095  0.00  0.00    +0.000 C 
ENDROOT
BRANCH   1  12
ATOM      7  C   UNL     1       6.487   5.471  16.770  0.00  0.00    +0.000 A 
ATOM      8  C   UNL     1       7.406   5.510  15.691  0.00  0.00    +0.000 A 
ATOM      9  C   UNL     1       7.243   4.701  14.569  0.00  0.00    +0.000 A 
ATOM     10  C   UNL     1       6.144   3.864  14.511  0.00  0.00    +0.000 A 
ATOM     11  C   UNL     1       5.215   3.850  15.563  0.00  0.00    +0.000 A 
ATOM     12  C   UNL     1       5.328   4.645  16.727  0.00  0.00    +0.000 A 
BRANCH   7  14
ATOM     13  C   UNL     1       7.592   7.348  17.738  0.00  0.00    +0.000 C 
ATOM     14  O   UNL     1       6.718   6.229  17.900  0.00  0.00    +0.000 OA
ENDBRANCH   7  14
ENDBRANCH   1  12
BRANCH   4  15
ATOM     15  C   UNL     1       1.706   5.109  20.773  0.00  0.00    +0.000 C 
BRANCH  15  16
ATOM     16  C   UNL     1       1.963   6.701  20.718  0.00  0.00    +0.000 C 
BRANCH  16  17
ATOM     17  C   UNL     1       1.734   7.770  19.449  0.00  0.00    +0.000 C 
BRANCH  17  18
ATOM     18  N   UNL     1       1.179   9.125  19.875  0.00  0.00    +0.000 N 
ATOM     19  C   UNL     1       1.089   9.899  18.718  0.00  0.00    +0.000 C 
ATOM     20  O   UNL     1       2.009  10.555  18.247  0.00  0.00    +0.000 OA
ATOM     21  C   UNL     1      -0.328   9.965  18.245  0.00  0.00    +0.000 C 
ATOM     22  S   UNL     1      -0.851  11.512  18.955  0.00  0.00    +0.000 S 
ATOM     23  C   UNL     1      -0.424  10.996  20.662  0.00  0.00    +0.000 A 
ATOM     24  C   UNL     1      -1.067  11.875  21.546  0.00  0.00    +0.000 A 
ATOM     25  C   UNL     1      -1.245  11.482  22.868  0.00  0.00    +0.000 A 
ATOM     26  C   UNL     1      -0.772  10.218  23.218  0.00  0.00    +0.000 A 
ATOM     27  C   UNL     1       0.009   9.336  22.314  0.00  0.00    +0.000 A 
ATOM     28  C   UNL     1       0.260   9.721  20.980  0.00  0.00    +0.000 A 
ENDBRANCH  17  18
ENDBRANCH  16  17
ENDBRANCH  15  16
ENDBRANCH   4  15
TORSDOF 6
ENDMDL
MODEL 5
REMARK VINA RESULT:      -7.3      3.604      9.794
REMARK  Name = 
REMARK  7 active torsions:
REMARK  status: ('A' for Active; 'I' for Inactive)
REMARK    1  A    between atoms: C_1  and  O_2
REMARK    2  A    between atoms: O_2  and  C_3
REMARK    3  A    between atoms: C_8  and  N_9
REMARK    4  A    between atoms: N_12  and  C_13
REMARK    5  A    between atoms: C_13  and  C_14
REMARK    6  A    between atoms: C_14  and  C_15
REMARK    7  A    between atoms: C_15  and  N_16
REMARK                            x       y       z     vdW  Elec       q    Type
REMARK                         _______ _______ _______ _____ _____    ______ ____
ROOT
ATOM      1  N   UNL     1      -1.931  11.358  18.584  0.00  0.00    +0.000 N 
ATOM      2  C   UNL     1      -0.832  12.202  18.071  0.00  0.00    +0.000 C 
ATOM      3  C   UNL     1       0.421  12.171  19.038  0.00  0.00    +0.000 C 
ATOM      4  N   UNL     1       0.950  10.880  19.569  0.00  0.00    +0.000 NA
ATOM      5  C   UNL     1      -0.261  10.051  19.916  0.00  0.00    +0.000 C 
ATOM      6  C   UNL     1      -1.456   9.993  18.901  0.00  0.00    +0.000 C 
ENDROOT
BRANCH   1  12
ATOM      7  C   UNL     1      -3.924  11.472  17.040  0.00  0.00    +0.000 A 
ATOM      8  C   UNL     1      -5.273  11.867  16.855  0.00  0.00    +0.000 A 
ATOM      9  C   UNL     1      -6.042  12.342  17.914  0.00  0.00    +0.000 A 
ATOM     10  C   UNL     1      -5.455  12.447  19.162  0.00  0.00    +0.000 A 
ATOM     11  C   UNL     1      -4.110  12.089  19.338  0.00  0.00    +0.000 A 
ATOM     12  C   UNL     1      -3.280  11.599  18.304  0.00  0.00    +0.000 A 
BRANCH   7  14
ATOM     13  C   UNL     1      -3.984  10.489  14.869  0.00  0.00    +0.000 C 
ATOM     14  O   UNL     1      -3.212  10.933  15.986  0.00  0.00    +0.000 OA
ENDBRANCH   7  14
ENDBRANCH   1  12
BRANCH   4  15
ATOM     15  C   UNL     1       1.951  10.139  18.748  0.00  0.00    +0.000 C 
BRANCH  15  16
ATOM     16  C   UNL     1       1.955   8.547  18.486  0.00  0.00    +0.000 C 
BRANCH  16  17
ATOM     17  C   UNL     1       2.319   7.298  19.541  0.00  0.00    +0.000 C 
BRANCH  17  18
ATOM     18  N   UNL     1       3.098   6.155  18.901  0.00  0.00    +0.000 N 
ATOM     19  C   UNL     1       2.521   4.973  19.363  0.00  0.00    +0.000 C 
ATOM     20  O   UNL     1       2.812   4.424  20.418  0.00  0.00    +0.000 OA
ATOM     21  C   UNL     1       1.643   4.375  18.311  0.00  0.00    +0.000 C 
ATOM     22  S   UNL     1       2.751   3.189  17.578  0.00  0.00    +0.000 S 
ATOM     23  C   UNL     1       4.014   4.456  17.179  0.00  0.00    +0.000 A 
ATOM     24  C   UNL     1       4.894   3.900  16.238  0.00  0.00    +0.000 A 
ATOM     25  C   UNL     1       5.683   4.753  15.474  0.00  0.00    +0.000 A 
ATOM     26  C   UNL     1       5.531   6.121  15.698  0.00  0.00    +0.000 A 
ATOM     27  C   UNL     1       4.687   6.704  16.770  0.00  0.00    +0.000 A 
ATOM     28  C   UNL     1       3.911   5.872  17.605  0.00  0.00    +0.000 A 
ENDBRANCH  17  18
ENDBRANCH  16  17
ENDBRANCH  15  16
ENDBRANCH   4  15
TORSDOF 6
ENDMDL
MODEL 6
REMARK VINA RESULT:      -7.3      3.129     10.329
REMARK  Name = 
REMARK  7 active torsions:
REMARK  status: ('A' for Active; 'I' for Inactive)
REMARK    1  A    between atoms: C_1  and  O_2
REMARK    2  A    between atoms: O_2  and  C_3
REMARK    3  A    between atoms: C_8  and  N_9
REMARK    4  A    between atoms: N_12  and  C_13
REMARK    5  A    between atoms: C_13  and  C_14
REMARK    6  A    between atoms: C_14  and  C_15
REMARK    7  A    between atoms: C_15  and  N_16
REMARK                            x       y       z     vdW  Elec       q    Type
REMARK                         _______ _______ _______ _____ _____    ______ ____
ROOT
ATOM      1  N   UNL     1      -0.767  12.214  21.207  0.00  0.00    +0.000 N 
ATOM      2  C   UNL     1      -0.851  12.552  19.770  0.00  0.00    +0.000 C 
ATOM      3  C   UNL     1       0.530  12.303  19.037  0.00  0.00    +0.000 C 
ATOM      4  N   UNL     1       1.290  11.033  19.238  0.00  0.00    +0.000 NA
ATOM      5  C   UNL     1       1.176  10.715  20.709  0.00  0.00    +0.000 C 
ATOM      6  C   UNL     1      -0.221  10.854  21.408  0.00  0.00    +0.000 C 
ENDROOT
BRANCH   1  12
ATOM      7  C   UNL     1      -1.190  13.886  23.050  0.00  0.00    +0.000 A 
ATOM      8  C   UNL     1      -2.045  14.329  24.090  0.00  0.00    +0.000 A 
ATOM      9  C   UNL     1      -3.310  13.777  24.273  0.00  0.00    +0.000 A 
ATOM     10  C   UNL     1      -3.717  12.760  23.430  0.00  0.00    +0.000 A 
ATOM     11  C   UNL     1      -2.857  12.297  22.422  0.00  0.00    +0.000 A 
ATOM     12  C   UNL     1      -1.564  12.817  22.186  0.00  0.00    +0.000 A 
BRANCH   7  14
ATOM     13  C   UNL     1       0.035  15.929  22.959  0.00  0.00    +0.000 C 
ATOM     14  O   UNL     1       0.028  14.505  22.847  0.00  0.00    +0.000 OA
ENDBRANCH   7  14
ENDBRANCH   1  12
BRANCH   4  15
ATOM     15  C   UNL     1       0.965   9.872  18.361  0.00  0.00    +0.000 C 
BRANCH  15  16
ATOM     16  C   UNL     1       1.858   8.538  18.202  0.00  0.00    +0.000 C 
BRANCH  16  17
ATOM     17  C   UNL     1       2.267   7.390  19.352  0.00  0.00    +0.000 C 
BRANCH  17  18
ATOM     18  N   UNL     1       3.091   6.232  18.803  0.00  0.00    +0.000 N 
ATOM     19  C   UNL     1       2.574   5.069  19.374  0.00  0.00    +0.000 C 
ATOM     20  O   UNL     1       2.900   4.628  20.469  0.00  0.00    +0.000 OA
ATOM     21  C   UNL     1       1.714   4.343  18.390  0.00  0.00    +0.000 C 
ATOM     22  S   UNL     1       2.868   3.148  17.748  0.00  0.00    +0.000 S 
ATOM     23  C   UNL     1       4.068   4.431  17.223  0.00  0.00    +0.000 A 
ATOM     24  C   UNL     1       4.962   3.835  16.321  0.00  0.00    +0.000 A 
ATOM     25  C   UNL     1       5.704   4.652  15.475  0.00  0.00    +0.000 A 
ATOM     26  C   UNL     1       5.491   6.026  15.582  0.00  0.00    +0.000 A 
ATOM     27  C   UNL     1       4.632   6.663  16.610  0.00  0.00    +0.000 A 
ATOM     28  C   UNL     1       3.904   5.872  17.525  0.00  0.00    +0.000 A 
ENDBRANCH  17  18
ENDBRANCH  16  17
ENDBRANCH  15  16
ENDBRANCH   4  15
TORSDOF 6
ENDMDL
MODEL 7
REMARK VINA RESULT:      -7.3      3.234      9.062
REMARK  Name = 
REMARK  7 active torsions:
REMARK  status: ('A' for Active; 'I' for Inactive)
REMARK    1  A    between atoms: C_1  and  O_2
REMARK    2  A    between atoms: O_2  and  C_3
REMARK    3  A    between atoms: C_8  and  N_9
REMARK    4  A    between atoms: N_12  and  C_13
REMARK    5  A    between atoms: C_13  and  C_14
REMARK    6  A    between atoms: C_14  and  C_15
REMARK    7  A    between atoms: C_15  and  N_16
REMARK                            x       y       z     vdW  Elec       q    Type
REMARK                         _______ _______ _______ _____ _____    ______ ____
ROOT
ATOM      1  N   UNL     1      -1.105  10.445  18.937  0.00  0.00    +0.000 N 
ATOM      2  C   UNL     1       0.342  10.567  18.663  0.00  0.00    +0.000 C 
ATOM      3  C   UNL     1       1.153  10.911  19.978  0.00  0.00    +0.000 C 
ATOM      4  N   UNL     1       0.916  10.159  21.246  0.00  0.00    +0.000 NA
ATOM      5  C   UNL     1      -0.577   9.968  21.338  0.00  0.00    +0.000 C 
ATOM      6  C   UNL     1      -1.363   9.515  20.058  0.00  0.00    +0.000 C 
ENDROOT
BRANCH   1  12
ATOM      7  C   UNL     1      -3.255  11.510  18.154  0.00  0.00    +0.000 A 
ATOM      8  C   UNL     1      -4.250  11.597  17.149  0.00  0.00    +0.000 A 
ATOM      9  C   UNL     1      -4.106  10.945  15.926  0.00  0.00    +0.000 A 
ATOM     10  C   UNL     1      -2.972  10.182  15.714  0.00  0.00    +0.000 A 
ATOM     11  C   UNL     1      -2.004  10.067  16.722  0.00  0.00    +0.000 A 
ATOM     12  C   UNL     1      -2.093  10.706  17.981  0.00  0.00    +0.000 A 
BRANCH   7  14
ATOM     13  C   UNL     1      -4.732  12.516  19.732  0.00  0.00    +0.000 C 
ATOM     14  O   UNL     1      -3.393  12.230  19.325  0.00  0.00    +0.000 OA
ENDBRANCH   7  14
ENDBRANCH   1  12
BRANCH   4  15
ATOM     15  C   UNL     1       1.683   8.900  21.471  0.00  0.00    +0.000 C 
BRANCH  15  16
ATOM     16  C   UNL     1       1.857   7.704  20.402  0.00  0.00    +0.000 C 
BRANCH  16  17
ATOM     17  C   UNL     1       1.797   6.048  20.642  0.00  0.00    +0.000 C 
BRANCH  17  18
ATOM     18  N   UNL     1       2.710   5.255  19.714  0.00  0.00    +0.000 N 
ATOM     19  C   UNL     1       2.389   3.910  19.895  0.00  0.00    +0.000 C 
ATOM     20  O   UNL     1       2.857   3.195  20.773  0.00  0.00    +0.000 OA
ATOM     21  C   UNL     1       1.548   3.418  18.761  0.00  0.00    +0.000 C 
ATOM     22  S   UNL     1       2.784   2.668  17.721  0.00  0.00    +0.000 S 
ATOM     23  C   UNL     1       3.768   4.210  17.598  0.00  0.00    +0.000 A 
ATOM     24  C   UNL     1       4.652   4.066  16.518  0.00  0.00    +0.000 A 
ATOM     25  C   UNL     1       5.215   5.207  15.957  0.00  0.00    +0.000 A 
ATOM     26  C   UNL     1       4.843   6.430  16.514  0.00  0.00    +0.000 A 
ATOM     27  C   UNL     1       4.000   6.577  17.726  0.00  0.00    +0.000 A 
ATOM     28  C   UNL     1       3.453   5.441  18.360  0.00  0.00    +0.000 A 
ENDBRANCH  17  18
ENDBRANCH  16  17
ENDBRANCH  15  16
ENDBRANCH   4  15
TORSDOF 6
ENDMDL
MODEL 8
REMARK VINA RESULT:      -7.3      5.252      7.333
REMARK  Name = 
REMARK  7 active torsions:
REMARK  status: ('A' for Active; 'I' for Inactive)
REMARK    1  A    between atoms: C_1  and  O_2
REMARK    2  A    between atoms: O_2  and  C_3
REMARK    3  A    between atoms: C_8  and  N_9
REMARK    4  A    between atoms: N_12  and  C_13
REMARK    5  A    between atoms: C_13  and  C_14
REMARK    6  A    between atoms: C_14  and  C_15
REMARK    7  A    between atoms: C_15  and  N_16
REMARK                            x       y       z     vdW  Elec       q    Type
REMARK                         _______ _______ _______ _____ _____    ______ ____
ROOT
ATOM      1  N   UNL     1       4.808   4.840  18.137  0.00  0.00    +0.000 N 
ATOM      2  C   UNL     1       5.280   5.872  19.084  0.00  0.00    +0.000 C 
ATOM      3  C   UNL     1       6.837   6.120  18.940  0.00  0.00    +0.000 C 
ATOM      4  N   UNL     1       7.464   6.307  17.597  0.00  0.00    +0.000 NA
ATOM      5  C   UNL     1       6.797   5.305  16.689  0.00  0.00    +0.000 C 
ATOM      6  C   UNL     1       5.238   5.143  16.754  0.00  0.00    +0.000 C 
ENDROOT
BRANCH   1  12
ATOM      7  C   UNL     1       3.694   2.752  19.014  0.00  0.00    +0.000 A 
ATOM      8  C   UNL     1       2.517   1.965  19.089  0.00  0.00    +0.000 A 
ATOM      9  C   UNL     1       1.300   2.431  18.595  0.00  0.00    +0.000 A 
ATOM     10  C   UNL     1       1.262   3.679  18.002  0.00  0.00    +0.000 A 
ATOM     11  C   UNL     1       2.433   4.444  17.896  0.00  0.00    +0.000 A 
ATOM     12  C   UNL     1       3.695   4.027  18.379  0.00  0.00    +0.000 A 
BRANCH   7  14
ATOM     13  C   UNL     1       4.751   1.709  20.878  0.00  0.00    +0.000 C 
ATOM     14  O   UNL     1       4.867   2.294  19.580  0.00  0.00    +0.000 OA
ENDBRANCH   7  14
ENDBRANCH   1  12
BRANCH   4  15
ATOM     15  C   UNL     1       7.502   7.683  17.024  0.00  0.00    +0.000 C 
BRANCH  15  16
ATOM     16  C   UNL     1       7.979   9.012  17.805  0.00  0.00    +0.000 C 
BRANCH  16  17
ATOM     17  C   UNL     1       9.039   9.163  19.094  0.00  0.00    +0.000 C 
BRANCH  17  18
ATOM     18  N   UNL     1       9.423  10.603  19.412  0.00  0.00    +0.000 N 
ATOM     19  C   UNL     1       9.676  11.227  18.190  0.00  0.00    +0.000 C 
ATOM     20  O   UNL     1      10.750  11.195  17.603  0.00  0.00    +0.000 OA
ATOM     21  C   UNL     1       8.520  12.090  17.797  0.00  0.00    +0.000 C 
ATOM     22  S   UNL     1       9.071  13.681  18.376  0.00  0.00    +0.000 S 
ATOM     23  C   UNL     1       9.298  13.094  20.098  0.00  0.00    +0.000 A 
ATOM     24  C   UNL     1       9.383  14.224  20.926  0.00  0.00    +0.000 A 
ATOM     25  C   UNL     1       9.152  14.074  22.288  0.00  0.00    +0.000 A 
ATOM     26  C   UNL     1       8.838  12.791  22.736  0.00  0.00    +0.000 A 
ATOM     27  C   UNL     1       8.861  11.578  21.882  0.00  0.00    +0.000 A 
ATOM     28  C   UNL     1       9.145  11.677  20.503  0.00  0.00    +0.000 A 
ENDBRANCH  17  18
ENDBRANCH  16  17
ENDBRANCH  15  16
ENDBRANCH   4  15
TORSDOF 6
ENDMDL
MODEL 9
REMARK VINA RESULT:      -7.3      5.238      7.255
REMARK  Name = 
REMARK  7 active torsions:
REMARK  status: ('A' for Active; 'I' for Inactive)
REMARK    1  A    between atoms: C_1  and  O_2
REMARK    2  A    between atoms: O_2  and  C_3
REMARK    3  A    between atoms: C_8  and  N_9
REMARK    4  A    between atoms: N_12  and  C_13
REMARK    5  A    between atoms: C_13  and  C_14
REMARK    6  A    between atoms: C_14  and  C_15
REMARK    7  A    between atoms: C_15  and  N_16
REMARK                            x       y       z     vdW  Elec       q    Type
REMARK                         _______ _______ _______ _____ _____    ______ ____
ROOT
ATOM      1  N   UNL     1       4.944   5.209  18.050  0.00  0.00    +0.000 N 
ATOM      2  C   UNL     1       6.330   4.777  18.325  0.00  0.00    +0.000 C 
ATOM      3  C   UNL     1       7.362   5.505  17.372  0.00  0.00    +0.000 C 
ATOM      4  N   UNL     1       7.302   6.982  17.159  0.00  0.00    +0.000 NA
ATOM      5  C   UNL     1       5.836   7.321  17.043  0.00  0.00    +0.000 C 
ATOM      6  C   UNL     1       4.829   6.684  18.063  0.00  0.00    +0.000 C 
ENDROOT
BRANCH   1  12
ATOM      7  C   UNL     1       3.795   3.184  19.024  0.00  0.00    +0.000 A 
ATOM      8  C   UNL     1       2.623   2.389  19.090  0.00  0.00    +0.000 A 
ATOM      9  C   UNL     1       1.437   2.794  18.484  0.00  0.00    +0.000 A 
ATOM     10  C   UNL     1       1.424   3.989  17.788  0.00  0.00    +0.000 A 
ATOM     11  C   UNL     1       2.593   4.759  17.693  0.00  0.00    +0.000 A 
ATOM     12  C   UNL     1       3.825   4.402  18.288  0.00  0.00    +0.000 A 
BRANCH   7  14
ATOM     13  C   UNL     1       4.769   1.737  20.650  0.00  0.00    +0.000 C 
ATOM     14  O   UNL     1       4.934   2.790  19.699  0.00  0.00    +0.000 OA
ENDBRANCH   7  14
ENDBRANCH   1  12
BRANCH   4  15
ATOM     15  C   UNL     1       8.032   7.862  18.115  0.00  0.00    +0.000 C 
BRANCH  15  16
ATOM     16  C   UNL     1       8.220   9.458  17.967  0.00  0.00    +0.000 C 
BRANCH  16  17
ATOM     17  C   UNL     1       9.631  10.356  17.880  0.00  0.00    +0.000 C 
BRANCH  17  18
ATOM     18  N   UNL     1       9.583  11.659  18.670  0.00  0.00    +0.000 N 
ATOM     19  C   UNL     1       9.461  12.687  17.735  0.00  0.00    +0.000 C 
ATOM     20  O   UNL     1      10.401  13.212  17.152  0.00  0.00    +0.000 OA
ATOM     21  C   UNL     1       8.051  13.182  17.686  0.00  0.00    +0.000 C 
ATOM     22  S   UNL     1       8.148  14.592  18.769  0.00  0.00    +0.000 S 
ATOM     23  C   UNL     1       8.777  13.600  20.177  0.00  0.00    +0.000 A 
ATOM     24  C   UNL     1       8.614  14.364  21.343  0.00  0.00    +0.000 A 
ATOM     25  C   UNL     1       8.627  13.717  22.574  0.00  0.00    +0.000 A 
ATOM     26  C   UNL     1       8.794  12.333  22.555  0.00  0.00    +0.000 A 
ATOM     27  C   UNL     1       9.081  11.540  21.334  0.00  0.00    +0.000 A 
ATOM     28  C   UNL     1       9.131  12.166  20.070  0.00  0.00    +0.000 A 
ENDBRANCH  17  18
ENDBRANCH  16  17
ENDBRANCH  15  16
ENDBRANCH   4  15
TORSDOF 6
ENDMDL
