MODEL 1
REMARK VINA RESULT:      -8.3      0.000      0.000
REMARK  Name = 
REMARK  6 active torsions:
REMARK  status: ('A' for Active; 'I' for Inactive)
REMARK    1  A    between atoms: C_1  and  C_2
REMARK    2  A    between atoms: C_2  and  C_3
REMARK    3  A    between atoms: C_2  and  O_4
REMARK    4  A    between atoms: O_4  and  C_5
REMARK    5  A    between atoms: C_11  and  C_12
REMARK    6  A    between atoms: C_14  and  N_15
REMARK                            x       y       z     vdW  Elec       q    Type
REMARK                         _______ _______ _______ _____ _____    ______ ____
ROOT
ATOM      1  C   UNL     1       0.298   9.932  21.059  0.00  0.00    +0.000 A 
ATOM      2  C   UNL     1      -0.611  10.974  21.047  0.00  0.00    +0.000 A 
ATOM      3  C   UNL     1      -1.229  11.318  22.229  0.00  0.00    +0.000 A 
ATOM      4  N   UNL     1      -0.959  10.623  23.349  0.00  0.00    +0.000 NA
ATOM      5  C   UNL     1      -0.065   9.623  23.263  0.00  0.00    +0.000 A 
ATOM      6  N   UNL     1       0.587   9.227  22.166  0.00  0.00    +0.000 NA
ENDROOT
BRANCH   3   7
ATOM      7  N   UNL     1      -2.132  12.355  22.283  0.00  0.00    +0.000 N 
ATOM      8  C   UNL     1      -2.808  12.818  21.066  0.00  0.00    +0.000 C 
ATOM      9  C   UNL     1      -4.344  12.714  21.188  0.00  0.00    +0.000 C 
ATOM     10  N   UNL     1      -4.817  13.318  22.440  0.00  0.00    +0.000 N 
ATOM     11  C   UNL     1      -5.760  14.314  22.494  0.00  0.00    +0.000 A 
ATOM     12  C   UNL     1      -6.793  14.375  21.574  0.00  0.00    +0.000 A 
ATOM     13  C   UNL     1      -7.706  15.398  21.701  0.00  0.00    +0.000 A 
ATOM     14  N   UNL     1      -7.630  16.340  22.653  0.00  0.00    +0.000 NA
ATOM     15  C   UNL     1      -6.605  16.203  23.498  0.00  0.00    +0.000 A 
ATOM     16  N   UNL     1      -5.677  15.232  23.477  0.00  0.00    +0.000 NA
ATOM     17  C   UNL     1      -4.145  12.865  23.662  0.00  0.00    +0.000 C 
ATOM     18  C   UNL     1      -2.609  12.950  23.543  0.00  0.00    +0.000 C 
ENDBRANCH   3   7
BRANCH   1  25
ATOM     19  C   UNL     1       2.747   6.200  19.374  0.00  0.00    +0.000 A 
ATOM     20  C   UNL     1       3.174   6.471  18.074  0.00  0.00    +0.000 A 
ATOM     21  C   UNL     1       2.910   7.695  17.454  0.00  0.00    +0.000 A 
ATOM     22  C   UNL     1       2.181   8.630  18.182  0.00  0.00    +0.000 A 
ATOM     23  N   UNL     1       1.757   9.883  17.853  0.00  0.00    +0.000 N 
ATOM     24  N   UNL     1       1.032  10.486  18.802  0.00  0.00    +0.000 NA
ATOM     25  C   UNL     1       1.016   9.605  19.823  0.00  0.00    +0.000 A 
ATOM     26  C   UNL     1       1.727   8.412  19.479  0.00  0.00    +0.000 A 
ATOM     27  C   UNL     1       2.024   7.172  20.088  0.00  0.00    +0.000 A 
ATOM     28  H   UNL     1       1.918  10.379  16.985  0.00  0.00    +0.000 HD
BRANCH  19  29
ATOM     29  O   UNL     1       2.975   5.033  20.058  0.00  0.00    +0.000 OA
BRANCH  29  31
ATOM     30  C   UNL     1       1.163   3.612  19.414  0.00  0.00    +0.000 C 
ATOM     31  C   UNL     1       1.855   4.307  20.583  0.00  0.00    +0.000 C 
ATOM     32  C   UNL     1       2.334   3.281  21.606  0.00  0.00    +0.000 C 
ENDBRANCH  29  31
ENDBRANCH  19  29
ENDBRANCH   1  25
TORSDOF 4
ENDMDL
MODEL 2
REMARK VINA RESULT:      -8.2      3.845      6.519
REMARK  Name = 
REMARK  6 active torsions:
REMARK  status: ('A' for Active; 'I' for Inactive)
REMARK    1  A    between atoms: C_1  and  C_2
REMARK    2  A    between atoms: C_2  and  C_3
REMARK    3  A    between atoms: C_2  and  O_4
REMARK    4  A    between atoms: O_4  and  C_5
REMARK    5  A    between atoms: C_11  and  C_12
REMARK    6  A    between atoms: C_14  and  N_15
REMARK                            x       y       z     vdW  Elec       q    Type
REMARK                         _______ _______ _______ _____ _____    ______ ____
ROOT
ATOM      1  C   UNL     1       2.785   4.722  18.986  0.00  0.00    +0.000 A 
ATOM      2  C   UNL     1       2.681   6.097  19.095  0.00  0.00    +0.000 A 
ATOM      3  C   UNL     1       1.905   6.618  20.106  0.00  0.00    +0.000 A 
ATOM      4  N   UNL     1       1.249   5.788  20.938  0.00  0.00    +0.000 NA
ATOM      5  C   UNL     1       1.406   4.466  20.753  0.00  0.00    +0.000 A 
ATOM      6  N   UNL     1       2.143   3.874  19.808  0.00  0.00    +0.000 NA
ENDROOT
BRANCH   3   7
ATOM      7  N   UNL     1       1.775   7.977  20.273  0.00  0.00    +0.000 N 
ATOM      8  C   UNL     1       1.834   8.879  19.117  0.00  0.00    +0.000 C 
ATOM      9  C   UNL     1       0.546   9.719  18.977  0.00  0.00    +0.000 C 
ATOM     10  N   UNL     1       0.188  10.352  20.252  0.00  0.00    +0.000 N 
ATOM     11  C   UNL     1       0.003  11.704  20.404  0.00  0.00    +0.000 A 
ATOM     12  C   UNL     1      -0.522  12.475  19.381  0.00  0.00    +0.000 A 
ATOM     13  C   UNL     1      -0.687  13.823  19.614  0.00  0.00    +0.000 A 
ATOM     14  N   UNL     1      -0.346  14.420  20.766  0.00  0.00    +0.000 NA
ATOM     15  C   UNL     1       0.151  13.601  21.697  0.00  0.00    +0.000 A 
ATOM     16  N   UNL     1       0.328  12.275  21.581  0.00  0.00    +0.000 NA
ATOM     17  C   UNL     1       0.130   9.461  21.415  0.00  0.00    +0.000 C 
ATOM     18  C   UNL     1       1.407   8.606  21.553  0.00  0.00    +0.000 C 
ENDBRANCH   3   7
BRANCH   1  25
ATOM     19  C   UNL     1       6.624   6.173  16.553  0.00  0.00    +0.000 A 
ATOM     20  C   UNL     1       7.062   5.146  15.716  0.00  0.00    +0.000 A 
ATOM     21  C   UNL     1       6.389   3.924  15.641  0.00  0.00    +0.000 A 
ATOM     22  C   UNL     1       5.272   3.763  16.455  0.00  0.00    +0.000 A 
ATOM     23  N   UNL     1       4.432   2.702  16.618  0.00  0.00    +0.000 N 
ATOM     24  N   UNL     1       3.475   2.892  17.532  0.00  0.00    +0.000 NA
ATOM     25  C   UNL     1       3.666   4.157  17.959  0.00  0.00    +0.000 A 
ATOM     26  C   UNL     1       4.794   4.751  17.311  0.00  0.00    +0.000 A 
ATOM     27  C   UNL     1       5.483   5.984  17.353  0.00  0.00    +0.000 A 
ATOM     28  H   UNL     1       4.469   1.808  16.142  0.00  0.00    +0.000 HD
BRANCH  19  29
ATOM     29  O   UNL     1       7.217   7.404  16.676  0.00  0.00    +0.000 OA
BRANCH  29  31
ATOM     30  C   UNL     1       8.223   6.856  18.775  0.00  0.00    +0.000 C 
ATOM     31  C   UNL     1       7.468   7.923  17.989  0.00  0.00    +0.000 C 
ATOM     32  C   UNL     1       8.298   9.200  17.893  0.00  0.00    +0.000 C 
ENDBRANCH  29  31
ENDBRANCH  19  29
ENDBRANCH   1  25
TORSDOF 4
ENDMDL
MODEL 3
REMARK VINA RESULT:      -8.2      3.981      6.467
REMARK  Name = 
REMARK  6 active torsions:
REMARK  status: ('A' for Active; 'I' for Inactive)
REMARK    1  A    between atoms: C_1  and  C_2
REMARK    2  A    between atoms: C_2  and  C_3
REMARK    3  A    between atoms: C_2  and  O_4
REMARK    4  A    between atoms: O_4  and  C_5
REMARK    5  A    between atoms: C_11  and  C_12
REMARK    6  A    between atoms: C_14  and  N_15
REMARK                            x       y       z     vdW  Elec       q    Type
REMARK                         _______ _______ _______ _____ _____    ______ ____
ROOT
ATOM      1  C   UNL     1       3.701   5.327  19.265  0.00  0.00    +0.000 A 
ATOM      2  C   UNL     1       3.331   6.626  19.560  0.00  0.00    +0.000 A 
ATOM      3  C   UNL     1       2.077   6.848  20.084  0.00  0.00    +0.000 A 
ATOM      4  N   UNL     1       1.239   5.812  20.269  0.00  0.00    +0.000 NA
ATOM      5  C   UNL     1       1.684   4.584  19.949  0.00  0.00    +0.000 A 
ATOM      6  N   UNL     1       2.883   4.276  19.446  0.00  0.00    +0.000 NA
ENDROOT
BRANCH   3   7
ATOM      7  N   UNL     1       1.658   8.117  20.410  0.00  0.00    +0.000 N 
ATOM      8  C   UNL     1       1.470   9.130  19.366  0.00  0.00    +0.000 C 
ATOM      9  C   UNL     1       0.024   9.671  19.345  0.00  0.00    +0.000 C 
ATOM     10  N   UNL     1      -0.413  10.065  20.690  0.00  0.00    +0.000 N 
ATOM     11  C   UNL     1      -0.884  11.316  21.001  0.00  0.00    +0.000 A 
ATOM     12  C   UNL     1      -1.608  12.058  20.083  0.00  0.00    +0.000 A 
ATOM     13  C   UNL     1      -2.056  13.301  20.473  0.00  0.00    +0.000 A 
ATOM     14  N   UNL     1      -1.808  13.829  21.681  0.00  0.00    +0.000 NA
ATOM     15  C   UNL     1      -1.105  13.044  22.503  0.00  0.00    +0.000 A 
ATOM     16  N   UNL     1      -0.645  11.812  22.231  0.00  0.00    +0.000 NA
ATOM     17  C   UNL     1      -0.226   9.061  21.742  0.00  0.00    +0.000 C 
ATOM     18  C   UNL     1       1.213   8.503  21.760  0.00  0.00    +0.000 C 
ENDBRANCH   3   7
BRANCH   1  25
ATOM     19  C   UNL     1       5.739   4.442  15.042  0.00  0.00    +0.000 A 
ATOM     20  C   UNL     1       7.119   4.322  15.206  0.00  0.00    +0.000 A 
ATOM     21  C   UNL     1       7.720   4.423  16.463  0.00  0.00    +0.000 A 
ATOM     22  C   UNL     1       6.885   4.670  17.548  0.00  0.00    +0.000 A 
ATOM     23  N   UNL     1       7.167   4.835  18.872  0.00  0.00    +0.000 N 
ATOM     24  N   UNL     1       6.100   5.104  19.632  0.00  0.00    +0.000 NA
ATOM     25  C   UNL     1       5.060   5.070  18.776  0.00  0.00    +0.000 A 
ATOM     26  C   UNL     1       5.504   4.804  17.442  0.00  0.00    +0.000 A 
ATOM     27  C   UNL     1       4.920   4.679  16.161  0.00  0.00    +0.000 A 
ATOM     28  H   UNL     1       8.074   4.790  19.318  0.00  0.00    +0.000 HD
BRANCH  19  29
ATOM     29  O   UNL     1       5.070   4.344  13.849  0.00  0.00    +0.000 OA
BRANCH  29  31
ATOM     30  C   UNL     1       4.493   3.275  11.789  0.00  0.00    +0.000 C 
ATOM     31  C   UNL     1       5.587   3.472  12.834  0.00  0.00    +0.000 C 
ATOM     32  C   UNL     1       6.826   4.095  12.197  0.00  0.00    +0.000 C 
ENDBRANCH  29  31
ENDBRANCH  19  29
ENDBRANCH   1  25
TORSDOF 4
ENDMDL
MODEL 4
REMARK VINA RESULT:      -8.1      1.892      2.224
REMARK  Name = 
REMARK  6 active torsions:
REMARK  status: ('A' for Active; 'I' for Inactive)
REMARK    1  A    between atoms: C_1  and  C_2
REMARK    2  A    between atoms: C_2  and  C_3
REMARK    3  A    between atoms: C_2  and  O_4
REMARK    4  A    between atoms: O_4  and  C_5
REMARK    5  A    between atoms: C_11  and  C_12
REMARK    6  A    between atoms: C_14  and  N_15
REMARK                            x       y       z     vdW  Elec       q    Type
REMARK                         _______ _______ _______ _____ _____    ______ ____
ROOT
ATOM      1  C   UNL     1       0.450   9.984  21.021  0.00  0.00    +0.000 A 
ATOM      2  C   UNL     1      -0.188  11.210  21.070  0.00  0.00    +0.000 A 
ATOM      3  C   UNL     1      -0.767  11.601  22.257  0.00  0.00    +0.000 A 
ATOM      4  N   UNL     1      -0.725  10.779  23.321  0.00  0.00    +0.000 NA
ATOM      5  C   UNL     1      -0.087   9.604  23.179  0.00  0.00    +0.000 A 
ATOM      6  N   UNL     1       0.508   9.148  22.072  0.00  0.00    +0.000 NA
ENDROOT
BRANCH   3   7
ATOM      7  N   UNL     1      -1.404  12.815  22.370  0.00  0.00    +0.000 N 
ATOM      8  C   UNL     1      -2.845  12.878  22.641  0.00  0.00    +0.000 C 
ATOM      9  C   UNL     1      -3.152  13.655  23.939  0.00  0.00    +0.000 C 
ATOM     10  N   UNL     1      -2.449  14.944  23.963  0.00  0.00    +0.000 N 
ATOM     11  C   UNL     1      -3.081  16.151  24.132  0.00  0.00    +0.000 A 
ATOM     12  C   UNL     1      -4.208  16.264  24.928  0.00  0.00    +0.000 A 
ATOM     13  C   UNL     1      -4.779  17.511  25.058  0.00  0.00    +0.000 A 
ATOM     14  N   UNL     1      -4.311  18.605  24.439  0.00  0.00    +0.000 NA
ATOM     15  C   UNL     1      -3.220  18.404  23.693  0.00  0.00    +0.000 A 
ATOM     16  N   UNL     1      -2.574  17.239  23.522  0.00  0.00    +0.000 NA
ATOM     17  C   UNL     1      -1.009  14.892  23.690  0.00  0.00    +0.000 C 
ATOM     18  C   UNL     1      -0.693  14.104  22.402  0.00  0.00    +0.000 C 
ENDBRANCH   3   7
BRANCH   1  25
ATOM     19  C   UNL     1       2.712   6.102  19.415  0.00  0.00    +0.000 A 
ATOM     20  C   UNL     1       3.129   6.315  18.101  0.00  0.00    +0.000 A 
ATOM     21  C   UNL     1       2.906   7.530  17.448  0.00  0.00    +0.000 A 
ATOM     22  C   UNL     1       2.229   8.516  18.158  0.00  0.00    +0.000 A 
ATOM     23  N   UNL     1       1.852   9.776  17.797  0.00  0.00    +0.000 N 
ATOM     24  N   UNL     1       1.169  10.437  18.737  0.00  0.00    +0.000 NA
ATOM     25  C   UNL     1       1.133   9.589  19.785  0.00  0.00    +0.000 A 
ATOM     26  C   UNL     1       1.787   8.357  19.468  0.00  0.00    +0.000 A 
ATOM     27  C   UNL     1       2.042   7.124  20.110  0.00  0.00    +0.000 A 
ATOM     28  H   UNL     1       2.020  10.239  16.912  0.00  0.00    +0.000 HD
BRANCH  19  29
ATOM     29  O   UNL     1       2.903   4.947  20.131  0.00  0.00    +0.000 OA
BRANCH  29  31
ATOM     30  C   UNL     1       0.984   3.623  19.601  0.00  0.00    +0.000 C 
ATOM     31  C   UNL     1       1.765   4.303  20.721  0.00  0.00    +0.000 C 
ATOM     32  C   UNL     1       2.227   3.274  21.749  0.00  0.00    +0.000 C 
ENDBRANCH  29  31
ENDBRANCH  19  29
ENDBRANCH   1  25
TORSDOF 4
ENDMDL
MODEL 5
REMARK VINA RESULT:      -8.1      2.342      4.547
REMARK  Name = 
REMARK  6 active torsions:
REMARK  status: ('A' for Active; 'I' for Inactive)
REMARK    1  A    between atoms: C_1  and  C_2
REMARK    2  A    between atoms: C_2  and  C_3
REMARK    3  A    between atoms: C_2  and  O_4
REMARK    4  A    between atoms: O_4  and  C_5
REMARK    5  A    between atoms: C_11  and  C_12
REMARK    6  A    between atoms: C_14  and  N_15
REMARK                            x       y       z     vdW  Elec       q    Type
REMARK                         _______ _______ _______ _____ _____    ______ ____
ROOT
ATOM      1  C   UNL     1       2.058   7.710  19.215  0.00  0.00    +0.000 A 
ATOM      2  C   UNL     1       1.427   8.655  20.005  0.00  0.00    +0.000 A 
ATOM      3  C   UNL     1       1.205   9.908  19.478  0.00  0.00    +0.000 A 
ATOM      4  N   UNL     1       1.627  10.191  18.233  0.00  0.00    +0.000 NA
ATOM      5  C   UNL     1       2.236   9.212  17.541  0.00  0.00    +0.000 A 
ATOM      6  N   UNL     1       2.484   7.970  17.967  0.00  0.00    +0.000 NA
ENDROOT
BRANCH   3   7
ATOM      7  N   UNL     1       0.569  10.884  20.211  0.00  0.00    +0.000 N 
ATOM      8  C   UNL     1      -0.261  11.893  19.544  0.00  0.00    +0.000 C 
ATOM      9  C   UNL     1      -1.715  11.875  20.063  0.00  0.00    +0.000 C 
ATOM     10  N   UNL     1      -1.752  11.898  21.531  0.00  0.00    +0.000 N 
ATOM     11  C   UNL     1      -2.433  12.841  22.259  0.00  0.00    +0.000 A 
ATOM     12  C   UNL     1      -3.616  13.390  21.794  0.00  0.00    +0.000 A 
ATOM     13  C   UNL     1      -4.246  14.323  22.587  0.00  0.00    +0.000 A 
ATOM     14  N   UNL     1      -3.762  14.735  23.768  0.00  0.00    +0.000 NA
ATOM     15  C   UNL     1      -2.619  14.152  24.140  0.00  0.00    +0.000 A 
ATOM     16  N   UNL     1      -1.940  13.217  23.455  0.00  0.00    +0.000 NA
ATOM     17  C   UNL     1      -0.922  10.895  22.207  0.00  0.00    +0.000 C 
ATOM     18  C   UNL     1       0.529  10.896  21.683  0.00  0.00    +0.000 C 
ENDBRANCH   3   7
BRANCH   1  25
ATOM     19  C   UNL     1       4.266   3.725  17.799  0.00  0.00    +0.000 A 
ATOM     20  C   UNL     1       4.110   2.735  18.770  0.00  0.00    +0.000 A 
ATOM     21  C   UNL     1       3.368   2.958  19.933  0.00  0.00    +0.000 A 
ATOM     22  C   UNL     1       2.807   4.220  20.095  0.00  0.00    +0.000 A 
ATOM     23  N   UNL     1       2.059   4.741  21.109  0.00  0.00    +0.000 N 
ATOM     24  N   UNL     1       1.722   6.024  20.942  0.00  0.00    +0.000 NA
ATOM     25  C   UNL     1       2.233   6.352  19.739  0.00  0.00    +0.000 A 
ATOM     26  C   UNL     1       2.934   5.246  19.162  0.00  0.00    +0.000 A 
ATOM     27  C   UNL     1       3.674   4.987  17.987  0.00  0.00    +0.000 A 
ATOM     28  H   UNL     1       1.757   4.272  21.954  0.00  0.00    +0.000 HD
BRANCH  19  29
ATOM     29  O   UNL     1       4.965   3.584  16.627  0.00  0.00    +0.000 OA
BRANCH  29  31
ATOM     30  C   UNL     1       7.143   4.551  16.822  0.00  0.00    +0.000 C 
ATOM     31  C   UNL     1       5.771   4.677  16.166  0.00  0.00    +0.000 C 
ATOM     32  C   UNL     1       5.900   4.622  14.647  0.00  0.00    +0.000 C 
ENDBRANCH  29  31
ENDBRANCH  19  29
ENDBRANCH   1  25
TORSDOF 4
ENDMDL
MODEL 6
REMARK VINA RESULT:      -8.0      1.352      1.736
REMARK  Name = 
REMARK  6 active torsions:
REMARK  status: ('A' for Active; 'I' for Inactive)
REMARK    1  A    between atoms: C_1  and  C_2
REMARK    2  A    between atoms: C_2  and  C_3
REMARK    3  A    between atoms: C_2  and  O_4
REMARK    4  A    between atoms: O_4  and  C_5
REMARK    5  A    between atoms: C_11  and  C_12
REMARK    6  A    between atoms: C_14  and  N_15
REMARK                            x       y       z     vdW  Elec       q    Type
REMARK                         _______ _______ _______ _____ _____    ______ ____
ROOT
ATOM      1  C   UNL     1       0.323   9.890  21.054  0.00  0.00    +0.000 A 
ATOM      2  C   UNL     1      -0.625  10.896  21.029  0.00  0.00    +0.000 A 
ATOM      3  C   UNL     1      -1.246  11.242  22.208  0.00  0.00    +0.000 A 
ATOM      4  N   UNL     1      -0.941  10.582  23.341  0.00  0.00    +0.000 NA
ATOM      5  C   UNL     1      -0.010   9.615  23.268  0.00  0.00    +0.000 A 
ATOM      6  N   UNL     1       0.647   9.220  22.173  0.00  0.00    +0.000 NA
ENDROOT
BRANCH   3   7
ATOM      7  N   UNL     1      -2.187  12.244  22.248  0.00  0.00    +0.000 N 
ATOM      8  C   UNL     1      -3.164  12.305  23.341  0.00  0.00    +0.000 C 
ATOM      9  C   UNL     1      -3.078  13.639  24.115  0.00  0.00    +0.000 C 
ATOM     10  N   UNL     1      -3.088  14.784  23.196  0.00  0.00    +0.000 N 
ATOM     11  C   UNL     1      -3.995  15.812  23.273  0.00  0.00    +0.000 A 
ATOM     12  C   UNL     1      -4.495  16.238  24.491  0.00  0.00    +0.000 A 
ATOM     13  C   UNL     1      -5.393  17.282  24.487  0.00  0.00    +0.000 A 
ATOM     14  N   UNL     1      -5.817  17.886  23.367  0.00  0.00    +0.000 NA
ATOM     15  C   UNL     1      -5.282  17.413  22.237  0.00  0.00    +0.000 A 
ATOM     16  N   UNL     1      -4.384  16.420  22.135  0.00  0.00    +0.000 NA
ATOM     17  C   UNL     1      -2.118  14.731  22.097  0.00  0.00    +0.000 C 
ATOM     18  C   UNL     1      -2.187  13.395  21.329  0.00  0.00    +0.000 C 
ENDBRANCH   3   7
BRANCH   1  25
ATOM     19  C   UNL     1       2.738   6.142  19.354  0.00  0.00    +0.000 A 
ATOM     20  C   UNL     1       3.173   6.417  18.058  0.00  0.00    +0.000 A 
ATOM     21  C   UNL     1       2.926   7.648  17.446  0.00  0.00    +0.000 A 
ATOM     22  C   UNL     1       2.204   8.586  18.177  0.00  0.00    +0.000 A 
ATOM     23  N   UNL     1       1.795   9.846  17.855  0.00  0.00    +0.000 N 
ATOM     24  N   UNL     1       1.073  10.450  18.804  0.00  0.00    +0.000 NA
ATOM     25  C   UNL     1       1.043   9.563  19.819  0.00  0.00    +0.000 A 
ATOM     26  C   UNL     1       1.741   8.364  19.470  0.00  0.00    +0.000 A 
ATOM     27  C   UNL     1       2.022   7.116  20.072  0.00  0.00    +0.000 A 
ATOM     28  H   UNL     1       1.966  10.347  16.991  0.00  0.00    +0.000 HD
BRANCH  19  29
ATOM     29  O   UNL     1       2.949   4.967  20.030  0.00  0.00    +0.000 OA
BRANCH  29  31
ATOM     30  C   UNL     1       1.126   3.541  19.431  0.00  0.00    +0.000 C 
ATOM     31  C   UNL     1       1.821   4.269  20.577  0.00  0.00    +0.000 C 
ATOM     32  C   UNL     1       2.289   3.274  21.635  0.00  0.00    +0.000 C 
ENDBRANCH  29  31
ENDBRANCH  19  29
ENDBRANCH   1  25
TORSDOF 4
ENDMDL
MODEL 7
REMARK VINA RESULT:      -8.0      4.264      6.840
REMARK  Name = 
REMARK  6 active torsions:
REMARK  status: ('A' for Active; 'I' for Inactive)
REMARK    1  A    between atoms: C_1  and  C_2
REMARK    2  A    between atoms: C_2  and  C_3
REMARK    3  A    between atoms: C_2  and  O_4
REMARK    4  A    between atoms: O_4  and  C_5
REMARK    5  A    between atoms: C_11  and  C_12
REMARK    6  A    between atoms: C_14  and  N_15
REMARK                            x       y       z     vdW  Elec       q    Type
REMARK                         _______ _______ _______ _____ _____    ______ ____
ROOT
ATOM      1  C   UNL     1       4.091   5.777  18.068  0.00  0.00    +0.000 A 
ATOM      2  C   UNL     1       3.596   6.988  18.518  0.00  0.00    +0.000 A 
ATOM      3  C   UNL     1       2.482   6.980  19.328  0.00  0.00    +0.000 A 
ATOM      4  N   UNL     1       1.889   5.812  19.636  0.00  0.00    +0.000 NA
ATOM      5  C   UNL     1       2.438   4.686  19.148  0.00  0.00    +0.000 A 
ATOM      6  N   UNL     1       3.518   4.598  18.366  0.00  0.00    +0.000 NA
ENDROOT
BRANCH   3   7
ATOM      7  N   UNL     1       1.952   8.152  19.818  0.00  0.00    +0.000 N 
ATOM      8  C   UNL     1       1.713   9.292  18.926  0.00  0.00    +0.000 C 
ATOM      9  C   UNL     1       0.229   9.719  18.926  0.00  0.00    +0.000 C 
ATOM     10  N   UNL     1      -0.276   9.874  20.296  0.00  0.00    +0.000 N 
ATOM     11  C   UNL     1      -0.855  11.027  20.766  0.00  0.00    +0.000 A 
ATOM     12  C   UNL     1      -1.610  11.839  19.937  0.00  0.00    +0.000 A 
ATOM     13  C   UNL     1      -2.168  12.973  20.486  0.00  0.00    +0.000 A 
ATOM     14  N   UNL     1      -1.998  13.333  21.767  0.00  0.00    +0.000 NA
ATOM     15  C   UNL     1      -1.258  12.490  22.494  0.00  0.00    +0.000 A 
ATOM     16  N   UNL     1      -0.693  11.351  22.063  0.00  0.00    +0.000 NA
ATOM     17  C   UNL     1      -0.038   8.742  21.197  0.00  0.00    +0.000 C 
ATOM     18  C   UNL     1       1.439   8.298  21.191  0.00  0.00    +0.000 C 
ENDBRANCH   3   7
BRANCH   1  25
ATOM     19  C   UNL     1       5.443   4.009  13.848  0.00  0.00    +0.000 A 
ATOM     20  C   UNL     1       6.765   4.372  13.592  0.00  0.00    +0.000 A 
ATOM     21  C   UNL     1       7.515   5.111  14.512  0.00  0.00    +0.000 A 
ATOM     22  C   UNL     1       6.878   5.491  15.689  0.00  0.00    +0.000 A 
ATOM     23  N   UNL     1       7.327   6.218  16.751  0.00  0.00    +0.000 N 
ATOM     24  N   UNL     1       6.410   6.426  17.702  0.00  0.00    +0.000 NA
ATOM     25  C   UNL     1       5.318   5.768  17.266  0.00  0.00    +0.000 A 
ATOM     26  C   UNL     1       5.561   5.161  15.993  0.00  0.00    +0.000 A 
ATOM     27  C   UNL     1       4.832   4.398  15.054  0.00  0.00    +0.000 A 
ATOM     28  H   UNL     1       8.251   6.613  16.881  0.00  0.00    +0.000 HD
BRANCH  19  29
ATOM     29  O   UNL     1       4.644   3.276  13.007  0.00  0.00    +0.000 OA
BRANCH  29  31
ATOM     30  C   UNL     1       5.687   1.856  11.390  0.00  0.00    +0.000 C 
ATOM     31  C   UNL     1       4.992   3.195  11.617  0.00  0.00    +0.000 C 
ATOM     32  C   UNL     1       3.733   3.294  10.761  0.00  0.00    +0.000 C 
ENDBRANCH  29  31
ENDBRANCH  19  29
ENDBRANCH   1  25
TORSDOF 4
ENDMDL
MODEL 8
REMARK VINA RESULT:      -8.0      2.436      4.370
REMARK  Name = 
REMARK  6 active torsions:
REMARK  status: ('A' for Active; 'I' for Inactive)
REMARK    1  A    between atoms: C_1  and  C_2
REMARK    2  A    between atoms: C_2  and  C_3
REMARK    3  A    between atoms: C_2  and  O_4
REMARK    4  A    between atoms: O_4  and  C_5
REMARK    5  A    between atoms: C_11  and  C_12
REMARK    6  A    between atoms: C_14  and  N_15
REMARK                            x       y       z     vdW  Elec       q    Type
REMARK                         _______ _______ _______ _____ _____    ______ ____
ROOT
ATOM      1  C   UNL     1       1.842   8.152  19.298  0.00  0.00    +0.000 A 
ATOM      2  C   UNL     1       0.850   8.782  20.027  0.00  0.00    +0.000 A 
ATOM      3  C   UNL     1       0.426  10.028  19.619  0.00  0.00    +0.000 A 
ATOM      4  N   UNL     1       1.001  10.610  18.551  0.00  0.00    +0.000 NA
ATOM      5  C   UNL     1       1.961   9.924  17.907  0.00  0.00    +0.000 A 
ATOM      6  N   UNL     1       2.427   8.712  18.225  0.00  0.00    +0.000 NA
ENDROOT
BRANCH   3   7
ATOM      7  N   UNL     1      -0.567  10.697  20.296  0.00  0.00    +0.000 N 
ATOM      8  C   UNL     1      -0.602  10.692  21.763  0.00  0.00    +0.000 C 
ATOM      9  C   UNL     1      -0.538  12.121  22.344  0.00  0.00    +0.000 C 
ATOM     10  N   UNL     1      -1.517  13.001  21.693  0.00  0.00    +0.000 N 
ATOM     11  C   UNL     1      -2.472  13.712  22.376  0.00  0.00    +0.000 A 
ATOM     12  C   UNL     1      -2.223  14.213  23.642  0.00  0.00    +0.000 A 
ATOM     13  C   UNL     1      -3.228  14.926  24.259  0.00  0.00    +0.000 A 
ATOM     14  N   UNL     1      -4.430  15.137  23.703  0.00  0.00    +0.000 NA
ATOM     15  C   UNL     1      -4.582  14.620  22.480  0.00  0.00    +0.000 A 
ATOM     16  N   UNL     1      -3.662  13.934  21.784  0.00  0.00    +0.000 NA
ATOM     17  C   UNL     1      -1.492  13.010  20.227  0.00  0.00    +0.000 C 
ATOM     18  C   UNL     1      -1.540  11.585  19.638  0.00  0.00    +0.000 C 
ENDBRANCH   3   7
BRANCH   1  25
ATOM     19  C   UNL     1       4.255   4.573  17.265  0.00  0.00    +0.000 A 
ATOM     20  C   UNL     1       4.361   3.512  18.164  0.00  0.00    +0.000 A 
ATOM     21  C   UNL     1       3.781   3.566  19.435  0.00  0.00    +0.000 A 
ATOM     22  C   UNL     1       3.110   4.735  19.776  0.00  0.00    +0.000 A 
ATOM     23  N   UNL     1       2.468   5.092  20.925  0.00  0.00    +0.000 N 
ATOM     24  N   UNL     1       1.965   6.331  20.912  0.00  0.00    +0.000 NA
ATOM     25  C   UNL     1       2.249   6.796  19.679  0.00  0.00    +0.000 A 
ATOM     26  C   UNL     1       2.977   5.825  18.922  0.00  0.00    +0.000 A 
ATOM     27  C   UNL     1       3.557   5.736  17.636  0.00  0.00    +0.000 A 
ATOM     28  H   UNL     1       2.351   4.536  21.764  0.00  0.00    +0.000 HD
BRANCH  19  29
ATOM     29  O   UNL     1       4.782   4.596  15.999  0.00  0.00    +0.000 OA
BRANCH  29  31
ATOM     30  C   UNL     1       6.262   3.912  14.250  0.00  0.00    +0.000 C 
ATOM     31  C   UNL     1       6.035   3.940  15.758  0.00  0.00    +0.000 C 
ATOM     32  C   UNL     1       7.161   4.702  16.453  0.00  0.00    +0.000 C 
ENDBRANCH  29  31
ENDBRANCH  19  29
ENDBRANCH   1  25
TORSDOF 4
ENDMDL
MODEL 9
REMARK VINA RESULT:      -8.0      2.061      2.473
REMARK  Name = 
REMARK  6 active torsions:
REMARK  status: ('A' for Active; 'I' for Inactive)
REMARK    1  A    between atoms: C_1  and  C_2
REMARK    2  A    between atoms: C_2  and  C_3
REMARK    3  A    between atoms: C_2  and  O_4
REMARK    4  A    between atoms: O_4  and  C_5
REMARK    5  A    between atoms: C_11  and  C_12
REMARK    6  A    between atoms: C_14  and  N_15
REMARK                            x       y       z     vdW  Elec       q    Type
REMARK                         _______ _______ _______ _____ _____    ______ ____
ROOT
ATOM      1  C   UNL     1       0.812   9.590  19.964  0.00  0.00    +0.000 A 
ATOM      2  C   UNL     1      -0.203  10.385  19.464  0.00  0.00    +0.000 A 
ATOM      3  C   UNL     1      -0.981  11.092  20.353  0.00  0.00    +0.000 A 
ATOM      4  N   UNL     1      -0.759  10.973  21.675  0.00  0.00    +0.000 NA
ATOM      5  C   UNL     1       0.248  10.173  22.069  0.00  0.00    +0.000 A 
ATOM      6  N   UNL     1       1.056   9.460  21.280  0.00  0.00    +0.000 NA
ENDROOT
BRANCH   3   7
ATOM      7  N   UNL     1      -1.997  11.910  19.915  0.00  0.00    +0.000 N 
ATOM      8  C   UNL     1      -2.530  11.771  18.555  0.00  0.00    +0.000 C 
ATOM      9  C   UNL     1      -4.044  11.467  18.561  0.00  0.00    +0.000 C 
ATOM     10  N   UNL     1      -4.768  12.404  19.429  0.00  0.00    +0.000 N 
ATOM     11  C   UNL     1      -5.818  13.179  19.002  0.00  0.00    +0.000 A 
ATOM     12  C   UNL     1      -6.700  12.723  18.037  0.00  0.00    +0.000 A 
ATOM     13  C   UNL     1      -7.735  13.554  17.669  0.00  0.00    +0.000 A 
ATOM     14  N   UNL     1      -7.914  14.780  18.183  0.00  0.00    +0.000 NA
ATOM     15  C   UNL     1      -7.019  15.137  19.108  0.00  0.00    +0.000 A 
ATOM     16  N   UNL     1      -5.992  14.395  19.554  0.00  0.00    +0.000 NA
ATOM     17  C   UNL     1      -4.240  12.554  20.789  0.00  0.00    +0.000 C 
ATOM     18  C   UNL     1      -2.725  12.842  20.793  0.00  0.00    +0.000 C 
ENDBRANCH   3   7
BRANCH   1  25
ATOM     19  C   UNL     1       2.832   5.277  19.684  0.00  0.00    +0.000 A 
ATOM     20  C   UNL     1       3.554   5.176  18.495  0.00  0.00    +0.000 A 
ATOM     21  C   UNL     1       3.647   6.246  17.600  0.00  0.00    +0.000 A 
ATOM     22  C   UNL     1       2.968   7.413  17.934  0.00  0.00    +0.000 A 
ATOM     23  N   UNL     1       2.854   8.599  17.271  0.00  0.00    +0.000 N 
ATOM     24  N   UNL     1       2.074   9.498  17.882  0.00  0.00    +0.000 NA
ATOM     25  C   UNL     1       1.693   8.891  19.024  0.00  0.00    +0.000 A 
ATOM     26  C   UNL     1       2.230   7.567  19.103  0.00  0.00    +0.000 A 
ATOM     27  C   UNL     1       2.168   6.476  19.999  0.00  0.00    +0.000 A 
ATOM     28  H   UNL     1       3.275   8.853  16.386  0.00  0.00    +0.000 HD
BRANCH  19  29
ATOM     29  O   UNL     1       2.701   4.282  20.620  0.00  0.00    +0.000 OA
BRANCH  29  31
ATOM     30  C   UNL     1       0.929   3.129  19.503  0.00  0.00    +0.000 C 
ATOM     31  C   UNL     1       1.409   3.699  20.834  0.00  0.00    +0.000 C 
ATOM     32  C   UNL     1       1.506   2.593  21.882  0.00  0.00    +0.000 C 
ENDBRANCH  29  31
ENDBRANCH  19  29
ENDBRANCH   1  25
TORSDOF 4
ENDMDL
