MODEL 1
REMARK VINA RESULT:      -8.2      0.000      0.000
REMARK  Name = 
REMARK  2 active torsions:
REMARK  status: ('A' for Active; 'I' for Inactive)
REMARK    1  A    between atoms: N_3  and  C_4
REMARK    2  A    between atoms: N_10  and  C_11
REMARK                            x       y       z     vdW  Elec       q    Type
REMARK                         _______ _______ _______ _____ _____    ______ ____
ROOT
ATOM      1  N   UNL     1       7.746   4.372  18.035  0.00  0.00    +0.000 NA
ATOM      2  C   UNL     1       7.043   4.890  17.078  0.00  0.00    +0.000 C 
ATOM      3  N   UNL     1       7.585   5.162  15.850  0.00  0.00    +0.000 N 
ATOM      4  N   UNL     1       5.772   5.345  17.262  0.00  0.00    +0.000 N 
ATOM      5  H   UNL     1       8.693   4.166  17.721  0.00  0.00    +0.000 HD
ATOM      6  H   UNL     1       8.591   5.030  15.830  0.00  0.00    +0.000 HD
ATOM      7  H   UNL     1       5.444   6.018  16.581  0.00  0.00    +0.000 HD
ENDROOT
BRANCH   4   8
ATOM      8  C   UNL     1       4.747   4.734  18.010  0.00  0.00    +0.000 A 
ATOM      9  C   UNL     1       4.305   5.368  19.200  0.00  0.00    +0.000 A 
ATOM     10  C   UNL     1       3.199   4.897  19.915  0.00  0.00    +0.000 A 
ATOM     11  C   UNL     1       2.535   3.814  19.393  0.00  0.00    +0.000 A 
ATOM     12  C   UNL     1       3.004   3.138  18.289  0.00  0.00    +0.000 A 
ATOM     13  C   UNL     1       4.140   3.533  17.618  0.00  0.00    +0.000 A 
ATOM     14  O   UNL     1       2.152   2.147  17.899  0.00  0.00    +0.000 OA
ATOM     15  C   UNL     1       0.987   2.537  18.653  0.00  0.00    +0.000 C 
ATOM     16  O   UNL     1       1.328   3.337  19.807  0.00  0.00    +0.000 OA
ENDBRANCH   4   8
BRANCH   3  17
ATOM     17  C   UNL     1       7.077   4.712  14.603  0.00  0.00    +0.000 A 
ATOM     18  C   UNL     1       7.763   5.090  13.436  0.00  0.00    +0.000 A 
ATOM     19  C   UNL     1       7.360   4.655  12.175  0.00  0.00    +0.000 A 
ATOM     20  C   UNL     1       6.246   3.821  12.053  0.00  0.00    +0.000 A 
ATOM     21  C   UNL     1       5.557   3.425  13.195  0.00  0.00    +0.000 A 
ATOM     22  C   UNL     1       5.962   3.876  14.466  0.00  0.00    +0.000 A 
ENDBRANCH   3  17
TORSDOF 2
ENDMDL
MODEL 2
REMARK VINA RESULT:      -8.1      0.813      1.645
REMARK  Name = 
REMARK  2 active torsions:
REMARK  status: ('A' for Active; 'I' for Inactive)
REMARK    1  A    between atoms: N_3  and  C_4
REMARK    2  A    between atoms: N_10  and  C_11
REMARK                            x       y       z     vdW  Elec       q    Type
REMARK                         _______ _______ _______ _____ _____    ______ ____
ROOT
ATOM      1  N   UNL     1       7.560   4.377  18.053  0.00  0.00    +0.000 NA
ATOM      2  C   UNL     1       6.896   4.889  17.065  0.00  0.00    +0.000 C 
ATOM      3  N   UNL     1       7.498   5.201  15.875  0.00  0.00    +0.000 N 
ATOM      4  N   UNL     1       5.601   5.296  17.182  0.00  0.00    +0.000 N 
ATOM      5  H   UNL     1       8.530   4.209  17.791  0.00  0.00    +0.000 HD
ATOM      6  H   UNL     1       8.507   5.104  15.912  0.00  0.00    +0.000 HD
ATOM      7  H   UNL     1       5.289   5.971  16.494  0.00  0.00    +0.000 HD
ENDROOT
BRANCH   4   8
ATOM      8  C   UNL     1       4.556   4.637  17.858  0.00  0.00    +0.000 A 
ATOM      9  C   UNL     1       4.128   3.372  17.377  0.00  0.00    +0.000 A 
ATOM     10  C   UNL     1       3.199   2.597  18.077  0.00  0.00    +0.000 A 
ATOM     11  C   UNL     1       2.745   3.097  19.273  0.00  0.00    +0.000 A 
ATOM     12  C   UNL     1       3.085   4.358  19.707  0.00  0.00    +0.000 A 
ATOM     13  C   UNL     1       3.933   5.175  18.992  0.00  0.00    +0.000 A 
ATOM     14  O   UNL     1       2.588   4.619  20.951  0.00  0.00    +0.000 OA
ATOM     15  C   UNL     1       2.232   3.278  21.342  0.00  0.00    +0.000 C 
ATOM     16  O   UNL     1       2.015   2.419  20.201  0.00  0.00    +0.000 OA
ENDBRANCH   4   8
BRANCH   3  17
ATOM     17  C   UNL     1       7.078   4.757  14.594  0.00  0.00    +0.000 A 
ATOM     18  C   UNL     1       7.797   5.208  13.473  0.00  0.00    +0.000 A 
ATOM     19  C   UNL     1       7.482   4.785  12.182  0.00  0.00    +0.000 A 
ATOM     20  C   UNL     1       6.427   3.891  11.983  0.00  0.00    +0.000 A 
ATOM     21  C   UNL     1       5.709   3.423  13.080  0.00  0.00    +0.000 A 
ATOM     22  C   UNL     1       6.024   3.861  14.380  0.00  0.00    +0.000 A 
ENDBRANCH   3  17
TORSDOF 2
ENDMDL
MODEL 3
REMARK VINA RESULT:      -7.8      0.838      1.381
REMARK  Name = 
REMARK  2 active torsions:
REMARK  status: ('A' for Active; 'I' for Inactive)
REMARK    1  A    between atoms: N_3  and  C_4
REMARK    2  A    between atoms: N_10  and  C_11
REMARK                            x       y       z     vdW  Elec       q    Type
REMARK                         _______ _______ _______ _____ _____    ______ ____
ROOT
ATOM      1  N   UNL     1       7.608   5.157  17.666  0.00  0.00    +0.000 NA
ATOM      2  C   UNL     1       6.962   5.482  16.591  0.00  0.00    +0.000 C 
ATOM      3  N   UNL     1       7.583   5.570  15.374  0.00  0.00    +0.000 N 
ATOM      4  N   UNL     1       5.667   5.908  16.612  0.00  0.00    +0.000 N 
ATOM      5  H   UNL     1       8.580   4.941  17.455  0.00  0.00    +0.000 HD
ATOM      6  H   UNL     1       8.591   5.477  15.444  0.00  0.00    +0.000 HD
ATOM      7  H   UNL     1       5.370   6.447  15.807  0.00  0.00    +0.000 HD
ENDROOT
BRANCH   4   8
ATOM      8  C   UNL     1       4.609   5.387  17.380  0.00  0.00    +0.000 A 
ATOM      9  C   UNL     1       3.682   6.292  17.960  0.00  0.00    +0.000 A 
ATOM     10  C   UNL     1       2.530   5.843  18.614  0.00  0.00    +0.000 A 
ATOM     11  C   UNL     1       2.315   4.487  18.637  0.00  0.00    +0.000 A 
ATOM     12  C   UNL     1       3.247   3.596  18.156  0.00  0.00    +0.000 A 
ATOM     13  C   UNL     1       4.429   4.012  17.583  0.00  0.00    +0.000 A 
ATOM     14  O   UNL     1       2.796   2.310  18.208  0.00  0.00    +0.000 OA
ATOM     15  C   UNL     1       1.396   2.567  18.430  0.00  0.00    +0.000 C 
ATOM     16  O   UNL     1       1.168   3.863  19.026  0.00  0.00    +0.000 OA
ENDBRANCH   4   8
BRANCH   3  17
ATOM     17  C   UNL     1       7.180   4.901  14.189  0.00  0.00    +0.000 A 
ATOM     18  C   UNL     1       6.093   4.012  14.271  0.00  0.00    +0.000 A 
ATOM     19  C   UNL     1       5.603   3.348  13.147  0.00  0.00    +0.000 A 
ATOM     20  C   UNL     1       6.197   3.562  11.901  0.00  0.00    +0.000 A 
ATOM     21  C   UNL     1       7.267   4.446  11.794  0.00  0.00    +0.000 A 
ATOM     22  C   UNL     1       7.766   5.105  12.934  0.00  0.00    +0.000 A 
ENDBRANCH   3  17
TORSDOF 2
ENDMDL
MODEL 4
REMARK VINA RESULT:      -7.8      0.733      1.955
REMARK  Name = 
REMARK  2 active torsions:
REMARK  status: ('A' for Active; 'I' for Inactive)
REMARK    1  A    between atoms: N_3  and  C_4
REMARK    2  A    between atoms: N_10  and  C_11
REMARK                            x       y       z     vdW  Elec       q    Type
REMARK                         _______ _______ _______ _____ _____    ______ ____
ROOT
ATOM      1  N   UNL     1       7.469   4.397  18.100  0.00  0.00    +0.000 NA
ATOM      2  C   UNL     1       6.885   4.929  17.073  0.00  0.00    +0.000 C 
ATOM      3  N   UNL     1       7.563   5.185  15.910  0.00  0.00    +0.000 N 
ATOM      4  N   UNL     1       5.613   5.415  17.119  0.00  0.00    +0.000 N 
ATOM      5  H   UNL     1       8.439   4.168  17.890  0.00  0.00    +0.000 HD
ATOM      6  H   UNL     1       8.561   5.029  15.999  0.00  0.00    +0.000 HD
ATOM      7  H   UNL     1       5.376   6.094  16.407  0.00  0.00    +0.000 HD
ENDROOT
BRANCH   4   8
ATOM      8  C   UNL     1       4.499   4.830  17.752  0.00  0.00    +0.000 A 
ATOM      9  C   UNL     1       3.935   3.657  17.185  0.00  0.00    +0.000 A 
ATOM     10  C   UNL     1       2.923   2.943  17.833  0.00  0.00    +0.000 A 
ATOM     11  C   UNL     1       2.523   3.405  19.063  0.00  0.00    +0.000 A 
ATOM     12  C   UNL     1       2.999   4.588  19.583  0.00  0.00    +0.000 A 
ATOM     13  C   UNL     1       3.935   5.353  18.923  0.00  0.00    +0.000 A 
ATOM     14  O   UNL     1       2.529   4.815  20.843  0.00  0.00    +0.000 OA
ATOM     15  C   UNL     1       2.026   3.497  21.141  0.00  0.00    +0.000 C 
ATOM     16  O   UNL     1       1.718   2.749  19.944  0.00  0.00    +0.000 OA
ENDBRANCH   4   8
BRANCH   3  17
ATOM     17  C   UNL     1       7.181   4.744  14.616  0.00  0.00    +0.000 A 
ATOM     18  C   UNL     1       6.074   3.883  14.513  0.00  0.00    +0.000 A 
ATOM     19  C   UNL     1       5.603   3.439  13.279  0.00  0.00    +0.000 A 
ATOM     20  C   UNL     1       6.238   3.852  12.105  0.00  0.00    +0.000 A 
ATOM     21  C   UNL     1       7.328   4.713  12.182  0.00  0.00    +0.000 A 
ATOM     22  C   UNL     1       7.807   5.150  13.432  0.00  0.00    +0.000 A 
ENDBRANCH   3  17
TORSDOF 2
ENDMDL
MODEL 5
REMARK VINA RESULT:      -7.8      2.914      6.660
REMARK  Name = 
REMARK  2 active torsions:
REMARK  status: ('A' for Active; 'I' for Inactive)
REMARK    1  A    between atoms: N_3  and  C_4
REMARK    2  A    between atoms: N_10  and  C_11
REMARK                            x       y       z     vdW  Elec       q    Type
REMARK                         _______ _______ _______ _____ _____    ______ ____
ROOT
ATOM      1  N   UNL     1       3.650   7.426  17.571  0.00  0.00    +0.000 NA
ATOM      2  C   UNL     1       3.851   6.443  18.390  0.00  0.00    +0.000 C 
ATOM      3  N   UNL     1       3.082   6.267  19.510  0.00  0.00    +0.000 N 
ATOM      4  N   UNL     1       4.926   5.610  18.290  0.00  0.00    +0.000 N 
ATOM      5  H   UNL     1       2.843   7.978  17.856  0.00  0.00    +0.000 HD
ATOM      6  H   UNL     1       2.449   7.043  19.673  0.00  0.00    +0.000 HD
ATOM      7  H   UNL     1       5.177   5.114  19.137  0.00  0.00    +0.000 HD
ENDROOT
BRANCH   4   8
ATOM      8  C   UNL     1       5.472   5.059  17.115  0.00  0.00    +0.000 A 
ATOM      9  C   UNL     1       4.778   3.999  16.477  0.00  0.00    +0.000 A 
ATOM     10  C   UNL     1       5.183   3.500  15.235  0.00  0.00    +0.000 A 
ATOM     11  C   UNL     1       6.261   4.108  14.640  0.00  0.00    +0.000 A 
ATOM     12  C   UNL     1       6.995   5.077  15.287  0.00  0.00    +0.000 A 
ATOM     13  C   UNL     1       6.665   5.525  16.547  0.00  0.00    +0.000 A 
ATOM     14  O   UNL     1       7.970   5.596  14.486  0.00  0.00    +0.000 OA
ATOM     15  C   UNL     1       7.512   5.097  13.214  0.00  0.00    +0.000 C 
ATOM     16  O   UNL     1       6.680   3.924  13.358  0.00  0.00    +0.000 OA
ENDBRANCH   4   8
BRANCH   3  17
ATOM     17  C   UNL     1       2.391   5.078  19.861  0.00  0.00    +0.000 A 
ATOM     18  C   UNL     1       1.765   4.352  18.832  0.00  0.00    +0.000 A 
ATOM     19  C   UNL     1       1.103   3.151  19.081  0.00  0.00    +0.000 A 
ATOM     20  C   UNL     1       1.054   2.643  20.382  0.00  0.00    +0.000 A 
ATOM     21  C   UNL     1       1.676   3.339  21.413  0.00  0.00    +0.000 A 
ATOM     22  C   UNL     1       2.333   4.557  21.159  0.00  0.00    +0.000 A 
ENDBRANCH   3  17
TORSDOF 2
ENDMDL
MODEL 6
REMARK VINA RESULT:      -7.7      2.926      6.734
REMARK  Name = 
REMARK  2 active torsions:
REMARK  status: ('A' for Active; 'I' for Inactive)
REMARK    1  A    between atoms: N_3  and  C_4
REMARK    2  A    between atoms: N_10  and  C_11
REMARK                            x       y       z     vdW  Elec       q    Type
REMARK                         _______ _______ _______ _____ _____    ______ ____
ROOT
ATOM      1  N   UNL     1       3.662   7.364  17.570  0.00  0.00    +0.000 NA
ATOM      2  C   UNL     1       3.891   6.368  18.367  0.00  0.00    +0.000 C 
ATOM      3  N   UNL     1       3.144   6.162  19.497  0.00  0.00    +0.000 N 
ATOM      4  N   UNL     1       4.973   5.551  18.233  0.00  0.00    +0.000 N 
ATOM      5  H   UNL     1       2.854   7.899  17.879  0.00  0.00    +0.000 HD
ATOM      6  H   UNL     1       2.505   6.927  19.686  0.00  0.00    +0.000 HD
ATOM      7  H   UNL     1       5.246   5.043  19.066  0.00  0.00    +0.000 HD
ENDROOT
BRANCH   4   8
ATOM      8  C   UNL     1       5.506   5.029  17.039  0.00  0.00    +0.000 A 
ATOM      9  C   UNL     1       4.788   4.005  16.367  0.00  0.00    +0.000 A 
ATOM     10  C   UNL     1       5.180   3.540  15.108  0.00  0.00    +0.000 A 
ATOM     11  C   UNL     1       6.269   4.145  14.531  0.00  0.00    +0.000 A 
ATOM     12  C   UNL     1       7.024   5.077  15.207  0.00  0.00    +0.000 A 
ATOM     13  C   UNL     1       6.707   5.489  16.483  0.00  0.00    +0.000 A 
ATOM     14  O   UNL     1       8.007   5.602  14.421  0.00  0.00    +0.000 OA
ATOM     15  C   UNL     1       7.536   5.156  13.135  0.00  0.00    +0.000 C 
ATOM     16  O   UNL     1       6.681   3.996  13.241  0.00  0.00    +0.000 OA
ENDBRANCH   4   8
BRANCH   3  17
ATOM     17  C   UNL     1       2.474   4.959  19.838  0.00  0.00    +0.000 A 
ATOM     18  C   UNL     1       2.530   4.528  21.175  0.00  0.00    +0.000 A 
ATOM     19  C   UNL     1       1.863   3.383  21.606  0.00  0.00    +0.000 A 
ATOM     20  C   UNL     1       1.115   2.633  20.695  0.00  0.00    +0.000 A 
ATOM     21  C   UNL     1       1.036   3.046  19.368  0.00  0.00    +0.000 A 
ATOM     22  C   UNL     1       1.721   4.197  18.936  0.00  0.00    +0.000 A 
ENDBRANCH   3  17
TORSDOF 2
ENDMDL
MODEL 7
REMARK VINA RESULT:      -7.7      2.835      6.490
REMARK  Name = 
REMARK  2 active torsions:
REMARK  status: ('A' for Active; 'I' for Inactive)
REMARK    1  A    between atoms: N_3  and  C_4
REMARK    2  A    between atoms: N_10  and  C_11
REMARK                            x       y       z     vdW  Elec       q    Type
REMARK                         _______ _______ _______ _____ _____    ______ ____
ROOT
ATOM      1  N   UNL     1       2.640   7.774  18.476  0.00  0.00    +0.000 NA
ATOM      2  C   UNL     1       3.008   6.704  19.107  0.00  0.00    +0.000 C 
ATOM      3  N   UNL     1       2.201   6.100  20.034  0.00  0.00    +0.000 N 
ATOM      4  N   UNL     1       4.268   6.193  19.016  0.00  0.00    +0.000 N 
ATOM      5  H   UNL     1       1.691   8.040  18.732  0.00  0.00    +0.000 HD
ATOM      6  H   UNL     1       1.372   6.646  20.244  0.00  0.00    +0.000 HD
ATOM      7  H   UNL     1       4.552   5.589  19.777  0.00  0.00    +0.000 HD
ENDROOT
BRANCH   4   8
ATOM      8  C   UNL     1       5.058   6.072  17.857  0.00  0.00    +0.000 A 
ATOM      9  C   UNL     1       6.398   6.539  17.899  0.00  0.00    +0.000 A 
ATOM     10  C   UNL     1       7.283   6.323  16.837  0.00  0.00    +0.000 A 
ATOM     11  C   UNL     1       6.809   5.607  15.766  0.00  0.00    +0.000 A 
ATOM     12  C   UNL     1       5.489   5.226  15.676  0.00  0.00    +0.000 A 
ATOM     13  C   UNL     1       4.578   5.500  16.672  0.00  0.00    +0.000 A 
ATOM     14  O   UNL     1       5.255   4.461  14.570  0.00  0.00    +0.000 OA
ATOM     15  C   UNL     1       6.616   4.140  14.221  0.00  0.00    +0.000 C 
ATOM     16  O   UNL     1       7.554   5.108  14.741  0.00  0.00    +0.000 OA
ENDBRANCH   4   8
BRANCH   3  17
ATOM     17  C   UNL     1       1.815   4.734  20.029  0.00  0.00    +0.000 A 
ATOM     18  C   UNL     1       1.462   4.152  18.799  0.00  0.00    +0.000 A 
ATOM     19  C   UNL     1       1.115   2.806  18.697  0.00  0.00    +0.000 A 
ATOM     20  C   UNL     1       1.114   2.002  19.839  0.00  0.00    +0.000 A 
ATOM     21  C   UNL     1       1.471   2.553  21.066  0.00  0.00    +0.000 A 
ATOM     22  C   UNL     1       1.809   3.916  21.166  0.00  0.00    +0.000 A 
ENDBRANCH   3  17
TORSDOF 2
ENDMDL
MODEL 8
REMARK VINA RESULT:      -7.5      2.844      6.581
REMARK  Name = 
REMARK  2 active torsions:
REMARK  status: ('A' for Active; 'I' for Inactive)
REMARK    1  A    between atoms: N_3  and  C_4
REMARK    2  A    between atoms: N_10  and  C_11
REMARK                            x       y       z     vdW  Elec       q    Type
REMARK                         _______ _______ _______ _____ _____    ______ ____
ROOT
ATOM      1  N   UNL     1       2.723   7.773  18.519  0.00  0.00    +0.000 NA
ATOM      2  C   UNL     1       3.086   6.682  19.117  0.00  0.00    +0.000 C 
ATOM      3  N   UNL     1       2.284   6.063  20.038  0.00  0.00    +0.000 N 
ATOM      4  N   UNL     1       4.339   6.159  18.997  0.00  0.00    +0.000 N 
ATOM      5  H   UNL     1       1.781   8.042  18.794  0.00  0.00    +0.000 HD
ATOM      6  H   UNL     1       1.464   6.613  20.273  0.00  0.00    +0.000 HD
ATOM      7  H   UNL     1       4.625   5.532  19.739  0.00  0.00    +0.000 HD
ENDROOT
BRANCH   4   8
ATOM      8  C   UNL     1       5.114   6.060  17.826  0.00  0.00    +0.000 A 
ATOM      9  C   UNL     1       6.449   6.540  17.853  0.00  0.00    +0.000 A 
ATOM     10  C   UNL     1       7.321   6.346  16.777  0.00  0.00    +0.000 A 
ATOM     11  C   UNL     1       6.838   5.636  15.705  0.00  0.00    +0.000 A 
ATOM     12  C   UNL     1       5.522   5.241  15.630  0.00  0.00    +0.000 A 
ATOM     13  C   UNL     1       4.622   5.495  16.641  0.00  0.00    +0.000 A 
ATOM     14  O   UNL     1       5.280   4.486  14.519  0.00  0.00    +0.000 OA
ATOM     15  C   UNL     1       6.639   4.183  14.147  0.00  0.00    +0.000 C 
ATOM     16  O   UNL     1       7.574   5.157  14.663  0.00  0.00    +0.000 OA
ENDBRANCH   4   8
BRANCH   3  17
ATOM     17  C   UNL     1       1.882   4.702  20.003  0.00  0.00    +0.000 A 
ATOM     18  C   UNL     1       1.892   3.981  21.210  0.00  0.00    +0.000 A 
ATOM     19  C   UNL     1       1.469   2.654  21.274  0.00  0.00    +0.000 A 
ATOM     20  C   UNL     1       1.021   2.012  20.117  0.00  0.00    +0.000 A 
ATOM     21  C   UNL     1       0.992   2.710  18.914  0.00  0.00    +0.000 A 
ATOM     22  C   UNL     1       1.430   4.046  18.852  0.00  0.00    +0.000 A 
ENDBRANCH   3  17
TORSDOF 2
ENDMDL
MODEL 9
REMARK VINA RESULT:      -7.5      3.882      5.403
REMARK  Name = 
REMARK  2 active torsions:
REMARK  status: ('A' for Active; 'I' for Inactive)
REMARK    1  A    between atoms: N_3  and  C_4
REMARK    2  A    between atoms: N_10  and  C_11
REMARK                            x       y       z     vdW  Elec       q    Type
REMARK                         _______ _______ _______ _____ _____    ______ ____
ROOT
ATOM      1  N   UNL     1       1.540   4.361  19.064  0.00  0.00    +0.000 NA
ATOM      2  C   UNL     1       2.771   4.739  19.205  0.00  0.00    +0.000 C 
ATOM      3  N   UNL     1       3.818   3.883  18.989  0.00  0.00    +0.000 N 
ATOM      4  N   UNL     1       3.114   5.952  19.724  0.00  0.00    +0.000 N 
ATOM      5  H   UNL     1       1.490   3.398  18.736  0.00  0.00    +0.000 HD
ATOM      6  H   UNL     1       3.514   2.927  18.837  0.00  0.00    +0.000 HD
ATOM      7  H   UNL     1       4.050   6.018  20.103  0.00  0.00    +0.000 HD
ENDROOT
BRANCH   4   8
ATOM      8  C   UNL     1       2.510   7.196  19.457  0.00  0.00    +0.000 A 
ATOM      9  C   UNL     1       2.658   7.757  18.162  0.00  0.00    +0.000 A 
ATOM     10  C   UNL     1       1.971   8.914  17.781  0.00  0.00    +0.000 A 
ATOM     11  C   UNL     1       1.116   9.464  18.705  0.00  0.00    +0.000 A 
ATOM     12  C   UNL     1       1.029   8.980  19.991  0.00  0.00    +0.000 A 
ATOM     13  C   UNL     1       1.760   7.892  20.414  0.00  0.00    +0.000 A 
ATOM     14  O   UNL     1       0.066   9.622  20.712  0.00  0.00    +0.000 OA
ATOM     15  C   UNL     1      -0.634  10.272  19.632  0.00  0.00    +0.000 C 
ATOM     16  O   UNL     1       0.204  10.448  18.469  0.00  0.00    +0.000 OA
ENDBRANCH   4   8
BRANCH   3  17
ATOM     17  C   UNL     1       4.915   4.120  18.120  0.00  0.00    +0.000 A 
ATOM     18  C   UNL     1       4.712   3.945  16.740  0.00  0.00    +0.000 A 
ATOM     19  C   UNL     1       5.720   4.201  15.812  0.00  0.00    +0.000 A 
ATOM     20  C   UNL     1       6.971   4.642  16.251  0.00  0.00    +0.000 A 
ATOM     21  C   UNL     1       7.191   4.832  17.612  0.00  0.00    +0.000 A 
ATOM     22  C   UNL     1       6.173   4.562  18.546  0.00  0.00    +0.000 A 
ENDBRANCH   3  17
TORSDOF 2
ENDMDL
