MODEL 1
REMARK VINA RESULT:      -9.1      0.000      0.000
REMARK  Name = 
REMARK  15 active torsions:
REMARK  status: ('A' for Active; 'I' for Inactive)
REMARK    1  A    between atoms: C_1  and  C_2
REMARK    2  A    between atoms: C_2  and  C_3
REMARK    3  A    between atoms: C_3  and  C_4
REMARK    4  A    between atoms: C_4  and  C_5
REMARK    5  A    between atoms: C_5  and  C_6
REMARK    6  A    between atoms: C_6  and  C_7
REMARK    7  A    between atoms: C_7  and  C_8
REMARK    8  A    between atoms: C_8  and  C_9
REMARK    9  A    between atoms: C_13  and  O_14
REMARK   10  A    between atoms: C_18  and  O_19
REMARK   11  A    between atoms: O_19  and  C_20
REMARK   12  A    between atoms: C_23  and  C_24
REMARK   13  A    between atoms: C_25  and  C_26
REMARK   14  A    between atoms: C_26  and  O_28
REMARK   15  A    between atoms: C_31  and  C_32
REMARK                            x       y       z     vdW  Elec       q    Type
REMARK                         _______ _______ _______ _____ _____    ______ ____
ROOT
ATOM      1  C   UNL     1       5.276   4.067  16.861  0.00  0.00    +0.000 A 
ATOM      2  C   UNL     1       4.275   3.069  16.899  0.00  0.00    +0.000 A 
ATOM      3  C   UNL     1       3.147   3.155  17.715  0.00  0.00    +0.000 A 
ATOM      4  C   UNL     1       2.213   2.099  17.735  0.00  0.00    +0.000 A 
ATOM      5  C   UNL     1       1.083   2.172  18.535  0.00  0.00    +0.000 A 
ATOM      6  C   UNL     1       0.826   3.310  19.272  0.00  0.00    +0.000 A 
ATOM      7  C   UNL     1       1.729   4.374  19.224  0.00  0.00    +0.000 A 
ATOM      8  C   UNL     1       2.955   4.304  18.506  0.00  0.00    +0.000 A 
ATOM      9  C   UNL     1       4.013   5.279  18.546  0.00  0.00    +0.000 A 
ATOM     10  C   UNL     1       5.188   5.201  17.714  0.00  0.00    +0.000 A 
ENDROOT
BRANCH  10  11
ATOM     11  C   UNL     1       6.275   6.244  17.800  0.00  0.00    +0.000 A 
ATOM     12  C   UNL     1       6.172   7.477  17.122  0.00  0.00    +0.000 A 
ATOM     13  C   UNL     1       7.138   8.487  17.248  0.00  0.00    +0.000 A 
ATOM     14  C   UNL     1       8.204   8.325  18.121  0.00  0.00    +0.000 A 
ATOM     15  C   UNL     1       8.340   7.128  18.809  0.00  0.00    +0.000 A 
ATOM     16  C   UNL     1       7.421   6.087  18.604  0.00  0.00    +0.000 A 
ENDBRANCH  10  11
BRANCH   5  17
ATOM     17  O   UNL     1       0.191   1.145  18.615  0.00  0.00    +0.000 OA
ATOM     18  H   UNL     1       0.590   0.421  19.125  0.00  0.00    +0.000 HD
ENDBRANCH   5  17
BRANCH   1  19
ATOM     19  C   UNL     1       6.396   3.777  15.862  0.00  0.00    +0.000 C 
BRANCH  19  20
ATOM     20  C   UNL     1       6.452   4.663  14.623  0.00  0.00    +0.000 C 
BRANCH  20  21
ATOM     21  C   UNL     1       5.527   4.168  13.519  0.00  0.00    +0.000 C 
BRANCH  21  22
ATOM     22  C   UNL     1       6.283   3.242  12.574  0.00  0.00    +0.000 C 
BRANCH  22  23
ATOM     23  C   UNL     1       5.334   2.656  11.536  0.00  0.00    +0.000 C 
BRANCH  23  24
ATOM     24  C   UNL     1       4.009   3.407  11.528  0.00  0.00    +0.000 C 
BRANCH  24  26
ATOM     25  C   UNL     1       2.836   4.321   9.507  0.00  0.00    +0.000 C 
ATOM     26  C   UNL     1       3.205   3.067  10.278  0.00  0.00    +0.000 C 
ENDBRANCH  24  26
ENDBRANCH  23  24
ENDBRANCH  22  23
ENDBRANCH  21  22
ENDBRANCH  20  21
ENDBRANCH  19  20
ENDBRANCH   1  19
BRANCH   9  27
ATOM     27  O   UNL     1       3.882   6.411  19.348  0.00  0.00    +0.000 OA
BRANCH  27  28
ATOM     28  C   UNL     1       2.914   7.362  19.081  0.00  0.00    +0.000 A 
ATOM     29  C   UNL     1       2.692   7.996  17.856  0.00  0.00    +0.000 A 
ATOM     30  C   UNL     1       1.764   9.040  17.760  0.00  0.00    +0.000 A 
ATOM     31  C   UNL     1       0.977   9.407  18.859  0.00  0.00    +0.000 A 
ATOM     32  C   UNL     1       1.163   8.730  20.071  0.00  0.00    +0.000 A 
ATOM     33  C   UNL     1       2.123   7.716  20.178  0.00  0.00    +0.000 A 
BRANCH  31  34
ATOM     34  C   UNL     1       0.018  10.510  18.693  0.00  0.00    +0.000 C 
ATOM     35  C   UNL     1       0.297  11.793  18.973  0.00  0.00    +0.000 C 
BRANCH  35  36
ATOM     36  C   UNL     1      -0.768  12.804  18.851  0.00  0.00    +0.000 C 
ATOM     37  O   UNL     1      -1.423  13.244  19.781  0.00  0.00    +0.000 OA
BRANCH  36  38
ATOM     38  O   UNL     1      -0.932  13.220  17.575  0.00  0.00    +0.000 OA
ATOM     39  H   UNL     1      -0.663  14.140  17.398  0.00  0.00    +0.000 HD
ENDBRANCH  36  38
ENDBRANCH  35  36
ENDBRANCH  31  34
ENDBRANCH  27  28
ENDBRANCH   9  27
TORSDOF 14
ENDMDL
MODEL 2
REMARK VINA RESULT:      -8.8      0.609      1.117
REMARK  Name = 
REMARK  15 active torsions:
REMARK  status: ('A' for Active; 'I' for Inactive)
REMARK    1  A    between atoms: C_1  and  C_2
REMARK    2  A    between atoms: C_2  and  C_3
REMARK    3  A    between atoms: C_3  and  C_4
REMARK    4  A    between atoms: C_4  and  C_5
REMARK    5  A    between atoms: C_5  and  C_6
REMARK    6  A    between atoms: C_6  and  C_7
REMARK    7  A    between atoms: C_7  and  C_8
REMARK    8  A    between atoms: C_8  and  C_9
REMARK    9  A    between atoms: C_13  and  O_14
REMARK   10  A    between atoms: C_18  and  O_19
REMARK   11  A    between atoms: O_19  and  C_20
REMARK   12  A    between atoms: C_23  and  C_24
REMARK   13  A    between atoms: C_25  and  C_26
REMARK   14  A    between atoms: C_26  and  O_28
REMARK   15  A    between atoms: C_31  and  C_32
REMARK                            x       y       z     vdW  Elec       q    Type
REMARK                         _______ _______ _______ _____ _____    ______ ____
ROOT
ATOM      1  C   UNL     1       5.227   4.113  16.987  0.00  0.00    +0.000 A 
ATOM      2  C   UNL     1       4.239   3.102  16.971  0.00  0.00    +0.000 A 
ATOM      3  C   UNL     1       3.085   3.155  17.753  0.00  0.00    +0.000 A 
ATOM      4  C   UNL     1       2.165   2.087  17.721  0.00  0.00    +0.000 A 
ATOM      5  C   UNL     1       1.009   2.128  18.486  0.00  0.00    +0.000 A 
ATOM      6  C   UNL     1       0.714   3.246  19.239  0.00  0.00    +0.000 A 
ATOM      7  C   UNL     1       1.604   4.322  19.242  0.00  0.00    +0.000 A 
ATOM      8  C   UNL     1       2.852   4.284  18.562  0.00  0.00    +0.000 A 
ATOM      9  C   UNL     1       3.895   5.272  18.656  0.00  0.00    +0.000 A 
ATOM     10  C   UNL     1       5.096   5.227  17.860  0.00  0.00    +0.000 A 
ENDROOT
BRANCH  10  11
ATOM     11  C   UNL     1       6.166   6.282  18.003  0.00  0.00    +0.000 A 
ATOM     12  C   UNL     1       7.316   6.068  18.790  0.00  0.00    +0.000 A 
ATOM     13  C   UNL     1       8.355   7.007  18.876  0.00  0.00    +0.000 A 
ATOM     14  C   UNL     1       8.312   8.163  18.112  0.00  0.00    +0.000 A 
ATOM     15  C   UNL     1       7.199   8.411  17.321  0.00  0.00    +0.000 A 
ATOM     16  C   UNL     1       6.122   7.511  17.315  0.00  0.00    +0.000 A 
ENDBRANCH  10  11
BRANCH   5  17
ATOM     17  O   UNL     1       0.130   1.088  18.516  0.00  0.00    +0.000 OA
ATOM     18  H   UNL     1       0.615   0.261  18.363  0.00  0.00    +0.000 HD
ENDBRANCH   5  17
BRANCH   1  19
ATOM     19  C   UNL     1       6.382   3.859  16.018  0.00  0.00    +0.000 C 
BRANCH  19  20
ATOM     20  C   UNL     1       6.805   5.030  15.138  0.00  0.00    +0.000 C 
BRANCH  20  21
ATOM     21  C   UNL     1       6.954   4.627  13.677  0.00  0.00    +0.000 C 
BRANCH  21  22
ATOM     22  C   UNL     1       5.824   3.690  13.271  0.00  0.00    +0.000 C 
BRANCH  22  23
ATOM     23  C   UNL     1       6.284   2.758  12.157  0.00  0.00    +0.000 C 
BRANCH  23  24
ATOM     24  C   UNL     1       5.141   2.457  11.196  0.00  0.00    +0.000 C 
BRANCH  24  26
ATOM     25  C   UNL     1       3.179   3.620  10.149  0.00  0.00    +0.000 C 
ATOM     26  C   UNL     1       3.979   3.418  11.423  0.00  0.00    +0.000 C 
ENDBRANCH  24  26
ENDBRANCH  23  24
ENDBRANCH  22  23
ENDBRANCH  21  22
ENDBRANCH  20  21
ENDBRANCH  19  20
ENDBRANCH   1  19
BRANCH   9  27
ATOM     27  O   UNL     1       3.724   6.385  19.477  0.00  0.00    +0.000 OA
BRANCH  27  28
ATOM     28  C   UNL     1       2.815   7.375  19.150  0.00  0.00    +0.000 A 
ATOM     29  C   UNL     1       2.695   8.011  17.912  0.00  0.00    +0.000 A 
ATOM     30  C   UNL     1       1.821   9.093  17.757  0.00  0.00    +0.000 A 
ATOM     31  C   UNL     1       0.986   9.501  18.806  0.00  0.00    +0.000 A 
ATOM     32  C   UNL     1       1.069   8.823  20.029  0.00  0.00    +0.000 A 
ATOM     33  C   UNL     1       1.976   7.768  20.196  0.00  0.00    +0.000 A 
BRANCH  31  34
ATOM     34  C   UNL     1       0.087  10.643  18.580  0.00  0.00    +0.000 C 
ATOM     35  C   UNL     1      -1.243  10.596  18.761  0.00  0.00    +0.000 C 
BRANCH  35  36
ATOM     36  C   UNL     1      -2.057  11.775  18.422  0.00  0.00    +0.000 C 
ATOM     37  O   UNL     1      -3.099  12.088  18.975  0.00  0.00    +0.000 OA
BRANCH  36  38
ATOM     38  O   UNL     1      -1.507  12.506  17.426  0.00  0.00    +0.000 OA
ATOM     39  H   UNL     1      -2.119  12.775  16.717  0.00  0.00    +0.000 HD
ENDBRANCH  36  38
ENDBRANCH  35  36
ENDBRANCH  31  34
ENDBRANCH  27  28
ENDBRANCH   9  27
TORSDOF 14
ENDMDL
MODEL 3
REMARK VINA RESULT:      -8.6      0.828      1.247
REMARK  Name = 
REMARK  15 active torsions:
REMARK  status: ('A' for Active; 'I' for Inactive)
REMARK    1  A    between atoms: C_1  and  C_2
REMARK    2  A    between atoms: C_2  and  C_3
REMARK    3  A    between atoms: C_3  and  C_4
REMARK    4  A    between atoms: C_4  and  C_5
REMARK    5  A    between atoms: C_5  and  C_6
REMARK    6  A    between atoms: C_6  and  C_7
REMARK    7  A    between atoms: C_7  and  C_8
REMARK    8  A    between atoms: C_8  and  C_9
REMARK    9  A    between atoms: C_13  and  O_14
REMARK   10  A    between atoms: C_18  and  O_19
REMARK   11  A    between atoms: O_19  and  C_20
REMARK   12  A    between atoms: C_23  and  C_24
REMARK   13  A    between atoms: C_25  and  C_26
REMARK   14  A    between atoms: C_26  and  O_28
REMARK   15  A    between atoms: C_31  and  C_32
REMARK                            x       y       z     vdW  Elec       q    Type
REMARK                         _______ _______ _______ _____ _____    ______ ____
ROOT
ATOM      1  C   UNL     1       5.132   4.170  16.752  0.00  0.00    +0.000 A 
ATOM      2  C   UNL     1       4.114   3.189  16.779  0.00  0.00    +0.000 A 
ATOM      3  C   UNL     1       3.036   3.237  17.661  0.00  0.00    +0.000 A 
ATOM      4  C   UNL     1       2.083   2.198  17.663  0.00  0.00    +0.000 A 
ATOM      5  C   UNL     1       1.001   2.234  18.529  0.00  0.00    +0.000 A 
ATOM      6  C   UNL     1       0.808   3.322  19.356  0.00  0.00    +0.000 A 
ATOM      7  C   UNL     1       1.730   4.372  19.329  0.00  0.00    +0.000 A 
ATOM      8  C   UNL     1       2.912   4.331  18.538  0.00  0.00    +0.000 A 
ATOM      9  C   UNL     1       3.990   5.284  18.585  0.00  0.00    +0.000 A 
ATOM     10  C   UNL     1       5.114   5.244  17.683  0.00  0.00    +0.000 A 
ENDROOT
BRANCH  10  11
ATOM     11  C   UNL     1       6.225   6.261  17.778  0.00  0.00    +0.000 A 
ATOM     12  C   UNL     1       6.132   7.520  17.150  0.00  0.00    +0.000 A 
ATOM     13  C   UNL     1       7.122   8.505  17.287  0.00  0.00    +0.000 A 
ATOM     14  C   UNL     1       8.207   8.289  18.123  0.00  0.00    +0.000 A 
ATOM     15  C   UNL     1       8.336   7.063  18.761  0.00  0.00    +0.000 A 
ATOM     16  C   UNL     1       7.390   6.050  18.543  0.00  0.00    +0.000 A 
ENDBRANCH  10  11
BRANCH   5  17
ATOM     17  O   UNL     1       0.094   1.219  18.590  0.00  0.00    +0.000 OA
ATOM     18  H   UNL     1       0.178   0.774  19.450  0.00  0.00    +0.000 HD
ENDBRANCH   5  17
BRANCH   1  19
ATOM     19  C   UNL     1       6.189   3.931  15.673  0.00  0.00    +0.000 C 
BRANCH  19  20
ATOM     20  C   UNL     1       6.415   5.063  14.677  0.00  0.00    +0.000 C 
BRANCH  20  21
ATOM     21  C   UNL     1       6.249   4.602  13.235  0.00  0.00    +0.000 C 
BRANCH  21  22
ATOM     22  C   UNL     1       6.275   3.081  13.162  0.00  0.00    +0.000 C 
BRANCH  22  23
ATOM     23  C   UNL     1       5.411   2.592  12.007  0.00  0.00    +0.000 C 
BRANCH  23  24
ATOM     24  C   UNL     1       4.390   3.650  11.608  0.00  0.00    +0.000 C 
BRANCH  24  26
ATOM     25  C   UNL     1       2.922   4.254   9.664  0.00  0.00    +0.000 C 
ATOM     26  C   UNL     1       3.465   3.122  10.517  0.00  0.00    +0.000 C 
ENDBRANCH  24  26
ENDBRANCH  23  24
ENDBRANCH  22  23
ENDBRANCH  21  22
ENDBRANCH  20  21
ENDBRANCH  19  20
ENDBRANCH   1  19
BRANCH   9  27
ATOM     27  O   UNL     1       3.927   6.361  19.467  0.00  0.00    +0.000 OA
BRANCH  27  28
ATOM     28  C   UNL     1       2.973   7.350  19.314  0.00  0.00    +0.000 A 
ATOM     29  C   UNL     1       2.076   7.792  20.289  0.00  0.00    +0.000 A 
ATOM     30  C   UNL     1       1.071   8.709  19.959  0.00  0.00    +0.000 A 
ATOM     31  C   UNL     1       0.998   9.267  18.677  0.00  0.00    +0.000 A 
ATOM     32  C   UNL     1       1.935   8.863  17.717  0.00  0.00    +0.000 A 
ATOM     33  C   UNL     1       2.914   7.913  18.036  0.00  0.00    +0.000 A 
BRANCH  31  34
ATOM     34  C   UNL     1      -0.080  10.227  18.393  0.00  0.00    +0.000 C 
ATOM     35  C   UNL     1      -1.165   9.937  17.657  0.00  0.00    +0.000 C 
BRANCH  35  36
ATOM     36  C   UNL     1      -2.141  11.001  17.364  0.00  0.00    +0.000 C 
ATOM     37  O   UNL     1      -3.350  10.846  17.317  0.00  0.00    +0.000 OA
BRANCH  36  38
ATOM     38  O   UNL     1      -1.546  12.200  17.172  0.00  0.00    +0.000 OA
ATOM     39  H   UNL     1      -0.745  12.359  17.704  0.00  0.00    +0.000 HD
ENDBRANCH  36  38
ENDBRANCH  35  36
ENDBRANCH  31  34
ENDBRANCH  27  28
ENDBRANCH   9  27
TORSDOF 14
ENDMDL
MODEL 4
REMARK VINA RESULT:      -8.1      0.917      1.544
REMARK  Name = 
REMARK  15 active torsions:
REMARK  status: ('A' for Active; 'I' for Inactive)
REMARK    1  A    between atoms: C_1  and  C_2
REMARK    2  A    between atoms: C_2  and  C_3
REMARK    3  A    between atoms: C_3  and  C_4
REMARK    4  A    between atoms: C_4  and  C_5
REMARK    5  A    between atoms: C_5  and  C_6
REMARK    6  A    between atoms: C_6  and  C_7
REMARK    7  A    between atoms: C_7  and  C_8
REMARK    8  A    between atoms: C_8  and  C_9
REMARK    9  A    between atoms: C_13  and  O_14
REMARK   10  A    between atoms: C_18  and  O_19
REMARK   11  A    between atoms: O_19  and  C_20
REMARK   12  A    between atoms: C_23  and  C_24
REMARK   13  A    between atoms: C_25  and  C_26
REMARK   14  A    between atoms: C_26  and  O_28
REMARK   15  A    between atoms: C_31  and  C_32
REMARK                            x       y       z     vdW  Elec       q    Type
REMARK                         _______ _______ _______ _____ _____    ______ ____
ROOT
ATOM      1  C   UNL     1       5.248   4.143  17.046  0.00  0.00    +0.000 A 
ATOM      2  C   UNL     1       4.267   3.125  17.053  0.00  0.00    +0.000 A 
ATOM      3  C   UNL     1       3.115   3.186  17.837  0.00  0.00    +0.000 A 
ATOM      4  C   UNL     1       2.202   2.112  17.829  0.00  0.00    +0.000 A 
ATOM      5  C   UNL     1       1.049   2.159  18.597  0.00  0.00    +0.000 A 
ATOM      6  C   UNL     1       0.748   3.290  19.329  0.00  0.00    +0.000 A 
ATOM      7  C   UNL     1       1.631   4.372  19.308  0.00  0.00    +0.000 A 
ATOM      8  C   UNL     1       2.878   4.329  18.624  0.00  0.00    +0.000 A 
ATOM      9  C   UNL     1       3.914   5.325  18.696  0.00  0.00    +0.000 A 
ATOM     10  C   UNL     1       5.113   5.273  17.897  0.00  0.00    +0.000 A 
ENDROOT
BRANCH  10  11
ATOM     11  C   UNL     1       6.176   6.337  18.016  0.00  0.00    +0.000 A 
ATOM     12  C   UNL     1       7.322   6.152  18.816  0.00  0.00    +0.000 A 
ATOM     13  C   UNL     1       8.356   7.099  18.880  0.00  0.00    +0.000 A 
ATOM     14  C   UNL     1       8.311   8.233  18.083  0.00  0.00    +0.000 A 
ATOM     15  C   UNL     1       7.201   8.452  17.279  0.00  0.00    +0.000 A 
ATOM     16  C   UNL     1       6.129   7.546  17.293  0.00  0.00    +0.000 A 
ENDBRANCH  10  11
BRANCH   5  17
ATOM     17  O   UNL     1       0.176   1.115  18.650  0.00  0.00    +0.000 OA
ATOM     18  H   UNL     1       0.382   0.496  17.931  0.00  0.00    +0.000 HD
ENDBRANCH   5  17
BRANCH   1  19
ATOM     19  C   UNL     1       6.402   3.878  16.077  0.00  0.00    +0.000 C 
BRANCH  19  20
ATOM     20  C   UNL     1       6.533   4.831  14.895  0.00  0.00    +0.000 C 
BRANCH  20  21
ATOM     21  C   UNL     1       5.734   4.362  13.686  0.00  0.00    +0.000 C 
BRANCH  21  22
ATOM     22  C   UNL     1       6.657   3.711  12.665  0.00  0.00    +0.000 C 
BRANCH  22  23
ATOM     23  C   UNL     1       5.880   3.342  11.408  0.00  0.00    +0.000 C 
BRANCH  23  24
ATOM     24  C   UNL     1       5.367   1.910  11.488  0.00  0.00    +0.000 C 
BRANCH  24  26
ATOM     25  C   UNL     1       6.167  -0.467  11.431  0.00  0.00    +0.000 C 
ATOM     26  C   UNL     1       6.386   0.939  10.903  0.00  0.00    +0.000 C 
ENDBRANCH  24  26
ENDBRANCH  23  24
ENDBRANCH  22  23
ENDBRANCH  21  22
ENDBRANCH  20  21
ENDBRANCH  19  20
ENDBRANCH   1  19
BRANCH   9  27
ATOM     27  O   UNL     1       3.738   6.453  19.496  0.00  0.00    +0.000 OA
BRANCH  27  28
ATOM     28  C   UNL     1       2.842   7.443  19.139  0.00  0.00    +0.000 A 
ATOM     29  C   UNL     1       2.742   8.058  17.888  0.00  0.00    +0.000 A 
ATOM     30  C   UNL     1       1.878   9.143  17.702  0.00  0.00    +0.000 A 
ATOM     31  C   UNL     1       1.033   9.576  18.732  0.00  0.00    +0.000 A 
ATOM     32  C   UNL     1       1.095   8.920  19.969  0.00  0.00    +0.000 A 
ATOM     33  C   UNL     1       1.992   7.862  20.167  0.00  0.00    +0.000 A 
BRANCH  31  34
ATOM     34  C   UNL     1       0.146  10.720  18.473  0.00  0.00    +0.000 C 
ATOM     35  C   UNL     1       0.396  11.971  18.894  0.00  0.00    +0.000 C 
BRANCH  35  36
ATOM     36  C   UNL     1      -0.605  13.025  18.651  0.00  0.00    +0.000 C 
ATOM     37  O   UNL     1      -0.349  14.204  18.474  0.00  0.00    +0.000 OA
BRANCH  36  38
ATOM     38  O   UNL     1      -1.865  12.534  18.623  0.00  0.00    +0.000 OA
ATOM     39  H   UNL     1      -2.041  11.876  17.925  0.00  0.00    +0.000 HD
ENDBRANCH  36  38
ENDBRANCH  35  36
ENDBRANCH  31  34
ENDBRANCH  27  28
ENDBRANCH   9  27
TORSDOF 14
ENDMDL
MODEL 5
REMARK VINA RESULT:      -8.0      1.184      1.538
REMARK  Name = 
REMARK  15 active torsions:
REMARK  status: ('A' for Active; 'I' for Inactive)
REMARK    1  A    between atoms: C_1  and  C_2
REMARK    2  A    between atoms: C_2  and  C_3
REMARK    3  A    between atoms: C_3  and  C_4
REMARK    4  A    between atoms: C_4  and  C_5
REMARK    5  A    between atoms: C_5  and  C_6
REMARK    6  A    between atoms: C_6  and  C_7
REMARK    7  A    between atoms: C_7  and  C_8
REMARK    8  A    between atoms: C_8  and  C_9
REMARK    9  A    between atoms: C_13  and  O_14
REMARK   10  A    between atoms: C_18  and  O_19
REMARK   11  A    between atoms: O_19  and  C_20
REMARK   12  A    between atoms: C_23  and  C_24
REMARK   13  A    between atoms: C_25  and  C_26
REMARK   14  A    between atoms: C_26  and  O_28
REMARK   15  A    between atoms: C_31  and  C_32
REMARK                            x       y       z     vdW  Elec       q    Type
REMARK                         _______ _______ _______ _____ _____    ______ ____
ROOT
ATOM      1  C   UNL     1       5.214   4.100  16.844  0.00  0.00    +0.000 A 
ATOM      2  C   UNL     1       4.223   3.093  16.899  0.00  0.00    +0.000 A 
ATOM      3  C   UNL     1       3.120   3.158  17.750  0.00  0.00    +0.000 A 
ATOM      4  C   UNL     1       2.195   2.095  17.785  0.00  0.00    +0.000 A 
ATOM      5  C   UNL     1       1.090   2.147  18.621  0.00  0.00    +0.000 A 
ATOM      6  C   UNL     1       0.847   3.272  19.381  0.00  0.00    +0.000 A 
ATOM      7  C   UNL     1       1.740   4.344  19.320  0.00  0.00    +0.000 A 
ATOM      8  C   UNL     1       2.943   4.295  18.563  0.00  0.00    +0.000 A 
ATOM      9  C   UNL     1       3.994   5.278  18.584  0.00  0.00    +0.000 A 
ATOM     10  C   UNL     1       5.143   5.222  17.715  0.00  0.00    +0.000 A 
ENDROOT
BRANCH  10  11
ATOM     11  C   UNL     1       6.223   6.272  17.781  0.00  0.00    +0.000 A 
ATOM     12  C   UNL     1       6.069   7.533  17.167  0.00  0.00    +0.000 A 
ATOM     13  C   UNL     1       7.031   8.547  17.279  0.00  0.00    +0.000 A 
ATOM     14  C   UNL     1       8.150   8.360  18.078  0.00  0.00    +0.000 A 
ATOM     15  C   UNL     1       8.339   7.135  18.702  0.00  0.00    +0.000 A 
ATOM     16  C   UNL     1       7.418   6.094  18.506  0.00  0.00    +0.000 A 
ENDBRANCH  10  11
BRANCH   5  17
ATOM     17  O   UNL     1       0.210   1.111  18.715  0.00  0.00    +0.000 OA
ATOM     18  H   UNL     1      -0.663   1.462  18.955  0.00  0.00    +0.000 HD
ENDBRANCH   5  17
BRANCH   1  19
ATOM     19  C   UNL     1       6.305   3.832  15.806  0.00  0.00    +0.000 C 
BRANCH  19  20
ATOM     20  C   UNL     1       5.976   4.193  14.362  0.00  0.00    +0.000 C 
BRANCH  20  21
ATOM     21  C   UNL     1       7.086   5.003  13.705  0.00  0.00    +0.000 C 
BRANCH  21  22
ATOM     22  C   UNL     1       7.531   4.333  12.411  0.00  0.00    +0.000 C 
BRANCH  22  23
ATOM     23  C   UNL     1       6.454   3.380  11.910  0.00  0.00    +0.000 C 
BRANCH  23  24
ATOM     24  C   UNL     1       7.072   2.086  11.397  0.00  0.00    +0.000 C 
BRANCH  24  26
ATOM     25  C   UNL     1       6.309  -0.304  11.451  0.00  0.00    +0.000 C 
ATOM     26  C   UNL     1       5.987   1.101  10.976  0.00  0.00    +0.000 C 
ENDBRANCH  24  26
ENDBRANCH  23  24
ENDBRANCH  22  23
ENDBRANCH  21  22
ENDBRANCH  20  21
ENDBRANCH  19  20
ENDBRANCH   1  19
BRANCH   9  27
ATOM     27  O   UNL     1       3.879   6.399  19.405  0.00  0.00    +0.000 OA
BRANCH  27  28
ATOM     28  C   UNL     1       2.943   7.381  19.138  0.00  0.00    +0.000 A 
ATOM     29  C   UNL     1       2.806   8.092  17.943  0.00  0.00    +0.000 A 
ATOM     30  C   UNL     1       1.901   9.155  17.855  0.00  0.00    +0.000 A 
ATOM     31  C   UNL     1       1.052   9.470  18.924  0.00  0.00    +0.000 A 
ATOM     32  C   UNL     1       1.153   8.718  20.102  0.00  0.00    +0.000 A 
ATOM     33  C   UNL     1       2.090   7.681  20.204  0.00  0.00    +0.000 A 
BRANCH  31  34
ATOM     34  C   UNL     1       0.120  10.597  18.768  0.00  0.00    +0.000 C 
ATOM     35  C   UNL     1      -1.041  10.706  19.434  0.00  0.00    +0.000 C 
BRANCH  35  36
ATOM     36  C   UNL     1      -1.938  11.836  19.136  0.00  0.00    +0.000 C 
ATOM     37  O   UNL     1      -2.753  11.860  18.228  0.00  0.00    +0.000 OA
BRANCH  36  38
ATOM     38  O   UNL     1      -1.777  12.858  20.006  0.00  0.00    +0.000 OA
ATOM     39  H   UNL     1      -0.865  13.188  20.099  0.00  0.00    +0.000 HD
ENDBRANCH  36  38
ENDBRANCH  35  36
ENDBRANCH  31  34
ENDBRANCH  27  28
ENDBRANCH   9  27
TORSDOF 14
ENDMDL
MODEL 6
REMARK VINA RESULT:      -7.8      0.779      1.501
REMARK  Name = 
REMARK  15 active torsions:
REMARK  status: ('A' for Active; 'I' for Inactive)
REMARK    1  A    between atoms: C_1  and  C_2
REMARK    2  A    between atoms: C_2  and  C_3
REMARK    3  A    between atoms: C_3  and  C_4
REMARK    4  A    between atoms: C_4  and  C_5
REMARK    5  A    between atoms: C_5  and  C_6
REMARK    6  A    between atoms: C_6  and  C_7
REMARK    7  A    between atoms: C_7  and  C_8
REMARK    8  A    between atoms: C_8  and  C_9
REMARK    9  A    between atoms: C_13  and  O_14
REMARK   10  A    between atoms: C_18  and  O_19
REMARK   11  A    between atoms: O_19  and  C_20
REMARK   12  A    between atoms: C_23  and  C_24
REMARK   13  A    between atoms: C_25  and  C_26
REMARK   14  A    between atoms: C_26  and  O_28
REMARK   15  A    between atoms: C_31  and  C_32
REMARK                            x       y       z     vdW  Elec       q    Type
REMARK                         _______ _______ _______ _____ _____    ______ ____
ROOT
ATOM      1  C   UNL     1       5.234   4.098  16.807  0.00  0.00    +0.000 A 
ATOM      2  C   UNL     1       4.210   3.124  16.816  0.00  0.00    +0.000 A 
ATOM      3  C   UNL     1       3.116   3.181  17.679  0.00  0.00    +0.000 A 
ATOM      4  C   UNL     1       2.156   2.148  17.666  0.00  0.00    +0.000 A 
ATOM      5  C   UNL     1       1.059   2.193  18.513  0.00  0.00    +0.000 A 
ATOM      6  C   UNL     1       0.859   3.285  19.333  0.00  0.00    +0.000 A 
ATOM      7  C   UNL     1       1.787   4.328  19.320  0.00  0.00    +0.000 A 
ATOM      8  C   UNL     1       2.983   4.278  18.552  0.00  0.00    +0.000 A 
ATOM      9  C   UNL     1       4.066   5.223  18.615  0.00  0.00    +0.000 A 
ATOM     10  C   UNL     1       5.207   5.174  17.735  0.00  0.00    +0.000 A 
ENDROOT
BRANCH  10  11
ATOM     11  C   UNL     1       6.323   6.183  17.847  0.00  0.00    +0.000 A 
ATOM     12  C   UNL     1       6.294   7.401  17.137  0.00  0.00    +0.000 A 
ATOM     13  C   UNL     1       7.285   8.383  17.285  0.00  0.00    +0.000 A 
ATOM     14  C   UNL     1       8.304   8.209  18.210  0.00  0.00    +0.000 A 
ATOM     15  C   UNL     1       8.368   7.025  18.931  0.00  0.00    +0.000 A 
ATOM     16  C   UNL     1       7.425   6.009  18.708  0.00  0.00    +0.000 A 
ENDBRANCH  10  11
BRANCH   5  17
ATOM     17  O   UNL     1       0.144   1.184  18.559  0.00  0.00    +0.000 OA
ATOM     18  H   UNL     1       0.407   0.493  17.930  0.00  0.00    +0.000 HD
ENDBRANCH   5  17
BRANCH   1  19
ATOM     19  C   UNL     1       6.309   3.849  15.747  0.00  0.00    +0.000 C 
BRANCH  19  20
ATOM     20  C   UNL     1       6.344   4.818  14.570  0.00  0.00    +0.000 C 
BRANCH  20  21
ATOM     21  C   UNL     1       6.396   4.094  13.231  0.00  0.00    +0.000 C 
BRANCH  21  22
ATOM     22  C   UNL     1       4.986   3.769  12.753  0.00  0.00    +0.000 C 
BRANCH  22  23
ATOM     23  C   UNL     1       5.036   3.007  11.436  0.00  0.00    +0.000 C 
BRANCH  23  24
ATOM     24  C   UNL     1       5.494   1.571  11.657  0.00  0.00    +0.000 C 
BRANCH  24  26
ATOM     25  C   UNL     1       7.855   2.055  10.958  0.00  0.00    +0.000 C 
ATOM     26  C   UNL     1       6.621   1.211  10.695  0.00  0.00    +0.000 C 
ENDBRANCH  24  26
ENDBRANCH  23  24
ENDBRANCH  22  23
ENDBRANCH  21  22
ENDBRANCH  20  21
ENDBRANCH  19  20
ENDBRANCH   1  19
BRANCH   9  27
ATOM     27  O   UNL     1       3.995   6.302  19.495  0.00  0.00    +0.000 OA
BRANCH  27  28
ATOM     28  C   UNL     1       3.012   7.265  19.358  0.00  0.00    +0.000 A 
ATOM     29  C   UNL     1       2.076   7.635  20.328  0.00  0.00    +0.000 A 
ATOM     30  C   UNL     1       1.049   8.531  20.010  0.00  0.00    +0.000 A 
ATOM     31  C   UNL     1       0.989   9.142  18.751  0.00  0.00    +0.000 A 
ATOM     32  C   UNL     1       1.963   8.811  17.800  0.00  0.00    +0.000 A 
ATOM     33  C   UNL     1       2.966   7.881  18.105  0.00  0.00    +0.000 A 
BRANCH  31  34
ATOM     34  C   UNL     1      -0.113  10.077  18.480  0.00  0.00    +0.000 C 
ATOM     35  C   UNL     1      -0.030  11.406  18.659  0.00  0.00    +0.000 C 
BRANCH  35  36
ATOM     36  C   UNL     1      -1.225  12.238  18.437  0.00  0.00    +0.000 C 
ATOM     37  O   UNL     1      -2.144  12.365  19.229  0.00  0.00    +0.000 OA
BRANCH  36  38
ATOM     38  O   UNL     1      -1.186  12.879  17.248  0.00  0.00    +0.000 OA
ATOM     39  H   UNL     1      -0.364  13.369  17.064  0.00  0.00    +0.000 HD
ENDBRANCH  36  38
ENDBRANCH  35  36
ENDBRANCH  31  34
ENDBRANCH  27  28
ENDBRANCH   9  27
TORSDOF 14
ENDMDL
MODEL 7
REMARK VINA RESULT:      -7.3      0.961      1.770
REMARK  Name = 
REMARK  15 active torsions:
REMARK  status: ('A' for Active; 'I' for Inactive)
REMARK    1  A    between atoms: C_1  and  C_2
REMARK    2  A    between atoms: C_2  and  C_3
REMARK    3  A    between atoms: C_3  and  C_4
REMARK    4  A    between atoms: C_4  and  C_5
REMARK    5  A    between atoms: C_5  and  C_6
REMARK    6  A    between atoms: C_6  and  C_7
REMARK    7  A    between atoms: C_7  and  C_8
REMARK    8  A    between atoms: C_8  and  C_9
REMARK    9  A    between atoms: C_13  and  O_14
REMARK   10  A    between atoms: C_18  and  O_19
REMARK   11  A    between atoms: O_19  and  C_20
REMARK   12  A    between atoms: C_23  and  C_24
REMARK   13  A    between atoms: C_25  and  C_26
REMARK   14  A    between atoms: C_26  and  O_28
REMARK   15  A    between atoms: C_31  and  C_32
REMARK                            x       y       z     vdW  Elec       q    Type
REMARK                         _______ _______ _______ _____ _____    ______ ____
ROOT
ATOM      1  C   UNL     1       4.879   4.091  16.906  0.00  0.00    +0.000 A 
ATOM      2  C   UNL     1       3.872   3.100  16.946  0.00  0.00    +0.000 A 
ATOM      3  C   UNL     1       2.809   3.133  17.848  0.00  0.00    +0.000 A 
ATOM      4  C   UNL     1       1.866   2.085  17.863  0.00  0.00    +0.000 A 
ATOM      5  C   UNL     1       0.799   2.107  18.748  0.00  0.00    +0.000 A 
ATOM      6  C   UNL     1       0.611   3.190  19.582  0.00  0.00    +0.000 A 
ATOM      7  C   UNL     1       1.521   4.249  19.543  0.00  0.00    +0.000 A 
ATOM      8  C   UNL     1       2.689   4.223  18.732  0.00  0.00    +0.000 A 
ATOM      9  C   UNL     1       3.758   5.186  18.763  0.00  0.00    +0.000 A 
ATOM     10  C   UNL     1       4.867   5.161  17.842  0.00  0.00    +0.000 A 
ENDROOT
BRANCH  10  11
ATOM     11  C   UNL     1       5.970   6.188  17.921  0.00  0.00    +0.000 A 
ATOM     12  C   UNL     1       7.100   5.999  18.744  0.00  0.00    +0.000 A 
ATOM     13  C   UNL     1       8.169   6.907  18.775  0.00  0.00    +0.000 A 
ATOM     14  C   UNL     1       8.177   8.001  17.922  0.00  0.00    +0.000 A 
ATOM     15  C   UNL     1       7.086   8.222  17.094  0.00  0.00    +0.000 A 
ATOM     16  C   UNL     1       5.979   7.360  17.139  0.00  0.00    +0.000 A 
ENDBRANCH  10  11
BRANCH   5  17
ATOM     17  O   UNL     1      -0.096   1.082  18.820  0.00  0.00    +0.000 OA
ATOM     18  H   UNL     1      -0.729   1.166  18.089  0.00  0.00    +0.000 HD
ENDBRANCH   5  17
BRANCH   1  19
ATOM     19  C   UNL     1       5.919   3.867  15.808  0.00  0.00    +0.000 C 
BRANCH  19  20
ATOM     20  C   UNL     1       7.228   4.637  15.939  0.00  0.00    +0.000 C 
BRANCH  20  21
ATOM     21  C   UNL     1       7.672   5.248  14.616  0.00  0.00    +0.000 C 
BRANCH  21  22
ATOM     22  C   UNL     1       6.692   4.876  13.510  0.00  0.00    +0.000 C 
BRANCH  22  23
ATOM     23  C   UNL     1       7.378   4.006  12.466  0.00  0.00    +0.000 C 
BRANCH  23  24
ATOM     24  C   UNL     1       6.352   3.257  11.625  0.00  0.00    +0.000 C 
BRANCH  24  26
ATOM     25  C   UNL     1       3.886   3.217  11.160  0.00  0.00    +0.000 C 
ATOM     26  C   UNL     1       4.956   3.406  12.220  0.00  0.00    +0.000 C 
ENDBRANCH  24  26
ENDBRANCH  23  24
ENDBRANCH  22  23
ENDBRANCH  21  22
ENDBRANCH  20  21
ENDBRANCH  19  20
ENDBRANCH   1  19
BRANCH   9  27
ATOM     27  O   UNL     1       3.700   6.259  19.651  0.00  0.00    +0.000 OA
BRANCH  27  28
ATOM     28  C   UNL     1       2.801   7.291  19.460  0.00  0.00    +0.000 A 
ATOM     29  C   UNL     1       1.977   7.862  20.433  0.00  0.00    +0.000 A 
ATOM     30  C   UNL     1       1.014   8.812  20.074  0.00  0.00    +0.000 A 
ATOM     31  C   UNL     1       0.917   9.275  18.755  0.00  0.00    +0.000 A 
ATOM     32  C   UNL     1       1.783   8.741  17.792  0.00  0.00    +0.000 A 
ATOM     33  C   UNL     1       2.717   7.759  18.145  0.00  0.00    +0.000 A 
BRANCH  31  34
ATOM     34  C   UNL     1      -0.114  10.276  18.441  0.00  0.00    +0.000 C 
ATOM     35  C   UNL     1      -1.215  10.015  17.716  0.00  0.00    +0.000 C 
BRANCH  35  36
ATOM     36  C   UNL     1      -2.138  11.116  17.390  0.00  0.00    +0.000 C 
ATOM     37  O   UNL     1      -3.355  11.028  17.388  0.00  0.00    +0.000 OA
BRANCH  36  38
ATOM     38  O   UNL     1      -1.484  12.264  17.108  0.00  0.00    +0.000 OA
ATOM     39  H   UNL     1      -1.892  13.075  17.463  0.00  0.00    +0.000 HD
ENDBRANCH  36  38
ENDBRANCH  35  36
ENDBRANCH  31  34
ENDBRANCH  27  28
ENDBRANCH   9  27
TORSDOF 14
ENDMDL
MODEL 8
REMARK VINA RESULT:      -7.1      4.785     12.357
REMARK  Name = 
REMARK  15 active torsions:
REMARK  status: ('A' for Active; 'I' for Inactive)
REMARK    1  A    between atoms: C_1  and  C_2
REMARK    2  A    between atoms: C_2  and  C_3
REMARK    3  A    between atoms: C_3  and  C_4
REMARK    4  A    between atoms: C_4  and  C_5
REMARK    5  A    between atoms: C_5  and  C_6
REMARK    6  A    between atoms: C_6  and  C_7
REMARK    7  A    between atoms: C_7  and  C_8
REMARK    8  A    between atoms: C_8  and  C_9
REMARK    9  A    between atoms: C_13  and  O_14
REMARK   10  A    between atoms: C_18  and  O_19
REMARK   11  A    between atoms: O_19  and  C_20
REMARK   12  A    between atoms: C_23  and  C_24
REMARK   13  A    between atoms: C_25  and  C_26
REMARK   14  A    between atoms: C_26  and  O_28
REMARK   15  A    between atoms: C_31  and  C_32
REMARK                            x       y       z     vdW  Elec       q    Type
REMARK                         _______ _______ _______ _____ _____    ______ ____
ROOT
ATOM      1  C   UNL     1      -4.626  12.689  19.952  0.00  0.00    +0.000 A 
ATOM      2  C   UNL     1      -5.059  12.093  18.746  0.00  0.00    +0.000 A 
ATOM      3  C   UNL     1      -4.180  11.575  17.795  0.00  0.00    +0.000 A 
ATOM      4  C   UNL     1      -4.682  11.037  16.592  0.00  0.00    +0.000 A 
ATOM      5  C   UNL     1      -3.821  10.512  15.640  0.00  0.00    +0.000 A 
ATOM      6  C   UNL     1      -2.465  10.450  15.888  0.00  0.00    +0.000 A 
ATOM      7  C   UNL     1      -1.968  10.947  17.096  0.00  0.00    +0.000 A 
ATOM      8  C   UNL     1      -2.796  11.593  18.055  0.00  0.00    +0.000 A 
ATOM      9  C   UNL     1      -2.341  12.282  19.234  0.00  0.00    +0.000 A 
ATOM     10  C   UNL     1      -3.237  12.828  20.223  0.00  0.00    +0.000 A 
ENDROOT
BRANCH  10  11
ATOM     11  C   UNL     1      -2.711  13.550  21.438  0.00  0.00    +0.000 A 
ATOM     12  C   UNL     1      -2.417  14.929  21.410  0.00  0.00    +0.000 A 
ATOM     13  C   UNL     1      -1.997  15.633  22.548  0.00  0.00    +0.000 A 
ATOM     14  C   UNL     1      -1.931  14.993  23.777  0.00  0.00    +0.000 A 
ATOM     15  C   UNL     1      -2.215  13.636  23.849  0.00  0.00    +0.000 A 
ATOM     16  C   UNL     1      -2.542  12.920  22.687  0.00  0.00    +0.000 A 
ENDBRANCH  10  11
BRANCH   5  17
ATOM     17  O   UNL     1      -4.274  10.035  14.447  0.00  0.00    +0.000 OA
ATOM     18  H   UNL     1      -3.731   9.273  14.187  0.00  0.00    +0.000 HD
ENDBRANCH   5  17
BRANCH   1  19
ATOM     19  C   UNL     1      -5.770  13.147  20.857  0.00  0.00    +0.000 C 
BRANCH  19  20
ATOM     20  C   UNL     1      -6.790  12.086  21.256  0.00  0.00    +0.000 C 
BRANCH  20  21
ATOM     21  C   UNL     1      -7.586  12.489  22.491  0.00  0.00    +0.000 C 
BRANCH  21  22
ATOM     22  C   UNL     1      -6.645  12.959  23.593  0.00  0.00    +0.000 C 
BRANCH  22  23
ATOM     23  C   UNL     1      -6.866  14.438  23.883  0.00  0.00    +0.000 C 
BRANCH  23  24
ATOM     24  C   UNL     1      -5.551  15.204  23.823  0.00  0.00    +0.000 C 
BRANCH  24  26
ATOM     25  C   UNL     1      -4.606  17.188  25.034  0.00  0.00    +0.000 C 
ATOM     26  C   UNL     1      -5.762  16.666  24.200  0.00  0.00    +0.000 C 
ENDBRANCH  24  26
ENDBRANCH  23  24
ENDBRANCH  22  23
ENDBRANCH  21  22
ENDBRANCH  20  21
ENDBRANCH  19  20
ENDBRANCH   1  19
BRANCH   9  27
ATOM     27  O   UNL     1      -0.976  12.359  19.509  0.00  0.00    +0.000 OA
BRANCH  27  28
ATOM     28  C   UNL     1      -0.226  11.214  19.707  0.00  0.00    +0.000 A 
ATOM     29  C   UNL     1       0.757  10.711  18.851  0.00  0.00    +0.000 A 
ATOM     30  C   UNL     1       1.346   9.468  19.107  0.00  0.00    +0.000 A 
ATOM     31  C   UNL     1       1.032   8.748  20.267  0.00  0.00    +0.000 A 
ATOM     32  C   UNL     1       0.087   9.282  21.152  0.00  0.00    +0.000 A 
ATOM     33  C   UNL     1      -0.534  10.507  20.872  0.00  0.00    +0.000 A 
BRANCH  31  34
ATOM     34  C   UNL     1       1.687   7.448  20.480  0.00  0.00    +0.000 C 
ATOM     35  C   UNL     1       2.442   6.829  19.557  0.00  0.00    +0.000 C 
BRANCH  35  36
ATOM     36  C   UNL     1       2.979   5.489  19.848  0.00  0.00    +0.000 C 
ATOM     37  O   UNL     1       2.309   4.475  19.953  0.00  0.00    +0.000 OA
BRANCH  36  38
ATOM     38  O   UNL     1       4.326   5.495  19.968  0.00  0.00    +0.000 OA
ATOM     39  H   UNL     1       4.745   6.374  19.925  0.00  0.00    +0.000 HD
ENDBRANCH  36  38
ENDBRANCH  35  36
ENDBRANCH  31  34
ENDBRANCH  27  28
ENDBRANCH   9  27
TORSDOF 14
ENDMDL
MODEL 9
REMARK VINA RESULT:      -7.1      5.875     10.726
REMARK  Name = 
REMARK  15 active torsions:
REMARK  status: ('A' for Active; 'I' for Inactive)
REMARK    1  A    between atoms: C_1  and  C_2
REMARK    2  A    between atoms: C_2  and  C_3
REMARK    3  A    between atoms: C_3  and  C_4
REMARK    4  A    between atoms: C_4  and  C_5
REMARK    5  A    between atoms: C_5  and  C_6
REMARK    6  A    between atoms: C_6  and  C_7
REMARK    7  A    between atoms: C_7  and  C_8
REMARK    8  A    between atoms: C_8  and  C_9
REMARK    9  A    between atoms: C_13  and  O_14
REMARK   10  A    between atoms: C_18  and  O_19
REMARK   11  A    between atoms: O_19  and  C_20
REMARK   12  A    between atoms: C_23  and  C_24
REMARK   13  A    between atoms: C_25  and  C_26
REMARK   14  A    between atoms: C_26  and  O_28
REMARK   15  A    between atoms: C_31  and  C_32
REMARK                            x       y       z     vdW  Elec       q    Type
REMARK                         _______ _______ _______ _____ _____    ______ ____
ROOT
ATOM      1  C   UNL     1       0.200  13.080  20.811  0.00  0.00    +0.000 A 
ATOM      2  C   UNL     1      -0.655  14.147  21.172  0.00  0.00    +0.000 A 
ATOM      3  C   UNL     1      -2.033  14.119  20.965  0.00  0.00    +0.000 A 
ATOM      4  C   UNL     1      -2.818  15.238  21.308  0.00  0.00    +0.000 A 
ATOM      5  C   UNL     1      -4.191  15.224  21.116  0.00  0.00    +0.000 A 
ATOM      6  C   UNL     1      -4.815  14.086  20.647  0.00  0.00    +0.000 A 
ATOM      7  C   UNL     1      -4.045  12.961  20.343  0.00  0.00    +0.000 A 
ATOM      8  C   UNL     1      -2.625  12.963  20.420  0.00  0.00    +0.000 A 
ATOM      9  C   UNL     1      -1.754  11.913  19.962  0.00  0.00    +0.000 A 
ATOM     10  C   UNL     1      -0.326  11.930  20.162  0.00  0.00    +0.000 A 
ENDROOT
BRANCH  10  11
ATOM     11  C   UNL     1       0.546  10.809  19.655  0.00  0.00    +0.000 A 
ATOM     12  C   UNL     1       0.677   9.595  20.361  0.00  0.00    +0.000 A 
ATOM     13  C   UNL     1       1.425   8.515  19.870  0.00  0.00    +0.000 A 
ATOM     14  C   UNL     1       2.006   8.586  18.612  0.00  0.00    +0.000 A 
ATOM     15  C   UNL     1       1.899   9.761  17.883  0.00  0.00    +0.000 A 
ATOM     16  C   UNL     1       1.230  10.870  18.424  0.00  0.00    +0.000 A 
ENDBRANCH  10  11
BRANCH   5  17
ATOM     17  O   UNL     1      -4.967  16.310  21.388  0.00  0.00    +0.000 OA
ATOM     18  H   UNL     1      -4.394  17.047  21.655  0.00  0.00    +0.000 HD
ENDBRANCH   5  17
BRANCH   1  19
ATOM     19  C   UNL     1       1.667  13.319  21.172  0.00  0.00    +0.000 C 
BRANCH  19  20
ATOM     20  C   UNL     1       2.330  14.548  20.560  0.00  0.00    +0.000 C 
BRANCH  20  21
ATOM     21  C   UNL     1       2.231  14.559  19.040  0.00  0.00    +0.000 C 
BRANCH  21  22
ATOM     22  C   UNL     1       1.788  15.931  18.551  0.00  0.00    +0.000 C 
BRANCH  22  23
ATOM     23  C   UNL     1       0.271  15.984  18.425  0.00  0.00    +0.000 C 
BRANCH  23  24
ATOM     24  C   UNL     1      -0.220  17.426  18.381  0.00  0.00    +0.000 C 
BRANCH  24  26
ATOM     25  C   UNL     1       0.485  18.474  16.213  0.00  0.00    +0.000 C 
ATOM     26  C   UNL     1       0.802  18.322  17.689  0.00  0.00    +0.000 C 
ENDBRANCH  24  26
ENDBRANCH  23  24
ENDBRANCH  22  23
ENDBRANCH  21  22
ENDBRANCH  20  21
ENDBRANCH  19  20
ENDBRANCH   1  19
BRANCH   9  27
ATOM     27  O   UNL     1      -2.294  10.768  19.378  0.00  0.00    +0.000 OA
BRANCH  27  28
ATOM     28  C   UNL     1      -2.520  10.706  18.015  0.00  0.00    +0.000 A 
ATOM     29  C   UNL     1      -3.389  11.517  17.282  0.00  0.00    +0.000 A 
ATOM     30  C   UNL     1      -3.623  11.257  15.926  0.00  0.00    +0.000 A 
ATOM     31  C   UNL     1      -2.926  10.243  15.257  0.00  0.00    +0.000 A 
ATOM     32  C   UNL     1      -2.012   9.468  15.983  0.00  0.00    +0.000 A 
ATOM     33  C   UNL     1      -1.812   9.701  17.350  0.00  0.00    +0.000 A 
BRANCH  31  34
ATOM     34  C   UNL     1      -3.214  10.021  13.832  0.00  0.00    +0.000 C 
ATOM     35  C   UNL     1      -4.451  10.022  13.309  0.00  0.00    +0.000 C 
BRANCH  35  36
ATOM     36  C   UNL     1      -4.629   9.703  11.882  0.00  0.00    +0.000 C 
ATOM     37  O   UNL     1      -5.702   9.483  11.344  0.00  0.00    +0.000 OA
BRANCH  36  38
ATOM     38  O   UNL     1      -3.456   9.701  11.210  0.00  0.00    +0.000 OA
ATOM     39  H   UNL     1      -3.405  10.319  10.457  0.00  0.00    +0.000 HD
ENDBRANCH  36  38
ENDBRANCH  35  36
ENDBRANCH  31  34
ENDBRANCH  27  28
ENDBRANCH   9  27
TORSDOF 14
ENDMDL
