MODEL 1
REMARK VINA RESULT:      -7.5      0.000      0.000
REMARK  Name = 
REMARK  3 active torsions:
REMARK  status: ('A' for Active; 'I' for Inactive)
REMARK    1  A    between atoms: C_4  and  C_5
REMARK    2  A    between atoms: N_19  and  C_20
REMARK    3  A    between atoms: C_20  and  C_21
REMARK                            x       y       z     vdW  Elec       q    Type
REMARK                         _______ _______ _______ _____ _____    ______ ____
ROOT
ATOM      1  O   UNL     1       0.800   8.876  22.584  0.00  0.00    +0.000 OA
ATOM      2  C   UNL     1       1.158   8.551  21.455  0.00  0.00    +0.000 A 
ATOM      3  N   UNL     1       1.770   7.352  21.208  0.00  0.00    +0.000 N 
ATOM      4  C   UNL     1       2.210   6.953  19.955  0.00  0.00    +0.000 A 
ATOM      5  N   UNL     1       2.124   7.696  18.893  0.00  0.00    +0.000 NA
ATOM      6  C   UNL     1       1.517   8.899  19.092  0.00  0.00    +0.000 A 
ATOM      7  S   UNL     1       1.314  10.040  17.827  0.00  0.00    +0.000 S 
ATOM      8  C   UNL     1       0.535  11.141  18.867  0.00  0.00    +0.000 A 
ATOM      9  C   UNL     1       0.378  10.636  20.145  0.00  0.00    +0.000 A 
ATOM     10  C   UNL     1       1.003   9.368  20.282  0.00  0.00    +0.000 A 
ATOM     11  C   UNL     1      -0.315  11.426  21.211  0.00  0.00    +0.000 C 
ATOM     12  C   UNL     1      -1.038  12.639  20.589  0.00  0.00    +0.000 C 
ATOM     13  N   UNL     1      -0.229  13.392  19.595  0.00  0.00    +0.000 NA
ATOM     14  C   UNL     1       0.053  12.500  18.429  0.00  0.00    +0.000 C 
ATOM     15  H   UNL     1       1.933   6.787  22.029  0.00  0.00    +0.000 HD
ENDROOT
BRANCH   4  16
ATOM     16  C   UNL     1       2.814   5.601  19.910  0.00  0.00    +0.000 A 
ATOM     17  C   UNL     1       3.965   5.365  19.143  0.00  0.00    +0.000 A 
ATOM     18  C   UNL     1       4.490   4.077  19.054  0.00  0.00    +0.000 A 
ATOM     19  C   UNL     1       3.878   3.030  19.741  0.00  0.00    +0.000 A 
ATOM     20  C   UNL     1       2.753   3.270  20.532  0.00  0.00    +0.000 A 
ATOM     21  C   UNL     1       2.221   4.557  20.623  0.00  0.00    +0.000 A 
ENDBRANCH   4  16
BRANCH  13  22
ATOM     22  C   UNL     1       1.039  13.915  20.152  0.00  0.00    +0.000 C 
BRANCH  22  23
ATOM     23  C   UNL     1       1.842  14.807  19.222  0.00  0.00    +0.000 A 
ATOM     24  C   UNL     1       3.071  14.363  18.705  0.00  0.00    +0.000 A 
ATOM     25  C   UNL     1       3.816  15.164  17.836  0.00  0.00    +0.000 A 
ATOM     26  C   UNL     1       3.334  16.413  17.458  0.00  0.00    +0.000 A 
ATOM     27  C   UNL     1       2.109  16.862  17.953  0.00  0.00    +0.000 A 
ATOM     28  C   UNL     1       1.367  16.065  18.831  0.00  0.00    +0.000 A 
ENDBRANCH  22  23
ENDBRANCH  13  22
TORSDOF 3
ENDMDL
MODEL 2
REMARK VINA RESULT:      -7.5      2.548      4.615
REMARK  Name = 
REMARK  3 active torsions:
REMARK  status: ('A' for Active; 'I' for Inactive)
REMARK    1  A    between atoms: C_4  and  C_5
REMARK    2  A    between atoms: N_19  and  C_20
REMARK    3  A    between atoms: C_20  and  C_21
REMARK                            x       y       z     vdW  Elec       q    Type
REMARK                         _______ _______ _______ _____ _____    ______ ____
ROOT
ATOM      1  O   UNL     1       1.995   9.444  17.400  0.00  0.00    +0.000 OA
ATOM      2  C   UNL     1       1.862   8.833  18.458  0.00  0.00    +0.000 A 
ATOM      3  N   UNL     1       2.394   7.585  18.643  0.00  0.00    +0.000 N 
ATOM      4  C   UNL     1       2.251   6.851  19.810  0.00  0.00    +0.000 A 
ATOM      5  N   UNL     1       1.559   7.254  20.833  0.00  0.00    +0.000 NA
ATOM      6  C   UNL     1       1.012   8.493  20.694  0.00  0.00    +0.000 A 
ATOM      7  S   UNL     1       0.049   9.210  21.918  0.00  0.00    +0.000 S 
ATOM      8  C   UNL     1      -0.185  10.619  20.990  0.00  0.00    +0.000 A 
ATOM      9  C   UNL     1       0.499  10.577  19.788  0.00  0.00    +0.000 A 
ATOM     10  C   UNL     1       1.136   9.322  19.599  0.00  0.00    +0.000 A 
ATOM     11  C   UNL     1       0.460  11.729  18.834  0.00  0.00    +0.000 C 
ATOM     12  C   UNL     1      -0.149  12.969  19.521  0.00  0.00    +0.000 C 
ATOM     13  N   UNL     1      -1.378  12.692  20.311  0.00  0.00    +0.000 NA
ATOM     14  C   UNL     1      -1.027  11.784  21.444  0.00  0.00    +0.000 C 
ATOM     15  H   UNL     1       2.863   7.205  17.834  0.00  0.00    +0.000 HD
ENDROOT
BRANCH   4  16
ATOM     16  C   UNL     1       2.939   5.539  19.806  0.00  0.00    +0.000 A 
ATOM     17  C   UNL     1       4.159   5.381  19.131  0.00  0.00    +0.000 A 
ATOM     18  C   UNL     1       4.767   4.128  19.079  0.00  0.00    +0.000 A 
ATOM     19  C   UNL     1       4.170   3.040  19.711  0.00  0.00    +0.000 A 
ATOM     20  C   UNL     1       2.974   3.203  20.412  0.00  0.00    +0.000 A 
ATOM     21  C   UNL     1       2.358   4.454  20.467  0.00  0.00    +0.000 A 
ENDBRANCH   4  16
BRANCH  13  22
ATOM     22  C   UNL     1      -2.467  12.098  19.503  0.00  0.00    +0.000 C 
BRANCH  22  23
ATOM     23  C   UNL     1      -3.874  12.507  19.902  0.00  0.00    +0.000 A 
ATOM     24  C   UNL     1      -4.970  12.137  19.105  0.00  0.00    +0.000 A 
ATOM     25  C   UNL     1      -6.272  12.491  19.465  0.00  0.00    +0.000 A 
ATOM     26  C   UNL     1      -6.498  13.208  20.636  0.00  0.00    +0.000 A 
ATOM     27  C   UNL     1      -5.420  13.572  21.445  0.00  0.00    +0.000 A 
ATOM     28  C   UNL     1      -4.115  13.225  21.080  0.00  0.00    +0.000 A 
ENDBRANCH  22  23
ENDBRANCH  13  22
TORSDOF 3
ENDMDL
MODEL 3
REMARK VINA RESULT:      -7.5      0.140      1.321
REMARK  Name = 
REMARK  3 active torsions:
REMARK  status: ('A' for Active; 'I' for Inactive)
REMARK    1  A    between atoms: C_4  and  C_5
REMARK    2  A    between atoms: N_19  and  C_20
REMARK    3  A    between atoms: C_20  and  C_21
REMARK                            x       y       z     vdW  Elec       q    Type
REMARK                         _______ _______ _______ _____ _____    ______ ____
ROOT
ATOM      1  O   UNL     1       0.870   8.945  22.629  0.00  0.00    +0.000 OA
ATOM      2  C   UNL     1       1.180   8.619  21.486  0.00  0.00    +0.000 A 
ATOM      3  N   UNL     1       1.783   7.420  21.214  0.00  0.00    +0.000 N 
ATOM      4  C   UNL     1       2.170   7.021  19.944  0.00  0.00    +0.000 A 
ATOM      5  N   UNL     1       2.037   7.763  18.886  0.00  0.00    +0.000 NA
ATOM      6  C   UNL     1       1.438   8.966  19.109  0.00  0.00    +0.000 A 
ATOM      7  S   UNL     1       1.179  10.104  17.853  0.00  0.00    +0.000 S 
ATOM      8  C   UNL     1       0.443  11.205  18.924  0.00  0.00    +0.000 A 
ATOM      9  C   UNL     1       0.342  10.702  20.209  0.00  0.00    +0.000 A 
ATOM     10  C   UNL     1       0.974   9.435  20.320  0.00  0.00    +0.000 A 
ATOM     11  C   UNL     1      -0.306  11.491  21.302  0.00  0.00    +0.000 C 
ATOM     12  C   UNL     1      -1.057  12.703  20.710  0.00  0.00    +0.000 C 
ATOM     13  N   UNL     1      -0.292  13.456  19.681  0.00  0.00    +0.000 NA
ATOM     14  C   UNL     1      -0.058  12.563  18.506  0.00  0.00    +0.000 C 
ATOM     15  H   UNL     1       1.982   6.857  22.028  0.00  0.00    +0.000 HD
ENDROOT
BRANCH   4  16
ATOM     16  C   UNL     1       2.773   5.670  19.875  0.00  0.00    +0.000 A 
ATOM     17  C   UNL     1       2.152   4.583  20.508  0.00  0.00    +0.000 A 
ATOM     18  C   UNL     1       2.758   3.329  20.492  0.00  0.00    +0.000 A 
ATOM     19  C   UNL     1       3.973   3.154  19.833  0.00  0.00    +0.000 A 
ATOM     20  C   UNL     1       4.576   4.227  19.173  0.00  0.00    +0.000 A 
ATOM     21  C   UNL     1       3.974   5.486  19.187  0.00  0.00    +0.000 A 
ENDBRANCH   4  16
BRANCH  13  22
ATOM     22  C   UNL     1       0.998  13.982  20.183  0.00  0.00    +0.000 C 
BRANCH  22  23
ATOM     23  C   UNL     1       1.757  14.877  19.221  0.00  0.00    +0.000 A 
ATOM     24  C   UNL     1       1.272  16.161  18.919  0.00  0.00    +0.000 A 
ATOM     25  C   UNL     1       1.966  17.004  18.047  0.00  0.00    +0.000 A 
ATOM     26  C   UNL     1       3.163  16.581  17.478  0.00  0.00    +0.000 A 
ATOM     27  C   UNL     1       3.664  15.314  17.778  0.00  0.00    +0.000 A 
ATOM     28  C   UNL     1       2.965  14.465  18.644  0.00  0.00    +0.000 A 
ENDBRANCH  22  23
ENDBRANCH  13  22
TORSDOF 3
ENDMDL
MODEL 4
REMARK VINA RESULT:      -7.5      2.662      4.795
REMARK  Name = 
REMARK  3 active torsions:
REMARK  status: ('A' for Active; 'I' for Inactive)
REMARK    1  A    between atoms: C_4  and  C_5
REMARK    2  A    between atoms: N_19  and  C_20
REMARK    3  A    between atoms: C_20  and  C_21
REMARK                            x       y       z     vdW  Elec       q    Type
REMARK                         _______ _______ _______ _____ _____    ______ ____
ROOT
ATOM      1  O   UNL     1       1.857  10.017  17.450  0.00  0.00    +0.000 OA
ATOM      2  C   UNL     1       1.835   9.194  18.362  0.00  0.00    +0.000 A 
ATOM      3  N   UNL     1       2.313   7.922  18.200  0.00  0.00    +0.000 N 
ATOM      4  C   UNL     1       2.289   6.955  19.192  0.00  0.00    +0.000 A 
ATOM      5  N   UNL     1       1.771   7.146  20.369  0.00  0.00    +0.000 NA
ATOM      6  C   UNL     1       1.285   8.401  20.577  0.00  0.00    +0.000 A 
ATOM      7  S   UNL     1       0.545   8.861  22.054  0.00  0.00    +0.000 S 
ATOM      8  C   UNL     1       0.269  10.444  21.489  0.00  0.00    +0.000 A 
ATOM      9  C   UNL     1       0.776  10.645  20.218  0.00  0.00    +0.000 A 
ATOM     10  C   UNL     1       1.305   9.444  19.675  0.00  0.00    +0.000 A 
ATOM     11  C   UNL     1       0.674  11.977  19.545  0.00  0.00    +0.000 C 
ATOM     12  C   UNL     1       0.241  13.056  20.561  0.00  0.00    +0.000 C 
ATOM     13  N   UNL     1      -0.881  12.648  21.448  0.00  0.00    +0.000 NA
ATOM     14  C   UNL     1      -0.431  11.505  22.299  0.00  0.00    +0.000 C 
ATOM     15  H   UNL     1       2.642   7.713  17.268  0.00  0.00    +0.000 HD
ENDROOT
BRANCH   4  16
ATOM     16  C   UNL     1       2.891   5.657  18.810  0.00  0.00    +0.000 A 
ATOM     17  C   UNL     1       4.146   5.282  19.315  0.00  0.00    +0.000 A 
ATOM     18  C   UNL     1       4.733   4.088  18.901  0.00  0.00    +0.000 A 
ATOM     19  C   UNL     1       4.066   3.263  17.998  0.00  0.00    +0.000 A 
ATOM     20  C   UNL     1       2.802   3.618  17.522  0.00  0.00    +0.000 A 
ATOM     21  C   UNL     1       2.209   4.813  17.931  0.00  0.00    +0.000 A 
ENDBRANCH   4  16
BRANCH  13  22
ATOM     22  C   UNL     1      -2.105  12.274  20.703  0.00  0.00    +0.000 C 
BRANCH  22  23
ATOM     23  C   UNL     1      -3.415  12.572  21.410  0.00  0.00    +0.000 A 
ATOM     24  C   UNL     1      -4.614  12.630  20.680  0.00  0.00    +0.000 A 
ATOM     25  C   UNL     1      -5.831  12.887  21.316  0.00  0.00    +0.000 A 
ATOM     26  C   UNL     1      -5.867  13.075  22.694  0.00  0.00    +0.000 A 
ATOM     27  C   UNL     1      -4.687  13.009  23.435  0.00  0.00    +0.000 A 
ATOM     28  C   UNL     1      -3.466  12.760  22.797  0.00  0.00    +0.000 A 
ENDBRANCH  22  23
ENDBRANCH  13  22
TORSDOF 3
ENDMDL
MODEL 5
REMARK VINA RESULT:      -7.4      2.684      4.805
REMARK  Name = 
REMARK  3 active torsions:
REMARK  status: ('A' for Active; 'I' for Inactive)
REMARK    1  A    between atoms: C_4  and  C_5
REMARK    2  A    between atoms: N_19  and  C_20
REMARK    3  A    between atoms: C_20  and  C_21
REMARK                            x       y       z     vdW  Elec       q    Type
REMARK                         _______ _______ _______ _____ _____    ______ ____
ROOT
ATOM      1  O   UNL     1       1.846  10.039  17.458  0.00  0.00    +0.000 OA
ATOM      2  C   UNL     1       1.845   9.211  18.366  0.00  0.00    +0.000 A 
ATOM      3  N   UNL     1       2.342   7.947  18.192  0.00  0.00    +0.000 N 
ATOM      4  C   UNL     1       2.342   6.975  19.179  0.00  0.00    +0.000 A 
ATOM      5  N   UNL     1       1.831   7.151  20.361  0.00  0.00    +0.000 NA
ATOM      6  C   UNL     1       1.328   8.397  20.580  0.00  0.00    +0.000 A 
ATOM      7  S   UNL     1       0.594   8.837  22.066  0.00  0.00    +0.000 S 
ATOM      8  C   UNL     1       0.288  10.419  21.514  0.00  0.00    +0.000 A 
ATOM      9  C   UNL     1       0.780  10.635  20.239  0.00  0.00    +0.000 A 
ATOM     10  C   UNL     1       1.323   9.445  19.685  0.00  0.00    +0.000 A 
ATOM     11  C   UNL     1       0.652  11.969  19.574  0.00  0.00    +0.000 C 
ATOM     12  C   UNL     1       0.210  13.035  20.600  0.00  0.00    +0.000 C 
ATOM     13  N   UNL     1      -0.896  12.605  21.494  0.00  0.00    +0.000 NA
ATOM     14  C   UNL     1      -0.421  11.465  22.335  0.00  0.00    +0.000 C 
ATOM     15  H   UNL     1       2.665   7.749  17.256  0.00  0.00    +0.000 HD
ENDROOT
BRANCH   4  16
ATOM     16  C   UNL     1       2.961   5.688  18.785  0.00  0.00    +0.000 A 
ATOM     17  C   UNL     1       2.286   4.815  17.917  0.00  0.00    +0.000 A 
ATOM     18  C   UNL     1       2.846   3.579  17.601  0.00  0.00    +0.000 A 
ATOM     19  C   UNL     1       4.082   3.220  18.136  0.00  0.00    +0.000 A 
ATOM     20  C   UNL     1       4.769   4.102  18.972  0.00  0.00    +0.000 A 
ATOM     21  C   UNL     1       4.214   5.341  19.294  0.00  0.00    +0.000 A 
ENDBRANCH   4  16
BRANCH  13  22
ATOM     22  C   UNL     1      -2.121  12.216  20.759  0.00  0.00    +0.000 C 
BRANCH  22  23
ATOM     23  C   UNL     1      -3.431  12.528  21.461  0.00  0.00    +0.000 A 
ATOM     24  C   UNL     1      -3.450  12.768  22.845  0.00  0.00    +0.000 A 
ATOM     25  C   UNL     1      -4.644  13.072  23.504  0.00  0.00    +0.000 A 
ATOM     26  C   UNL     1      -5.832  13.155  22.785  0.00  0.00    +0.000 A 
ATOM     27  C   UNL     1      -5.827  12.931  21.408  0.00  0.00    +0.000 A 
ATOM     28  C   UNL     1      -4.633  12.618  20.748  0.00  0.00    +0.000 A 
ENDBRANCH  22  23
ENDBRANCH  13  22
TORSDOF 3
ENDMDL
MODEL 6
REMARK VINA RESULT:      -7.4      2.391      4.537
REMARK  Name = 
REMARK  3 active torsions:
REMARK  status: ('A' for Active; 'I' for Inactive)
REMARK    1  A    between atoms: C_4  and  C_5
REMARK    2  A    between atoms: N_19  and  C_20
REMARK    3  A    between atoms: C_20  and  C_21
REMARK                            x       y       z     vdW  Elec       q    Type
REMARK                         _______ _______ _______ _____ _____    ______ ____
ROOT
ATOM      1  O   UNL     1       2.555   8.819  17.419  0.00  0.00    +0.000 OA
ATOM      2  C   UNL     1       2.219   8.271  18.467  0.00  0.00    +0.000 A 
ATOM      3  N   UNL     1       2.580   6.983  18.757  0.00  0.00    +0.000 N 
ATOM      4  C   UNL     1       2.207   6.319  19.915  0.00  0.00    +0.000 A 
ATOM      5  N   UNL     1       1.439   6.838  20.825  0.00  0.00    +0.000 NA
ATOM      6  C   UNL     1       1.058   8.122  20.580  0.00  0.00    +0.000 A 
ATOM      7  S   UNL     1       0.033   8.990  21.646  0.00  0.00    +0.000 S 
ATOM      8  C   UNL     1       0.079  10.375  20.655  0.00  0.00    +0.000 A 
ATOM      9  C   UNL     1       0.902  10.208  19.556  0.00  0.00    +0.000 A 
ATOM     10  C   UNL     1       1.413   8.885  19.488  0.00  0.00    +0.000 A 
ATOM     11  C   UNL     1       1.116  11.315  18.572  0.00  0.00    +0.000 C 
ATOM     12  C   UNL     1       0.567  12.643  19.137  0.00  0.00    +0.000 C 
ATOM     13  N   UNL     1      -0.776  12.533  19.766  0.00  0.00    +0.000 NA
ATOM     14  C   UNL     1      -0.677  11.642  20.961  0.00  0.00    +0.000 C 
ATOM     15  H   UNL     1       3.103   6.520  18.028  0.00  0.00    +0.000 HD
ENDROOT
BRANCH   4  16
ATOM     16  C   UNL     1       2.738   4.942  20.040  0.00  0.00    +0.000 A 
ATOM     17  C   UNL     1       2.212   4.064  21.000  0.00  0.00    +0.000 A 
ATOM     18  C   UNL     1       2.759   2.792  21.154  0.00  0.00    +0.000 A 
ATOM     19  C   UNL     1       3.818   2.390  20.343  0.00  0.00    +0.000 A 
ATOM     20  C   UNL     1       4.320   3.249  19.364  0.00  0.00    +0.000 A 
ATOM     21  C   UNL     1       3.778   4.525  19.205  0.00  0.00    +0.000 A 
ENDBRANCH   4  16
BRANCH  13  22
ATOM     22  C   UNL     1      -1.812  12.026  18.839  0.00  0.00    +0.000 C 
BRANCH  22  23
ATOM     23  C   UNL     1      -3.246  12.187  19.311  0.00  0.00    +0.000 A 
ATOM     24  C   UNL     1      -4.290  11.532  18.636  0.00  0.00    +0.000 A 
ATOM     25  C   UNL     1      -5.613  11.656  19.067  0.00  0.00    +0.000 A 
ATOM     26  C   UNL     1      -5.909  12.424  20.189  0.00  0.00    +0.000 A 
ATOM     27  C   UNL     1      -4.882  13.070  20.878  0.00  0.00    +0.000 A 
ATOM     28  C   UNL     1      -3.557  12.954  20.441  0.00  0.00    +0.000 A 
ENDBRANCH  22  23
ENDBRANCH  13  22
TORSDOF 3
ENDMDL
MODEL 7
REMARK VINA RESULT:      -7.4      3.045      5.339
REMARK  Name = 
REMARK  3 active torsions:
REMARK  status: ('A' for Active; 'I' for Inactive)
REMARK    1  A    between atoms: C_4  and  C_5
REMARK    2  A    between atoms: N_19  and  C_20
REMARK    3  A    between atoms: C_20  and  C_21
REMARK                            x       y       z     vdW  Elec       q    Type
REMARK                         _______ _______ _______ _____ _____    ______ ____
ROOT
ATOM      1  O   UNL     1       1.753  11.430  18.095  0.00  0.00    +0.000 OA
ATOM      2  C   UNL     1       1.693  10.369  18.714  0.00  0.00    +0.000 A 
ATOM      3  N   UNL     1       2.237   9.214  18.221  0.00  0.00    +0.000 N 
ATOM      4  C   UNL     1       2.174   7.992  18.872  0.00  0.00    +0.000 A 
ATOM      5  N   UNL     1       1.555   7.810  20.000  0.00  0.00    +0.000 NA
ATOM      6  C   UNL     1       1.001   8.935  20.530  0.00  0.00    +0.000 A 
ATOM      7  S   UNL     1       0.127   8.916  22.005  0.00  0.00    +0.000 S 
ATOM      8  C   UNL     1      -0.171  10.590  21.918  0.00  0.00    +0.000 A 
ATOM      9  C   UNL     1       0.428  11.175  20.816  0.00  0.00    +0.000 A 
ATOM     10  C   UNL     1       1.049  10.202  19.988  0.00  0.00    +0.000 A 
ATOM     11  C   UNL     1       0.324  12.646  20.567  0.00  0.00    +0.000 C 
ATOM     12  C   UNL     1      -0.235  13.360  21.816  0.00  0.00    +0.000 C 
ATOM     13  N   UNL     1      -1.405  12.685  22.436  0.00  0.00    +0.000 NA
ATOM     14  C   UNL     1      -0.977  11.346  22.943  0.00  0.00    +0.000 C 
ATOM     15  H   UNL     1       2.647   9.302  17.302  0.00  0.00    +0.000 HD
ENDROOT
BRANCH   4  16
ATOM     16  C   UNL     1       2.859   6.880  18.174  0.00  0.00    +0.000 A 
ATOM     17  C   UNL     1       2.356   5.572  18.261  0.00  0.00    +0.000 A 
ATOM     18  C   UNL     1       3.041   4.522  17.654  0.00  0.00    +0.000 A 
ATOM     19  C   UNL     1       4.216   4.775  16.950  0.00  0.00    +0.000 A 
ATOM     20  C   UNL     1       4.699   6.080  16.833  0.00  0.00    +0.000 A 
ATOM     21  C   UNL     1       4.019   7.137  17.440  0.00  0.00    +0.000 A 
ENDBRANCH   4  16
BRANCH  13  22
ATOM     22  C   UNL     1      -2.549  12.534  21.508  0.00  0.00    +0.000 C 
BRANCH  22  23
ATOM     23  C   UNL     1      -3.924  12.648  22.142  0.00  0.00    +0.000 A 
ATOM     24  C   UNL     1      -4.050  12.804  23.532  0.00  0.00    +0.000 A 
ATOM     25  C   UNL     1      -5.306  12.926  24.131  0.00  0.00    +0.000 A 
ATOM     26  C   UNL     1      -6.454  12.909  23.344  0.00  0.00    +0.000 A 
ATOM     27  C   UNL     1      -6.345  12.768  21.960  0.00  0.00    +0.000 A 
ATOM     28  C   UNL     1      -5.087  12.637  21.361  0.00  0.00    +0.000 A 
ENDBRANCH  22  23
ENDBRANCH  13  22
TORSDOF 3
ENDMDL
MODEL 8
REMARK VINA RESULT:      -7.4      2.495      4.617
REMARK  Name = 
REMARK  3 active torsions:
REMARK  status: ('A' for Active; 'I' for Inactive)
REMARK    1  A    between atoms: C_4  and  C_5
REMARK    2  A    between atoms: N_19  and  C_20
REMARK    3  A    between atoms: C_20  and  C_21
REMARK                            x       y       z     vdW  Elec       q    Type
REMARK                         _______ _______ _______ _____ _____    ______ ____
ROOT
ATOM      1  O   UNL     1       1.999   9.506  17.405  0.00  0.00    +0.000 OA
ATOM      2  C   UNL     1       1.892   8.868  18.450  0.00  0.00    +0.000 A 
ATOM      3  N   UNL     1       2.416   7.611  18.586  0.00  0.00    +0.000 N 
ATOM      4  C   UNL     1       2.301   6.848  19.737  0.00  0.00    +0.000 A 
ATOM      5  N   UNL     1       1.646   7.232  20.792  0.00  0.00    +0.000 NA
ATOM      6  C   UNL     1       1.110   8.480  20.702  0.00  0.00    +0.000 A 
ATOM      7  S   UNL     1       0.195   9.175  21.975  0.00  0.00    +0.000 S 
ATOM      8  C   UNL     1      -0.052  10.610  21.092  0.00  0.00    +0.000 A 
ATOM      9  C   UNL     1       0.593  10.593  19.868  0.00  0.00    +0.000 A 
ATOM     10  C   UNL     1       1.209   9.336  19.626  0.00  0.00    +0.000 A 
ATOM     11  C   UNL     1       0.538  11.769  18.945  0.00  0.00    +0.000 C 
ATOM     12  C   UNL     1      -0.035  12.998  19.684  0.00  0.00    +0.000 C 
ATOM     13  N   UNL     1      -1.241  12.714  20.505  0.00  0.00    +0.000 NA
ATOM     14  C   UNL     1      -0.864  11.772  21.603  0.00  0.00    +0.000 C 
ATOM     15  H   UNL     1       2.854   7.246  17.752  0.00  0.00    +0.000 HD
ENDROOT
BRANCH   4  16
ATOM     16  C   UNL     1       2.973   5.529  19.678  0.00  0.00    +0.000 A 
ATOM     17  C   UNL     1       2.379   4.405  20.272  0.00  0.00    +0.000 A 
ATOM     18  C   UNL     1       3.048   3.181  20.267  0.00  0.00    +0.000 A 
ATOM     19  C   UNL     1       4.296   3.076  19.658  0.00  0.00    +0.000 A 
ATOM     20  C   UNL     1       4.872   4.185  19.037  0.00  0.00    +0.000 A 
ATOM     21  C   UNL     1       4.209   5.414  19.039  0.00  0.00    +0.000 A 
ENDBRANCH   4  16
BRANCH  13  22
ATOM     22  C   UNL     1      -2.362  12.153  19.718  0.00  0.00    +0.000 C 
BRANCH  22  23
ATOM     23  C   UNL     1      -3.739  12.684  20.073  0.00  0.00    +0.000 A 
ATOM     24  C   UNL     1      -3.885  13.647  21.087  0.00  0.00    +0.000 A 
ATOM     25  C   UNL     1      -5.142  14.158  21.416  0.00  0.00    +0.000 A 
ATOM     26  C   UNL     1      -6.270  13.725  20.725  0.00  0.00    +0.000 A 
ATOM     27  C   UNL     1      -6.140  12.779  19.708  0.00  0.00    +0.000 A 
ATOM     28  C   UNL     1      -4.882  12.260  19.384  0.00  0.00    +0.000 A 
ENDBRANCH  22  23
ENDBRANCH  13  22
TORSDOF 3
ENDMDL
MODEL 9
REMARK VINA RESULT:      -7.3      0.838      1.052
REMARK  Name = 
REMARK  3 active torsions:
REMARK  status: ('A' for Active; 'I' for Inactive)
REMARK    1  A    between atoms: C_4  and  C_5
REMARK    2  A    between atoms: N_19  and  C_20
REMARK    3  A    between atoms: C_20  and  C_21
REMARK                            x       y       z     vdW  Elec       q    Type
REMARK                         _______ _______ _______ _____ _____    ______ ____
ROOT
ATOM      1  O   UNL     1       1.097   9.527  22.873  0.00  0.00    +0.000 OA
ATOM      2  C   UNL     1       1.193   9.107  21.722  0.00  0.00    +0.000 A 
ATOM      3  N   UNL     1       1.780   7.903  21.438  0.00  0.00    +0.000 N 
ATOM      4  C   UNL     1       1.929   7.401  20.155  0.00  0.00    +0.000 A 
ATOM      5  N   UNL     1       1.564   8.042  19.085  0.00  0.00    +0.000 NA
ATOM      6  C   UNL     1       0.971   9.245  19.320  0.00  0.00    +0.000 A 
ATOM      7  S   UNL     1       0.427  10.259  18.049  0.00  0.00    +0.000 S 
ATOM      8  C   UNL     1      -0.132  11.434  19.148  0.00  0.00    +0.000 A 
ATOM      9  C   UNL     1       0.039  11.046  20.465  0.00  0.00    +0.000 A 
ATOM     10  C   UNL     1       0.732   9.810  20.555  0.00  0.00    +0.000 A 
ATOM     11  C   UNL     1      -0.417  11.915  21.595  0.00  0.00    +0.000 C 
ATOM     12  C   UNL     1      -1.317  13.051  21.063  0.00  0.00    +0.000 C 
ATOM     13  N   UNL     1      -0.798  13.726  19.845  0.00  0.00    +0.000 NA
ATOM     14  C   UNL     1      -0.760  12.737  18.725  0.00  0.00    +0.000 C 
ATOM     15  H   UNL     1       2.156   7.420  22.241  0.00  0.00    +0.000 HD
ENDROOT
BRANCH   4  16
ATOM     16  C   UNL     1       2.562   6.064  20.081  0.00  0.00    +0.000 A 
ATOM     17  C   UNL     1       3.715   5.868  19.305  0.00  0.00    +0.000 A 
ATOM     18  C   UNL     1       4.268   4.594  19.190  0.00  0.00    +0.000 A 
ATOM     19  C   UNL     1       3.682   3.521  19.858  0.00  0.00    +0.000 A 
ATOM     20  C   UNL     1       2.555   3.720  20.658  0.00  0.00    +0.000 A 
ATOM     21  C   UNL     1       1.996   4.993  20.776  0.00  0.00    +0.000 A 
ENDBRANCH   4  16
BRANCH  13  22
ATOM     22  C   UNL     1       0.542  14.325  20.038  0.00  0.00    +0.000 C 
BRANCH  22  23
ATOM     23  C   UNL     1       0.855  15.522  19.158  0.00  0.00    +0.000 A 
ATOM     24  C   UNL     1       2.170  15.752  18.720  0.00  0.00    +0.000 A 
ATOM     25  C   UNL     1       2.473  16.840  17.897  0.00  0.00    +0.000 A 
ATOM     26  C   UNL     1       1.461  17.704  17.488  0.00  0.00    +0.000 A 
ATOM     27  C   UNL     1       0.148  17.482  17.905  0.00  0.00    +0.000 A 
ATOM     28  C   UNL     1      -0.154  16.397  18.736  0.00  0.00    +0.000 A 
ENDBRANCH  22  23
ENDBRANCH  13  22
TORSDOF 3
ENDMDL
