MODEL 1
REMARK VINA RESULT:      -6.2      0.000      0.000
REMARK  Name = 
REMARK  16 active torsions:
REMARK  status: ('A' for Active; 'I' for Inactive)
REMARK    1  A    between atoms: C_1  and  C_2
REMARK    2  A    between atoms: C_2  and  C_3
REMARK    3  A    between atoms: C_3  and  C_4
REMARK    4  A    between atoms: C_4  and  C_5
REMARK    5  A    between atoms: C_5  and  C_6
REMARK    6  A    between atoms: C_6  and  C_7
REMARK    7  A    between atoms: C_7  and  C_8
REMARK    8  A    between atoms: C_8  and  C_9
REMARK    9  A    between atoms: C_9  and  C_10
REMARK   10  A    between atoms: C_10  and  C_11
REMARK   11  A    between atoms: N_14  and  C_15
REMARK   12  A    between atoms: C_15  and  C_16
REMARK   13  A    between atoms: C_16  and  C_17
REMARK   14  A    between atoms: C_17  and  N_18
REMARK   15  A    between atoms: N_18  and  C_19
REMARK   16  A    between atoms: N_18  and  C_20
REMARK                            x       y       z     vdW  Elec       q    Type
REMARK                         _______ _______ _______ _____ _____    ______ ____
ROOT
ATOM      1  C   UNL     1       5.668   5.216  16.640  0.00  0.00    +0.000 C 
ATOM      2  C   UNL     1       4.827   6.367  16.061  0.00  0.00    +0.000 C 
ATOM      3  C   UNL     1       4.411   7.121  17.309  0.00  0.00    +0.000 C 
ATOM      4  N   UNL     1       4.031   6.080  18.281  0.00  0.00    +0.000 NA
ATOM      5  C   UNL     1       4.976   4.967  18.014  0.00  0.00    +0.000 C 
ENDROOT
BRANCH   1   6
ATOM      6  C   UNL     1       7.145   5.679  16.922  0.00  0.00    +0.000 C 
BRANCH   6   7
ATOM      7  C   UNL     1       7.541   5.736  18.409  0.00  0.00    +0.000 C 
BRANCH   7   8
ATOM      8  C   UNL     1       8.227   7.059  18.762  0.00  0.00    +0.000 C 
BRANCH   8  10
ATOM      9  C   UNL     1       8.393   9.499  18.121  0.00  0.00    +0.000 C 
ATOM     10  C   UNL     1       7.899   8.120  17.700  0.00  0.00    +0.000 C 
ENDBRANCH   8  10
ENDBRANCH   7   8
ENDBRANCH   6   7
ENDBRANCH   1   6
BRANCH   1  11
ATOM     11  C   UNL     1       5.676   3.935  15.731  0.00  0.00    +0.000 C 
BRANCH  11  12
ATOM     12  C   UNL     1       5.509   4.186  14.210  0.00  0.00    +0.000 C 
BRANCH  12  13
ATOM     13  C   UNL     1       6.819   3.993  13.444  0.00  0.00    +0.000 C 
BRANCH  13  14
ATOM     14  C   UNL     1       6.519   3.726  11.961  0.00  0.00    +0.000 C 
ATOM     15  C   UNL     1       5.606   2.523  11.782  0.00  0.00    +0.000 C 
ENDBRANCH  13  14
ENDBRANCH  12  13
ENDBRANCH  11  12
ENDBRANCH   1  11
BRANCH   4  16
ATOM     16  C   UNL     1       2.615   5.669  18.084  0.00  0.00    +0.000 C 
BRANCH  16  17
ATOM     17  C   UNL     1       2.430   4.138  18.080  0.00  0.00    +0.000 C 
BRANCH  17  18
ATOM     18  C   UNL     1       1.396   3.653  19.108  0.00  0.00    +0.000 C 
BRANCH  18  19
ATOM     19  N   UNL     1       1.994   2.855  20.202  0.00  0.00    +0.000 NA
ATOM     20  C   UNL     1       3.366   2.418  19.881  0.00  0.00    +0.000 C 
ATOM     21  C   UNL     1       2.015   3.661  21.433  0.00  0.00    +0.000 C 
ENDBRANCH  18  19
ENDBRANCH  17  18
ENDBRANCH  16  17
ENDBRANCH   4  16
TORSDOF 12
ENDMDL
MODEL 2
REMARK VINA RESULT:      -6.2      1.224      1.879
REMARK  Name = 
REMARK  16 active torsions:
REMARK  status: ('A' for Active; 'I' for Inactive)
REMARK    1  A    between atoms: C_1  and  C_2
REMARK    2  A    between atoms: C_2  and  C_3
REMARK    3  A    between atoms: C_3  and  C_4
REMARK    4  A    between atoms: C_4  and  C_5
REMARK    5  A    between atoms: C_5  and  C_6
REMARK    6  A    between atoms: C_6  and  C_7
REMARK    7  A    between atoms: C_7  and  C_8
REMARK    8  A    between atoms: C_8  and  C_9
REMARK    9  A    between atoms: C_9  and  C_10
REMARK   10  A    between atoms: C_10  and  C_11
REMARK   11  A    between atoms: N_14  and  C_15
REMARK   12  A    between atoms: C_15  and  C_16
REMARK   13  A    between atoms: C_16  and  C_17
REMARK   14  A    between atoms: C_17  and  N_18
REMARK   15  A    between atoms: N_18  and  C_19
REMARK   16  A    between atoms: N_18  and  C_20
REMARK                            x       y       z     vdW  Elec       q    Type
REMARK                         _______ _______ _______ _____ _____    ______ ____
ROOT
ATOM      1  C   UNL     1       5.504   5.870  17.032  0.00  0.00    +0.000 C 
ATOM      2  C   UNL     1       4.164   5.981  17.782  0.00  0.00    +0.000 C 
ATOM      3  C   UNL     1       4.518   5.441  19.154  0.00  0.00    +0.000 C 
ATOM      4  N   UNL     1       5.353   4.253  18.899  0.00  0.00    +0.000 NA
ATOM      5  C   UNL     1       6.144   4.613  17.696  0.00  0.00    +0.000 C 
ENDROOT
BRANCH   1   6
ATOM      6  C   UNL     1       6.430   7.103  17.342  0.00  0.00    +0.000 C 
BRANCH   6   7
ATOM      7  C   UNL     1       7.807   6.754  17.936  0.00  0.00    +0.000 C 
BRANCH   7   8
ATOM      8  C   UNL     1       8.437   7.955  18.648  0.00  0.00    +0.000 C 
BRANCH   8  10
ATOM      9  C   UNL     1       9.004  10.401  18.347  0.00  0.00    +0.000 C 
ATOM     10  C   UNL     1       8.130   9.245  17.872  0.00  0.00    +0.000 C 
ENDBRANCH   8  10
ENDBRANCH   7   8
ENDBRANCH   6   7
ENDBRANCH   1   6
BRANCH   1  11
ATOM     11  C   UNL     1       5.334   5.708  15.479  0.00  0.00    +0.000 C 
BRANCH  11  12
ATOM     12  C   UNL     1       6.514   5.031  14.738  0.00  0.00    +0.000 C 
BRANCH  12  13
ATOM     13  C   UNL     1       6.121   3.679  14.138  0.00  0.00    +0.000 C 
BRANCH  13  14
ATOM     14  C   UNL     1       6.335   3.703  12.617  0.00  0.00    +0.000 C 
ATOM     15  C   UNL     1       5.146   3.113  11.875  0.00  0.00    +0.000 C 
ENDBRANCH  13  14
ENDBRANCH  12  13
ENDBRANCH  11  12
ENDBRANCH   1  11
BRANCH   4  16
ATOM     16  C   UNL     1       4.504   3.053  18.670  0.00  0.00    +0.000 C 
BRANCH  16  17
ATOM     17  C   UNL     1       3.538   2.771  19.838  0.00  0.00    +0.000 C 
BRANCH  17  18
ATOM     18  C   UNL     1       2.194   2.184  19.379  0.00  0.00    +0.000 C 
BRANCH  18  19
ATOM     19  N   UNL     1       1.109   3.189  19.324  0.00  0.00    +0.000 NA
ATOM     20  C   UNL     1       1.196   4.156  20.436  0.00  0.00    +0.000 C 
ATOM     21  C   UNL     1       1.182   3.911  18.044  0.00  0.00    +0.000 C 
ENDBRANCH  18  19
ENDBRANCH  17  18
ENDBRANCH  16  17
ENDBRANCH   4  16
TORSDOF 12
ENDMDL
MODEL 3
REMARK VINA RESULT:      -6.1      1.185      1.577
REMARK  Name = 
REMARK  16 active torsions:
REMARK  status: ('A' for Active; 'I' for Inactive)
REMARK    1  A    between atoms: C_1  and  C_2
REMARK    2  A    between atoms: C_2  and  C_3
REMARK    3  A    between atoms: C_3  and  C_4
REMARK    4  A    between atoms: C_4  and  C_5
REMARK    5  A    between atoms: C_5  and  C_6
REMARK    6  A    between atoms: C_6  and  C_7
REMARK    7  A    between atoms: C_7  and  C_8
REMARK    8  A    between atoms: C_8  and  C_9
REMARK    9  A    between atoms: C_9  and  C_10
REMARK   10  A    between atoms: C_10  and  C_11
REMARK   11  A    between atoms: N_14  and  C_15
REMARK   12  A    between atoms: C_15  and  C_16
REMARK   13  A    between atoms: C_16  and  C_17
REMARK   14  A    between atoms: C_17  and  N_18
REMARK   15  A    between atoms: N_18  and  C_19
REMARK   16  A    between atoms: N_18  and  C_20
REMARK                            x       y       z     vdW  Elec       q    Type
REMARK                         _______ _______ _______ _____ _____    ______ ____
ROOT
ATOM      1  C   UNL     1       5.494   5.362  16.518  0.00  0.00    +0.000 C 
ATOM      2  C   UNL     1       4.291   6.164  17.046  0.00  0.00    +0.000 C 
ATOM      3  C   UNL     1       3.937   5.414  18.315  0.00  0.00    +0.000 C 
ATOM      4  N   UNL     1       4.029   3.986  17.959  0.00  0.00    +0.000 NA
ATOM      5  C   UNL     1       5.162   3.919  17.003  0.00  0.00    +0.000 C 
ENDROOT
BRANCH   1   6
ATOM      6  C   UNL     1       6.827   5.812  17.224  0.00  0.00    +0.000 C 
BRANCH   6   7
ATOM      7  C   UNL     1       7.207   7.290  17.023  0.00  0.00    +0.000 C 
BRANCH   7   8
ATOM      8  C   UNL     1       8.090   7.807  18.164  0.00  0.00    +0.000 C 
BRANCH   8  10
ATOM      9  C   UNL     1       9.176   9.870  19.140  0.00  0.00    +0.000 C 
ATOM     10  C   UNL     1       8.284   9.325  18.032  0.00  0.00    +0.000 C 
ENDBRANCH   8  10
ENDBRANCH   7   8
ENDBRANCH   6   7
ENDBRANCH   1   6
BRANCH   1  11
ATOM     11  C   UNL     1       5.662   5.450  14.959  0.00  0.00    +0.000 C 
BRANCH  11  12
ATOM     12  C   UNL     1       6.868   4.677  14.366  0.00  0.00    +0.000 C 
BRANCH  12  13
ATOM     13  C   UNL     1       6.637   4.277  12.907  0.00  0.00    +0.000 C 
BRANCH  13  14
ATOM     14  C   UNL     1       5.532   3.212  12.829  0.00  0.00    +0.000 C 
ATOM     15  C   UNL     1       4.620   3.438  11.632  0.00  0.00    +0.000 C 
ENDBRANCH  13  14
ENDBRANCH  12  13
ENDBRANCH  11  12
ENDBRANCH   1  11
BRANCH   4  16
ATOM     16  C   UNL     1       2.756   3.513  17.351  0.00  0.00    +0.000 C 
BRANCH  16  17
ATOM     17  C   UNL     1       2.117   2.346  18.130  0.00  0.00    +0.000 C 
BRANCH  17  18
ATOM     18  C   UNL     1       1.109   2.812  19.192  0.00  0.00    +0.000 C 
BRANCH  18  19
ATOM     19  N   UNL     1       1.754   3.412  20.382  0.00  0.00    +0.000 NA
ATOM     20  C   UNL     1       1.284   4.789  20.629  0.00  0.00    +0.000 C 
ATOM     21  C   UNL     1       1.462   2.580  21.561  0.00  0.00    +0.000 C 
ENDBRANCH  18  19
ENDBRANCH  17  18
ENDBRANCH  16  17
ENDBRANCH   4  16
TORSDOF 12
ENDMDL
MODEL 4
REMARK VINA RESULT:      -6.0      2.347      6.133
REMARK  Name = 
REMARK  16 active torsions:
REMARK  status: ('A' for Active; 'I' for Inactive)
REMARK    1  A    between atoms: C_1  and  C_2
REMARK    2  A    between atoms: C_2  and  C_3
REMARK    3  A    between atoms: C_3  and  C_4
REMARK    4  A    between atoms: C_4  and  C_5
REMARK    5  A    between atoms: C_5  and  C_6
REMARK    6  A    between atoms: C_6  and  C_7
REMARK    7  A    between atoms: C_7  and  C_8
REMARK    8  A    between atoms: C_8  and  C_9
REMARK    9  A    between atoms: C_9  and  C_10
REMARK   10  A    between atoms: C_10  and  C_11
REMARK   11  A    between atoms: N_14  and  C_15
REMARK   12  A    between atoms: C_15  and  C_16
REMARK   13  A    between atoms: C_16  and  C_17
REMARK   14  A    between atoms: C_17  and  N_18
REMARK   15  A    between atoms: N_18  and  C_19
REMARK   16  A    between atoms: N_18  and  C_20
REMARK                            x       y       z     vdW  Elec       q    Type
REMARK                         _______ _______ _______ _____ _____    ______ ____
ROOT
ATOM      1  C   UNL     1       5.240   5.077  17.716  0.00  0.00    +0.000 C 
ATOM      2  C   UNL     1       6.762   4.882  17.829  0.00  0.00    +0.000 C 
ATOM      3  C   UNL     1       7.290   5.887  16.825  0.00  0.00    +0.000 C 
ATOM      4  N   UNL     1       6.414   5.756  15.647  0.00  0.00    +0.000 NA
ATOM      5  C   UNL     1       5.073   5.474  16.218  0.00  0.00    +0.000 C 
ENDROOT
BRANCH   1   6
ATOM      6  C   UNL     1       4.758   6.292  18.592  0.00  0.00    +0.000 C 
BRANCH   6   7
ATOM      7  C   UNL     1       3.632   5.972  19.592  0.00  0.00    +0.000 C 
BRANCH   7   8
ATOM      8  C   UNL     1       2.445   6.927  19.432  0.00  0.00    +0.000 C 
BRANCH   8  10
ATOM      9  C   UNL     1       2.000   8.967  18.007  0.00  0.00    +0.000 C 
ATOM     10  C   UNL     1       2.423   7.503  18.008  0.00  0.00    +0.000 C 
ENDBRANCH   8  10
ENDBRANCH   7   8
ENDBRANCH   6   7
ENDBRANCH   1   6
BRANCH   1  11
ATOM     11  C   UNL     1       4.420   3.791  18.092  0.00  0.00    +0.000 C 
BRANCH  11  12
ATOM     12  C   UNL     1       3.330   3.365  17.076  0.00  0.00    +0.000 C 
BRANCH  12  13
ATOM     13  C   UNL     1       1.933   3.825  17.499  0.00  0.00    +0.000 C 
BRANCH  13  14
ATOM     14  C   UNL     1       1.278   2.751  18.381  0.00  0.00    +0.000 C 
ATOM     15  C   UNL     1       1.168   3.206  19.829  0.00  0.00    +0.000 C 
ENDBRANCH  13  14
ENDBRANCH  12  13
ENDBRANCH  11  12
ENDBRANCH   1  11
BRANCH   4  16
ATOM     16  C   UNL     1       6.885   4.657  14.762  0.00  0.00    +0.000 C 
BRANCH  16  17
ATOM     17  C   UNL     1       5.743   4.004  13.957  0.00  0.00    +0.000 C 
BRANCH  17  18
ATOM     18  C   UNL     1       6.179   3.547  12.556  0.00  0.00    +0.000 C 
BRANCH  18  19
ATOM     19  N   UNL     1       5.303   2.498  11.987  0.00  0.00    +0.000 NA
ATOM     20  C   UNL     1       4.248   3.067  11.126  0.00  0.00    +0.000 C 
ATOM     21  C   UNL     1       6.120   1.560  11.201  0.00  0.00    +0.000 C 
ENDBRANCH  18  19
ENDBRANCH  17  18
ENDBRANCH  16  17
ENDBRANCH   4  16
TORSDOF 12
ENDMDL
MODEL 5
REMARK VINA RESULT:      -6.0      0.928      1.273
REMARK  Name = 
REMARK  16 active torsions:
REMARK  status: ('A' for Active; 'I' for Inactive)
REMARK    1  A    between atoms: C_1  and  C_2
REMARK    2  A    between atoms: C_2  and  C_3
REMARK    3  A    between atoms: C_3  and  C_4
REMARK    4  A    between atoms: C_4  and  C_5
REMARK    5  A    between atoms: C_5  and  C_6
REMARK    6  A    between atoms: C_6  and  C_7
REMARK    7  A    between atoms: C_7  and  C_8
REMARK    8  A    between atoms: C_8  and  C_9
REMARK    9  A    between atoms: C_9  and  C_10
REMARK   10  A    between atoms: C_10  and  C_11
REMARK   11  A    between atoms: N_14  and  C_15
REMARK   12  A    between atoms: C_15  and  C_16
REMARK   13  A    between atoms: C_16  and  C_17
REMARK   14  A    between atoms: C_17  and  N_18
REMARK   15  A    between atoms: N_18  and  C_19
REMARK   16  A    between atoms: N_18  and  C_20
REMARK                            x       y       z     vdW  Elec       q    Type
REMARK                         _______ _______ _______ _____ _____    ______ ____
ROOT
ATOM      1  C   UNL     1       6.210   5.694  17.049  0.00  0.00    +0.000 C 
ATOM      2  C   UNL     1       5.119   6.638  16.512  0.00  0.00    +0.000 C 
ATOM      3  C   UNL     1       4.161   6.720  17.684  0.00  0.00    +0.000 C 
ATOM      4  N   UNL     1       4.042   5.338  18.185  0.00  0.00    +0.000 NA
ATOM      5  C   UNL     1       5.397   4.763  17.998  0.00  0.00    +0.000 C 
ENDROOT
BRANCH   1   6
ATOM      6  C   UNL     1       7.257   6.478  17.923  0.00  0.00    +0.000 C 
BRANCH   6   7
ATOM      7  C   UNL     1       7.609   7.888  17.414  0.00  0.00    +0.000 C 
BRANCH   7   8
ATOM      8  C   UNL     1       8.469   8.655  18.423  0.00  0.00    +0.000 C 
BRANCH   8  10
ATOM      9  C   UNL     1       9.732  10.845  18.377  0.00  0.00    +0.000 C 
ATOM     10  C   UNL     1       8.388  10.163  18.143  0.00  0.00    +0.000 C 
ENDBRANCH   8  10
ENDBRANCH   7   8
ENDBRANCH   6   7
ENDBRANCH   1   6
BRANCH   1  11
ATOM     11  C   UNL     1       6.952   4.897  15.916  0.00  0.00    +0.000 C 
BRANCH  11  12
ATOM     12  C   UNL     1       6.108   3.824  15.182  0.00  0.00    +0.000 C 
BRANCH  12  13
ATOM     13  C   UNL     1       6.378   3.808  13.676  0.00  0.00    +0.000 C 
BRANCH  13  14
ATOM     14  C   UNL     1       5.046   3.798  12.909  0.00  0.00    +0.000 C 
ATOM     15  C   UNL     1       5.143   2.982  11.629  0.00  0.00    +0.000 C 
ENDBRANCH  13  14
ENDBRANCH  12  13
ENDBRANCH  11  12
ENDBRANCH   1  11
BRANCH   4  16
ATOM     16  C   UNL     1       3.008   4.590  17.421  0.00  0.00    +0.000 C 
BRANCH  16  17
ATOM     17  C   UNL     1       2.914   3.107  17.833  0.00  0.00    +0.000 C 
BRANCH  17  18
ATOM     18  C   UNL     1       1.728   2.814  18.763  0.00  0.00    +0.000 C 
BRANCH  18  19
ATOM     19  N   UNL     1       2.142   2.325  20.098  0.00  0.00    +0.000 NA
ATOM     20  C   UNL     1       3.566   2.597  20.368  0.00  0.00    +0.000 C 
ATOM     21  C   UNL     1       1.318   2.977  21.128  0.00  0.00    +0.000 C 
ENDBRANCH  18  19
ENDBRANCH  17  18
ENDBRANCH  16  17
ENDBRANCH   4  16
TORSDOF 12
ENDMDL
MODEL 6
REMARK VINA RESULT:      -6.0      0.908      1.223
REMARK  Name = 
REMARK  16 active torsions:
REMARK  status: ('A' for Active; 'I' for Inactive)
REMARK    1  A    between atoms: C_1  and  C_2
REMARK    2  A    between atoms: C_2  and  C_3
REMARK    3  A    between atoms: C_3  and  C_4
REMARK    4  A    between atoms: C_4  and  C_5
REMARK    5  A    between atoms: C_5  and  C_6
REMARK    6  A    between atoms: C_6  and  C_7
REMARK    7  A    between atoms: C_7  and  C_8
REMARK    8  A    between atoms: C_8  and  C_9
REMARK    9  A    between atoms: C_9  and  C_10
REMARK   10  A    between atoms: C_10  and  C_11
REMARK   11  A    between atoms: N_14  and  C_15
REMARK   12  A    between atoms: C_15  and  C_16
REMARK   13  A    between atoms: C_16  and  C_17
REMARK   14  A    between atoms: C_17  and  N_18
REMARK   15  A    between atoms: N_18  and  C_19
REMARK   16  A    between atoms: N_18  and  C_20
REMARK                            x       y       z     vdW  Elec       q    Type
REMARK                         _______ _______ _______ _____ _____    ______ ____
ROOT
ATOM      1  C   UNL     1       5.544   5.404  17.318  0.00  0.00    +0.000 C 
ATOM      2  C   UNL     1       4.694   6.541  16.722  0.00  0.00    +0.000 C 
ATOM      3  C   UNL     1       3.829   6.946  17.899  0.00  0.00    +0.000 C 
ATOM      4  N   UNL     1       3.398   5.679  18.517  0.00  0.00    +0.000 NA
ATOM      5  C   UNL     1       4.566   4.777  18.357  0.00  0.00    +0.000 C 
ENDROOT
BRANCH   1   6
ATOM      6  C   UNL     1       6.781   5.975  18.105  0.00  0.00    +0.000 C 
BRANCH   6   7
ATOM      7  C   UNL     1       7.484   7.172  17.439  0.00  0.00    +0.000 C 
BRANCH   7   8
ATOM      8  C   UNL     1       8.360   7.939  18.435  0.00  0.00    +0.000 C 
BRANCH   8  10
ATOM      9  C   UNL     1       9.190  10.236  19.086  0.00  0.00    +0.000 C 
ATOM     10  C   UNL     1       8.366   9.435  18.086  0.00  0.00    +0.000 C 
ENDBRANCH   8  10
ENDBRANCH   7   8
ENDBRANCH   6   7
ENDBRANCH   1   6
BRANCH   1  11
ATOM     11  C   UNL     1       6.029   4.364  16.245  0.00  0.00    +0.000 C 
BRANCH  11  12
ATOM     12  C   UNL     1       6.142   4.895  14.794  0.00  0.00    +0.000 C 
BRANCH  12  13
ATOM     13  C   UNL     1       5.548   3.922  13.774  0.00  0.00    +0.000 C 
BRANCH  13  14
ATOM     14  C   UNL     1       6.515   3.755  12.591  0.00  0.00    +0.000 C 
ATOM     15  C   UNL     1       7.514   4.900  12.519  0.00  0.00    +0.000 C 
ENDBRANCH  13  14
ENDBRANCH  12  13
ENDBRANCH  11  12
ENDBRANCH   1  11
BRANCH   4  16
ATOM     16  C   UNL     1       2.186   5.148  17.837  0.00  0.00    +0.000 C 
BRANCH  16  17
ATOM     17  C   UNL     1       2.232   3.620  17.636  0.00  0.00    +0.000 C 
BRANCH  17  18
ATOM     18  C   UNL     1       1.185   2.871  18.474  0.00  0.00    +0.000 C 
BRANCH  18  19
ATOM     19  N   UNL     1       1.782   2.050  19.553  0.00  0.00    +0.000 NA
ATOM     20  C   UNL     1       3.226   1.832  19.345  0.00  0.00    +0.000 C 
ATOM     21  C   UNL     1       1.572   2.724  20.844  0.00  0.00    +0.000 C 
ENDBRANCH  18  19
ENDBRANCH  17  18
ENDBRANCH  16  17
ENDBRANCH   4  16
TORSDOF 12
ENDMDL
MODEL 7
REMARK VINA RESULT:      -6.0      1.218      4.959
REMARK  Name = 
REMARK  16 active torsions:
REMARK  status: ('A' for Active; 'I' for Inactive)
REMARK    1  A    between atoms: C_1  and  C_2
REMARK    2  A    between atoms: C_2  and  C_3
REMARK    3  A    between atoms: C_3  and  C_4
REMARK    4  A    between atoms: C_4  and  C_5
REMARK    5  A    between atoms: C_5  and  C_6
REMARK    6  A    between atoms: C_6  and  C_7
REMARK    7  A    between atoms: C_7  and  C_8
REMARK    8  A    between atoms: C_8  and  C_9
REMARK    9  A    between atoms: C_9  and  C_10
REMARK   10  A    between atoms: C_10  and  C_11
REMARK   11  A    between atoms: N_14  and  C_15
REMARK   12  A    between atoms: C_15  and  C_16
REMARK   13  A    between atoms: C_16  and  C_17
REMARK   14  A    between atoms: C_17  and  N_18
REMARK   15  A    between atoms: N_18  and  C_19
REMARK   16  A    between atoms: N_18  and  C_20
REMARK                            x       y       z     vdW  Elec       q    Type
REMARK                         _______ _______ _______ _____ _____    ______ ____
ROOT
ATOM      1  C   UNL     1       6.336   5.577  17.337  0.00  0.00    +0.000 C 
ATOM      2  C   UNL     1       6.581   5.170  18.801  0.00  0.00    +0.000 C 
ATOM      3  C   UNL     1       5.485   4.152  19.039  0.00  0.00    +0.000 C 
ATOM      4  N   UNL     1       4.279   4.727  18.416  0.00  0.00    +0.000 NA
ATOM      5  C   UNL     1       4.790   5.432  17.214  0.00  0.00    +0.000 C 
ENDROOT
BRANCH   1   6
ATOM      6  C   UNL     1       6.997   4.549  16.346  0.00  0.00    +0.000 C 
BRANCH   6   7
ATOM      7  C   UNL     1       6.906   4.926  14.856  0.00  0.00    +0.000 C 
BRANCH   7   8
ATOM      8  C   UNL     1       5.755   4.197  14.157  0.00  0.00    +0.000 C 
BRANCH   8  10
ATOM      9  C   UNL     1       7.231   4.456  12.121  0.00  0.00    +0.000 C 
ATOM     10  C   UNL     1       6.257   3.546  12.859  0.00  0.00    +0.000 C 
ENDBRANCH   8  10
ENDBRANCH   7   8
ENDBRANCH   6   7
ENDBRANCH   1   6
BRANCH   1  11
ATOM     11  C   UNL     1       6.832   7.031  17.006  0.00  0.00    +0.000 C 
BRANCH  11  12
ATOM     12  C   UNL     1       7.932   7.597  17.940  0.00  0.00    +0.000 C 
BRANCH  12  13
ATOM     13  C   UNL     1       8.088   9.113  17.794  0.00  0.00    +0.000 C 
BRANCH  13  14
ATOM     14  C   UNL     1       8.989   9.652  18.917  0.00  0.00    +0.000 C 
ATOM     15  C   UNL     1       9.413  11.088  18.653  0.00  0.00    +0.000 C 
ENDBRANCH  13  14
ENDBRANCH  12  13
ENDBRANCH  11  12
ENDBRANCH   1  11
BRANCH   4  16
ATOM     16  C   UNL     1       3.592   5.653  19.356  0.00  0.00    +0.000 C 
BRANCH  16  17
ATOM     17  C   UNL     1       2.071   5.410  19.433  0.00  0.00    +0.000 C 
BRANCH  17  18
ATOM     18  C   UNL     1       1.607   4.221  18.578  0.00  0.00    +0.000 C 
BRANCH  18  19
ATOM     19  N   UNL     1       1.194   3.051  19.385  0.00  0.00    +0.000 NA
ATOM     20  C   UNL     1       2.121   1.914  19.225  0.00  0.00    +0.000 C 
ATOM     21  C   UNL     1       1.138   3.437  20.804  0.00  0.00    +0.000 C 
ENDBRANCH  18  19
ENDBRANCH  17  18
ENDBRANCH  16  17
ENDBRANCH   4  16
TORSDOF 12
ENDMDL
MODEL 8
REMARK VINA RESULT:      -5.9      2.380      6.399
REMARK  Name = 
REMARK  16 active torsions:
REMARK  status: ('A' for Active; 'I' for Inactive)
REMARK    1  A    between atoms: C_1  and  C_2
REMARK    2  A    between atoms: C_2  and  C_3
REMARK    3  A    between atoms: C_3  and  C_4
REMARK    4  A    between atoms: C_4  and  C_5
REMARK    5  A    between atoms: C_5  and  C_6
REMARK    6  A    between atoms: C_6  and  C_7
REMARK    7  A    between atoms: C_7  and  C_8
REMARK    8  A    between atoms: C_8  and  C_9
REMARK    9  A    between atoms: C_9  and  C_10
REMARK   10  A    between atoms: C_10  and  C_11
REMARK   11  A    between atoms: N_14  and  C_15
REMARK   12  A    between atoms: C_15  and  C_16
REMARK   13  A    between atoms: C_16  and  C_17
REMARK   14  A    between atoms: C_17  and  N_18
REMARK   15  A    between atoms: N_18  and  C_19
REMARK   16  A    between atoms: N_18  and  C_20
REMARK                            x       y       z     vdW  Elec       q    Type
REMARK                         _______ _______ _______ _____ _____    ______ ____
ROOT
ATOM      1  C   UNL     1       4.157   5.162  17.700  0.00  0.00    +0.000 C 
ATOM      2  C   UNL     1       5.317   4.478  18.444  0.00  0.00    +0.000 C 
ATOM      3  C   UNL     1       6.453   5.461  18.240  0.00  0.00    +0.000 C 
ATOM      4  N   UNL     1       6.360   5.874  16.827  0.00  0.00    +0.000 NA
ATOM      5  C   UNL     1       4.901   5.909  16.553  0.00  0.00    +0.000 C 
ENDROOT
BRANCH   1   6
ATOM      6  C   UNL     1       3.461   6.243  18.607  0.00  0.00    +0.000 C 
BRANCH   6   7
ATOM      7  C   UNL     1       3.169   7.588  17.915  0.00  0.00    +0.000 C 
BRANCH   7   8
ATOM      8  C   UNL     1       1.997   8.320  18.575  0.00  0.00    +0.000 C 
BRANCH   8  10
ATOM      9  C   UNL     1       0.790  10.540  18.653  0.00  0.00    +0.000 C 
ATOM     10  C   UNL     1       1.738   9.652  17.855  0.00  0.00    +0.000 C 
ENDBRANCH   8  10
ENDBRANCH   7   8
ENDBRANCH   6   7
ENDBRANCH   1   6
BRANCH   1  11
ATOM     11  C   UNL     1       3.084   4.149  17.160  0.00  0.00    +0.000 C 
BRANCH  11  12
ATOM     12  C   UNL     1       1.722   4.151  17.900  0.00  0.00    +0.000 C 
BRANCH  12  13
ATOM     13  C   UNL     1       1.412   2.798  18.543  0.00  0.00    +0.000 C 
BRANCH  13  14
ATOM     14  C   UNL     1       0.763   3.013  19.919  0.00  0.00    +0.000 C 
ATOM     15  C   UNL     1       1.216   4.320  20.553  0.00  0.00    +0.000 C 
ENDBRANCH  13  14
ENDBRANCH  12  13
ENDBRANCH  11  12
ENDBRANCH   1  11
BRANCH   4  16
ATOM     16  C   UNL     1       7.069   4.905  15.950  0.00  0.00    +0.000 C 
BRANCH  16  17
ATOM     17  C   UNL     1       6.543   4.913  14.500  0.00  0.00    +0.000 C 
BRANCH  17  18
ATOM     18  C   UNL     1       6.015   3.545  14.044  0.00  0.00    +0.000 C 
BRANCH  18  19
ATOM     19  N   UNL     1       6.144   3.328  12.585  0.00  0.00    +0.000 NA
ATOM     20  C   UNL     1       4.844   3.437  11.894  0.00  0.00    +0.000 C 
ATOM     21  C   UNL     1       7.075   4.323  12.029  0.00  0.00    +0.000 C 
ENDBRANCH  18  19
ENDBRANCH  17  18
ENDBRANCH  16  17
ENDBRANCH   4  16
TORSDOF 12
ENDMDL
MODEL 9
REMARK VINA RESULT:      -5.8      2.029      6.088
REMARK  Name = 
REMARK  16 active torsions:
REMARK  status: ('A' for Active; 'I' for Inactive)
REMARK    1  A    between atoms: C_1  and  C_2
REMARK    2  A    between atoms: C_2  and  C_3
REMARK    3  A    between atoms: C_3  and  C_4
REMARK    4  A    between atoms: C_4  and  C_5
REMARK    5  A    between atoms: C_5  and  C_6
REMARK    6  A    between atoms: C_6  and  C_7
REMARK    7  A    between atoms: C_7  and  C_8
REMARK    8  A    between atoms: C_8  and  C_9
REMARK    9  A    between atoms: C_9  and  C_10
REMARK   10  A    between atoms: C_10  and  C_11
REMARK   11  A    between atoms: N_14  and  C_15
REMARK   12  A    between atoms: C_15  and  C_16
REMARK   13  A    between atoms: C_16  and  C_17
REMARK   14  A    between atoms: C_17  and  N_18
REMARK   15  A    between atoms: N_18  and  C_19
REMARK   16  A    between atoms: N_18  and  C_20
REMARK                            x       y       z     vdW  Elec       q    Type
REMARK                         _______ _______ _______ _____ _____    ______ ____
ROOT
ATOM      1  C   UNL     1       5.578   4.900  16.335  0.00  0.00    +0.000 C 
ATOM      2  C   UNL     1       6.978   4.488  16.825  0.00  0.00    +0.000 C 
ATOM      3  C   UNL     1       7.106   5.267  18.119  0.00  0.00    +0.000 C 
ATOM      4  N   UNL     1       6.576   6.610  17.818  0.00  0.00    +0.000 NA
ATOM      5  C   UNL     1       5.461   6.358  16.871  0.00  0.00    +0.000 C 
ENDROOT
BRANCH   1   6
ATOM      6  C   UNL     1       4.459   4.040  17.031  0.00  0.00    +0.000 C 
BRANCH   6   7
ATOM      7  C   UNL     1       3.275   4.844  17.600  0.00  0.00    +0.000 C 
BRANCH   7   8
ATOM      8  C   UNL     1       1.968   4.049  17.532  0.00  0.00    +0.000 C 
BRANCH   8  10
ATOM      9  C   UNL     1       1.806   4.713  19.966  0.00  0.00    +0.000 C 
ATOM     10  C   UNL     1       1.544   3.614  18.943  0.00  0.00    +0.000 C 
ENDBRANCH   8  10
ENDBRANCH   7   8
ENDBRANCH   6   7
ENDBRANCH   1   6
BRANCH   1  11
ATOM     11  C   UNL     1       5.419   4.818  14.774  0.00  0.00    +0.000 C 
BRANCH  11  12
ATOM     12  C   UNL     1       6.398   3.863  14.045  0.00  0.00    +0.000 C 
BRANCH  12  13
ATOM     13  C   UNL     1       6.148   3.820  12.536  0.00  0.00    +0.000 C 
BRANCH  13  14
ATOM     14  C   UNL     1       4.902   2.972  12.240  0.00  0.00    +0.000 C 
ATOM     15  C   UNL     1       4.176   3.459  10.995  0.00  0.00    +0.000 C 
ENDBRANCH  13  14
ENDBRANCH  12  13
ENDBRANCH  11  12
ENDBRANCH   1  11
BRANCH   4  16
ATOM     16  C   UNL     1       7.633   7.470  17.221  0.00  0.00    +0.000 C 
BRANCH  16  17
ATOM     17  C   UNL     1       8.325   8.376  18.259  0.00  0.00    +0.000 C 
BRANCH  17  18
ATOM     18  C   UNL     1       8.241   9.869  17.905  0.00  0.00    +0.000 C 
BRANCH  18  19
ATOM     19  N   UNL     1       9.393  10.652  18.408  0.00  0.00    +0.000 NA
ATOM     20  C   UNL     1       9.370  12.043  17.918  0.00  0.00    +0.000 C 
ATOM     21  C   UNL     1       9.370  10.654  19.879  0.00  0.00    +0.000 C 
ENDBRANCH  18  19
ENDBRANCH  17  18
ENDBRANCH  16  17
ENDBRANCH   4  16
TORSDOF 12
ENDMDL
