MODEL 1
REMARK VINA RESULT:      -8.6      0.000      0.000
REMARK  Name = 
REMARK  8 active torsions:
REMARK  status: ('A' for Active; 'I' for Inactive)
REMARK    1  A    between atoms: C_1  and  C_2
REMARK    2  A    between atoms: C_2  and  C_3
REMARK    3  A    between atoms: C_3  and  C_4
REMARK    4  A    between atoms: C_11  and  O_12
REMARK    5  A    between atoms: O_12  and  C_13
REMARK    6  A    between atoms: C_13  and  C_14
REMARK    7  A    between atoms: C_14  and  N_15
REMARK    8  A    between atoms: C_24  and  N_25
REMARK                            x       y       z     vdW  Elec       q    Type
REMARK                         _______ _______ _______ _____ _____    ______ ____
ROOT
ATOM      1  C   UNL     1       3.018   4.478  19.884  0.00  0.00    +0.000 A 
ATOM      2  C   UNL     1       3.530   3.370  20.442  0.00  0.00    +0.000 A 
ATOM      3  C   UNL     1       4.707   2.666  19.923  0.00  0.00    +0.000 A 
ATOM      4  O   UNL     1       5.171   1.689  20.499  0.00  0.00    +0.000 OA
ATOM      5  O   UNL     1       5.188   3.117  18.718  0.00  0.00    +0.000 OA
ATOM      6  C   UNL     1       4.734   4.317  18.136  0.00  0.00    +0.000 A 
ATOM      7  C   UNL     1       3.717   5.113  18.722  0.00  0.00    +0.000 A 
ATOM      8  C   UNL     1       3.431   6.381  18.123  0.00  0.00    +0.000 A 
ATOM      9  C   UNL     1       4.123   6.810  16.969  0.00  0.00    +0.000 A 
ATOM     10  C   UNL     1       5.018   5.919  16.391  0.00  0.00    +0.000 A 
ATOM     11  O   UNL     1       5.688   6.122  15.220  0.00  0.00    +0.000 OA
ATOM     12  C   UNL     1       6.415   4.992  15.010  0.00  0.00    +0.000 A 
ATOM     13  C   UNL     1       6.264   4.086  16.031  0.00  0.00    +0.000 A 
ATOM     14  C   UNL     1       5.341   4.691  16.926  0.00  0.00    +0.000 A 
ENDROOT
BRANCH  12  15
ATOM     15  N   UNL     1       7.158   4.926  13.793  0.00  0.00    +0.000 N 
ATOM     16  O   UNL     1       8.135   5.680  13.708  0.00  0.00    +0.000 OA
ATOM     17  O   UNL     1       6.781   4.124  12.929  0.00  0.00    +0.000 OA
ENDBRANCH  12  15
BRANCH   1  18
ATOM     18  C   UNL     1       1.680   4.964  20.396  0.00  0.00    +0.000 C 
BRANCH  18  20
ATOM     19  C   UNL     1       0.677   3.062  19.056  0.00  0.00    +0.000 C 
ATOM     20  C   UNL     1       0.614   3.861  20.345  0.00  0.00    +0.000 C 
ENDBRANCH  18  20
ENDBRANCH   1  18
BRANCH   8  21
ATOM     21  O   UNL     1       2.460   7.184  18.695  0.00  0.00    +0.000 OA
BRANCH  21  22
ATOM     22  C   UNL     1       2.396   8.585  18.342  0.00  0.00    +0.000 C 
BRANCH  22  23
ATOM     23  C   UNL     1       0.960   9.174  18.409  0.00  0.00    +0.000 C 
BRANCH  23  24
ATOM     24  N   UNL     1       0.552   9.716  19.708  0.00  0.00    +0.000 NA
ATOM     25  C   UNL     1       1.049   8.934  20.861  0.00  0.00    +0.000 C 
ATOM     26  C   UNL     1       0.252   9.340  22.115  0.00  0.00    +0.000 C 
ATOM     27  O   UNL     1       0.373  10.747  22.380  0.00  0.00    +0.000 OA
ATOM     28  C   UNL     1      -0.019  11.516  21.232  0.00  0.00    +0.000 C 
ATOM     29  C   UNL     1       0.815  11.135  19.991  0.00  0.00    +0.000 C 
ENDBRANCH  23  24
ENDBRANCH  22  23
ENDBRANCH  21  22
ENDBRANCH   8  21
TORSDOF 7
ENDMDL
MODEL 2
REMARK VINA RESULT:      -8.5      0.949      1.274
REMARK  Name = 
REMARK  8 active torsions:
REMARK  status: ('A' for Active; 'I' for Inactive)
REMARK    1  A    between atoms: C_1  and  C_2
REMARK    2  A    between atoms: C_2  and  C_3
REMARK    3  A    between atoms: C_3  and  C_4
REMARK    4  A    between atoms: C_11  and  O_12
REMARK    5  A    between atoms: O_12  and  C_13
REMARK    6  A    between atoms: C_13  and  C_14
REMARK    7  A    between atoms: C_14  and  N_15
REMARK    8  A    between atoms: C_24  and  N_25
REMARK                            x       y       z     vdW  Elec       q    Type
REMARK                         _______ _______ _______ _____ _____    ______ ____
ROOT
ATOM      1  C   UNL     1       3.079   4.589  19.883  0.00  0.00    +0.000 A 
ATOM      2  C   UNL     1       3.560   3.464  20.433  0.00  0.00    +0.000 A 
ATOM      3  C   UNL     1       4.708   2.723  19.900  0.00  0.00    +0.000 A 
ATOM      4  O   UNL     1       5.146   1.731  20.469  0.00  0.00    +0.000 OA
ATOM      5  O   UNL     1       5.190   3.162  18.690  0.00  0.00    +0.000 OA
ATOM      6  C   UNL     1       4.769   4.377  18.116  0.00  0.00    +0.000 A 
ATOM      7  C   UNL     1       3.785   5.204  18.714  0.00  0.00    +0.000 A 
ATOM      8  C   UNL     1       3.533   6.482  18.121  0.00  0.00    +0.000 A 
ATOM      9  C   UNL     1       4.226   6.891  16.960  0.00  0.00    +0.000 A 
ATOM     10  C   UNL     1       5.086   5.973  16.371  0.00  0.00    +0.000 A 
ATOM     11  O   UNL     1       5.750   6.157  15.194  0.00  0.00    +0.000 OA
ATOM     12  C   UNL     1       6.438   5.004  14.973  0.00  0.00    +0.000 A 
ATOM     13  C   UNL     1       6.268   4.102  15.995  0.00  0.00    +0.000 A 
ATOM     14  C   UNL     1       5.375   4.734  16.900  0.00  0.00    +0.000 A 
ENDROOT
BRANCH  12  15
ATOM     15  N   UNL     1       7.165   4.917  13.748  0.00  0.00    +0.000 N 
ATOM     16  O   UNL     1       8.160   5.645  13.651  0.00  0.00    +0.000 OA
ATOM     17  O   UNL     1       6.757   4.125  12.890  0.00  0.00    +0.000 OA
ENDBRANCH  12  15
BRANCH   1  18
ATOM     18  C   UNL     1       1.762   5.117  20.410  0.00  0.00    +0.000 C 
BRANCH  18  20
ATOM     19  C   UNL     1       0.664   3.216  19.146  0.00  0.00    +0.000 C 
ATOM     20  C   UNL     1       0.676   4.032  20.426  0.00  0.00    +0.000 C 
ENDBRANCH  18  20
ENDBRANCH   1  18
BRANCH   8  21
ATOM     21  O   UNL     1       2.595   7.315  18.705  0.00  0.00    +0.000 OA
BRANCH  21  22
ATOM     22  C   UNL     1       1.794   8.181  17.870  0.00  0.00    +0.000 C 
BRANCH  22  23
ATOM     23  C   UNL     1       2.071   9.692  18.099  0.00  0.00    +0.000 C 
BRANCH  23  24
ATOM     24  N   UNL     1       0.950  10.475  18.626  0.00  0.00    +0.000 NA
ATOM     25  C   UNL     1      -0.367  10.056  18.098  0.00  0.00    +0.000 C 
ATOM     26  C   UNL     1      -1.393  11.167  18.392  0.00  0.00    +0.000 C 
ATOM     27  O   UNL     1      -1.485  11.437  19.801  0.00  0.00    +0.000 OA
ATOM     28  C   UNL     1      -0.193  11.753  20.343  0.00  0.00    +0.000 C 
ATOM     29  C   UNL     1       0.817  10.615  20.084  0.00  0.00    +0.000 C 
ENDBRANCH  23  24
ENDBRANCH  22  23
ENDBRANCH  21  22
ENDBRANCH   8  21
TORSDOF 7
ENDMDL
MODEL 3
REMARK VINA RESULT:      -8.5      0.934      1.423
REMARK  Name = 
REMARK  8 active torsions:
REMARK  status: ('A' for Active; 'I' for Inactive)
REMARK    1  A    between atoms: C_1  and  C_2
REMARK    2  A    between atoms: C_2  and  C_3
REMARK    3  A    between atoms: C_3  and  C_4
REMARK    4  A    between atoms: C_11  and  O_12
REMARK    5  A    between atoms: O_12  and  C_13
REMARK    6  A    between atoms: C_13  and  C_14
REMARK    7  A    between atoms: C_14  and  N_15
REMARK    8  A    between atoms: C_24  and  N_25
REMARK                            x       y       z     vdW  Elec       q    Type
REMARK                         _______ _______ _______ _____ _____    ______ ____
ROOT
ATOM      1  C   UNL     1       2.812   3.879  20.205  0.00  0.00    +0.000 A 
ATOM      2  C   UNL     1       3.443   2.837  20.767  0.00  0.00    +0.000 A 
ATOM      3  C   UNL     1       4.717   2.296  20.279  0.00  0.00    +0.000 A 
ATOM      4  O   UNL     1       5.283   1.378  20.859  0.00  0.00    +0.000 OA
ATOM      5  O   UNL     1       5.174   2.824  19.096  0.00  0.00    +0.000 OA
ATOM      6  C   UNL     1       4.588   3.965  18.513  0.00  0.00    +0.000 A 
ATOM      7  C   UNL     1       3.460   4.615  19.073  0.00  0.00    +0.000 A 
ATOM      8  C   UNL     1       3.033   5.845  18.480  0.00  0.00    +0.000 A 
ATOM      9  C   UNL     1       3.700   6.377  17.354  0.00  0.00    +0.000 A 
ATOM     10  C   UNL     1       4.720   5.617  16.796  0.00  0.00    +0.000 A 
ATOM     11  O   UNL     1       5.395   5.922  15.651  0.00  0.00    +0.000 OA
ATOM     12  C   UNL     1       6.266   4.897  15.452  0.00  0.00    +0.000 A 
ATOM     13  C   UNL     1       6.201   3.964  16.457  0.00  0.00    +0.000 A 
ATOM     14  C   UNL     1       5.180   4.432  17.328  0.00  0.00    +0.000 A 
ENDROOT
BRANCH  12  15
ATOM     15  N   UNL     1       7.049   4.945  14.259  0.00  0.00    +0.000 N 
ATOM     16  O   UNL     1       6.635   4.273  13.307  0.00  0.00    +0.000 OA
ATOM     17  O   UNL     1       8.064   5.653  14.263  0.00  0.00    +0.000 OA
ENDBRANCH  12  15
BRANCH   1  18
ATOM     18  C   UNL     1       1.407   4.182  20.677  0.00  0.00    +0.000 C 
BRANCH  18  20
ATOM     19  C   UNL     1       0.672   2.676  18.778  0.00  0.00    +0.000 C 
ATOM     20  C   UNL     1       0.403   3.122  20.204  0.00  0.00    +0.000 C 
ENDBRANCH  18  20
ENDBRANCH   1  18
BRANCH   8  21
ATOM     21  O   UNL     1       1.949   6.510  19.028  0.00  0.00    +0.000 OA
BRANCH  21  22
ATOM     22  C   UNL     1       2.164   7.728  19.776  0.00  0.00    +0.000 C 
BRANCH  22  23
ATOM     23  C   UNL     1       1.313   7.817  21.072  0.00  0.00    +0.000 C 
BRANCH  23  24
ATOM     24  N   UNL     1       0.650   9.101  21.315  0.00  0.00    +0.000 NA
ATOM     25  C   UNL     1       0.016   9.680  20.110  0.00  0.00    +0.000 C 
ATOM     26  C   UNL     1      -0.287  11.166  20.375  0.00  0.00    +0.000 C 
ATOM     27  O   UNL     1      -1.146  11.331  21.515  0.00  0.00    +0.000 OA
ATOM     28  C   UNL     1      -0.584  10.691  22.672  0.00  0.00    +0.000 C 
ATOM     29  C   UNL     1      -0.325   9.192  22.412  0.00  0.00    +0.000 C 
ENDBRANCH  23  24
ENDBRANCH  22  23
ENDBRANCH  21  22
ENDBRANCH   8  21
TORSDOF 7
ENDMDL
MODEL 4
REMARK VINA RESULT:      -8.4      0.992      1.412
REMARK  Name = 
REMARK  8 active torsions:
REMARK  status: ('A' for Active; 'I' for Inactive)
REMARK    1  A    between atoms: C_1  and  C_2
REMARK    2  A    between atoms: C_2  and  C_3
REMARK    3  A    between atoms: C_3  and  C_4
REMARK    4  A    between atoms: C_11  and  O_12
REMARK    5  A    between atoms: O_12  and  C_13
REMARK    6  A    between atoms: C_13  and  C_14
REMARK    7  A    between atoms: C_14  and  N_15
REMARK    8  A    between atoms: C_24  and  N_25
REMARK                            x       y       z     vdW  Elec       q    Type
REMARK                         _______ _______ _______ _____ _____    ______ ____
ROOT
ATOM      1  C   UNL     1       2.901   4.034  20.057  0.00  0.00    +0.000 A 
ATOM      2  C   UNL     1       3.505   2.977  20.620  0.00  0.00    +0.000 A 
ATOM      3  C   UNL     1       4.761   2.400  20.129  0.00  0.00    +0.000 A 
ATOM      4  O   UNL     1       5.304   1.468  20.710  0.00  0.00    +0.000 OA
ATOM      5  O   UNL     1       5.228   2.911  18.943  0.00  0.00    +0.000 OA
ATOM      6  C   UNL     1       4.673   4.066  18.359  0.00  0.00    +0.000 A 
ATOM      7  C   UNL     1       3.565   4.749  18.921  0.00  0.00    +0.000 A 
ATOM      8  C   UNL     1       3.170   5.989  18.326  0.00  0.00    +0.000 A 
ATOM      9  C   UNL     1       3.847   6.499  17.195  0.00  0.00    +0.000 A 
ATOM     10  C   UNL     1       4.844   5.709  16.637  0.00  0.00    +0.000 A 
ATOM     11  O   UNL     1       5.523   5.991  15.488  0.00  0.00    +0.000 OA
ATOM     12  C   UNL     1       6.366   4.942  15.289  0.00  0.00    +0.000 A 
ATOM     13  C   UNL     1       6.278   4.014  16.298  0.00  0.00    +0.000 A 
ATOM     14  C   UNL     1       5.273   4.514  17.170  0.00  0.00    +0.000 A 
ENDROOT
BRANCH  12  15
ATOM     15  N   UNL     1       7.145   4.966  14.094  0.00  0.00    +0.000 N 
ATOM     16  O   UNL     1       6.730   4.271  13.158  0.00  0.00    +0.000 OA
ATOM     17  O   UNL     1       8.158   5.675  14.079  0.00  0.00    +0.000 OA
ENDBRANCH  12  15
BRANCH   1  18
ATOM     18  C   UNL     1       1.506   4.377  20.533  0.00  0.00    +0.000 C 
BRANCH  18  20
ATOM     19  C   UNL     1       0.659   2.737  18.798  0.00  0.00    +0.000 C 
ATOM     20  C   UNL     1       0.502   3.262  20.214  0.00  0.00    +0.000 C 
ENDBRANCH  18  20
ENDBRANCH   1  18
BRANCH   8  21
ATOM     21  O   UNL     1       2.107   6.684  18.875  0.00  0.00    +0.000 OA
BRANCH  21  22
ATOM     22  C   UNL     1       2.213   8.114  19.066  0.00  0.00    +0.000 C 
BRANCH  22  23
ATOM     23  C   UNL     1       1.378   8.641  20.264  0.00  0.00    +0.000 C 
BRANCH  23  24
ATOM     24  N   UNL     1       0.345   9.629  19.937  0.00  0.00    +0.000 NA
ATOM     25  C   UNL     1       0.388  10.838  20.788  0.00  0.00    +0.000 C 
ATOM     26  C   UNL     1      -0.943  11.598  20.636  0.00  0.00    +0.000 C 
ATOM     27  O   UNL     1      -1.185  11.963  19.267  0.00  0.00    +0.000 OA
ATOM     28  C   UNL     1      -1.136  10.806  18.417  0.00  0.00    +0.000 C 
ATOM     29  C   UNL     1       0.218  10.076  18.542  0.00  0.00    +0.000 C 
ENDBRANCH  23  24
ENDBRANCH  22  23
ENDBRANCH  21  22
ENDBRANCH   8  21
TORSDOF 7
ENDMDL
MODEL 5
REMARK VINA RESULT:      -8.3      0.847      1.286
REMARK  Name = 
REMARK  8 active torsions:
REMARK  status: ('A' for Active; 'I' for Inactive)
REMARK    1  A    between atoms: C_1  and  C_2
REMARK    2  A    between atoms: C_2  and  C_3
REMARK    3  A    between atoms: C_3  and  C_4
REMARK    4  A    between atoms: C_11  and  O_12
REMARK    5  A    between atoms: O_12  and  C_13
REMARK    6  A    between atoms: C_13  and  C_14
REMARK    7  A    between atoms: C_14  and  N_15
REMARK    8  A    between atoms: C_24  and  N_25
REMARK                            x       y       z     vdW  Elec       q    Type
REMARK                         _______ _______ _______ _____ _____    ______ ____
ROOT
ATOM      1  C   UNL     1       3.056   4.606  19.876  0.00  0.00    +0.000 A 
ATOM      2  C   UNL     1       3.534   3.484  20.434  0.00  0.00    +0.000 A 
ATOM      3  C   UNL     1       4.689   2.743  19.914  0.00  0.00    +0.000 A 
ATOM      4  O   UNL     1       5.123   1.753  20.490  0.00  0.00    +0.000 OA
ATOM      5  O   UNL     1       5.180   3.178  18.707  0.00  0.00    +0.000 OA
ATOM      6  C   UNL     1       4.762   4.390  18.124  0.00  0.00    +0.000 A 
ATOM      7  C   UNL     1       3.772   5.218  18.711  0.00  0.00    +0.000 A 
ATOM      8  C   UNL     1       3.523   6.493  18.112  0.00  0.00    +0.000 A 
ATOM      9  C   UNL     1       4.225   6.899  16.955  0.00  0.00    +0.000 A 
ATOM     10  C   UNL     1       5.092   5.981  16.377  0.00  0.00    +0.000 A 
ATOM     11  O   UNL     1       5.765   6.161  15.204  0.00  0.00    +0.000 OA
ATOM     12  C   UNL     1       6.456   5.009  14.993  0.00  0.00    +0.000 A 
ATOM     13  C   UNL     1       6.280   4.110  16.017  0.00  0.00    +0.000 A 
ATOM     14  C   UNL     1       5.377   4.744  16.912  0.00  0.00    +0.000 A 
ENDROOT
BRANCH  12  15
ATOM     15  N   UNL     1       7.194   4.919  13.775  0.00  0.00    +0.000 N 
ATOM     16  O   UNL     1       6.796   4.080  12.957  0.00  0.00    +0.000 OA
ATOM     17  O   UNL     1       8.155   5.682  13.624  0.00  0.00    +0.000 OA
ENDBRANCH  12  15
BRANCH   1  18
ATOM     18  C   UNL     1       1.734   5.134  20.390  0.00  0.00    +0.000 C 
BRANCH  18  20
ATOM     19  C   UNL     1       0.664   3.195  19.160  0.00  0.00    +0.000 C 
ATOM     20  C   UNL     1       0.656   4.042  20.419  0.00  0.00    +0.000 C 
ENDBRANCH  18  20
ENDBRANCH   1  18
BRANCH   8  21
ATOM     21  O   UNL     1       2.578   7.327  18.684  0.00  0.00    +0.000 OA
BRANCH  21  22
ATOM     22  C   UNL     1       2.330   8.627  18.104  0.00  0.00    +0.000 C 
BRANCH  22  23
ATOM     23  C   UNL     1       0.934   9.207  18.458  0.00  0.00    +0.000 C 
BRANCH  23  24
ATOM     24  N   UNL     1       0.928  10.332  19.397  0.00  0.00    +0.000 NA
ATOM     25  C   UNL     1       1.439  11.593  18.815  0.00  0.00    +0.000 C 
ATOM     26  C   UNL     1       1.759  12.572  19.961  0.00  0.00    +0.000 C 
ATOM     27  O   UNL     1       0.600  12.831  20.769  0.00  0.00    +0.000 OA
ATOM     28  C   UNL     1       0.039  11.604  21.262  0.00  0.00    +0.000 C 
ATOM     29  C   UNL     1      -0.321  10.648  20.106  0.00  0.00    +0.000 C 
ENDBRANCH  23  24
ENDBRANCH  22  23
ENDBRANCH  21  22
ENDBRANCH   8  21
TORSDOF 7
ENDMDL
MODEL 6
REMARK VINA RESULT:      -8.2      1.350      1.733
REMARK  Name = 
REMARK  8 active torsions:
REMARK  status: ('A' for Active; 'I' for Inactive)
REMARK    1  A    between atoms: C_1  and  C_2
REMARK    2  A    between atoms: C_2  and  C_3
REMARK    3  A    between atoms: C_3  and  C_4
REMARK    4  A    between atoms: C_11  and  O_12
REMARK    5  A    between atoms: O_12  and  C_13
REMARK    6  A    between atoms: C_13  and  C_14
REMARK    7  A    between atoms: C_14  and  N_15
REMARK    8  A    between atoms: C_24  and  N_25
REMARK                            x       y       z     vdW  Elec       q    Type
REMARK                         _______ _______ _______ _____ _____    ______ ____
ROOT
ATOM      1  C   UNL     1       2.567   4.307  18.752  0.00  0.00    +0.000 A 
ATOM      2  C   UNL     1       2.623   2.988  18.987  0.00  0.00    +0.000 A 
ATOM      3  C   UNL     1       3.572   2.082  18.330  0.00  0.00    +0.000 A 
ATOM      4  O   UNL     1       3.622   0.893  18.618  0.00  0.00    +0.000 OA
ATOM      5  O   UNL     1       4.323   2.637  17.322  0.00  0.00    +0.000 OA
ATOM      6  C   UNL     1       4.353   4.025  17.092  0.00  0.00    +0.000 A 
ATOM      7  C   UNL     1       3.576   4.941  17.845  0.00  0.00    +0.000 A 
ATOM      8  C   UNL     1       3.787   6.340  17.624  0.00  0.00    +0.000 A 
ATOM      9  C   UNL     1       4.723   6.789  16.665  0.00  0.00    +0.000 A 
ATOM     10  C   UNL     1       5.355   5.826  15.889  0.00  0.00    +0.000 A 
ATOM     11  O   UNL     1       6.201   6.082  14.849  0.00  0.00    +0.000 OA
ATOM     12  C   UNL     1       6.551   4.867  14.350  0.00  0.00    +0.000 A 
ATOM     13  C   UNL     1       5.989   3.837  15.064  0.00  0.00    +0.000 A 
ATOM     14  C   UNL     1       5.199   4.469  16.061  0.00  0.00    +0.000 A 
ENDROOT
BRANCH  12  15
ATOM     15  N   UNL     1       7.385   4.867  13.192  0.00  0.00    +0.000 N 
ATOM     16  O   UNL     1       8.353   5.637  13.216  0.00  0.00    +0.000 OA
ATOM     17  O   UNL     1       7.088   4.102  12.266  0.00  0.00    +0.000 OA
ENDBRANCH  12  15
BRANCH   1  18
ATOM     18  C   UNL     1       1.398   5.072  19.333  0.00  0.00    +0.000 C 
BRANCH  18  20
ATOM     19  C   UNL     1       1.240   6.919  21.059  0.00  0.00    +0.000 C 
ATOM     20  C   UNL     1       1.651   5.483  20.790  0.00  0.00    +0.000 C 
ENDBRANCH  18  20
ENDBRANCH   1  18
BRANCH   8  21
ATOM     21  O   UNL     1       3.057   7.250  18.367  0.00  0.00    +0.000 OA
BRANCH  21  22
ATOM     22  C   UNL     1       2.793   8.564  17.824  0.00  0.00    +0.000 C 
BRANCH  22  23
ATOM     23  C   UNL     1       1.300   8.983  17.915  0.00  0.00    +0.000 C 
BRANCH  23  24
ATOM     24  N   UNL     1       0.977   9.980  18.940  0.00  0.00    +0.000 NA
ATOM     25  C   UNL     1       1.505  11.330  18.642  0.00  0.00    +0.000 C 
ATOM     26  C   UNL     1       1.460  12.173  19.930  0.00  0.00    +0.000 C 
ATOM     27  O   UNL     1       0.124  12.266  20.451  0.00  0.00    +0.000 OA
ATOM     28  C   UNL     1      -0.434  10.958  20.655  0.00  0.00    +0.000 C 
ATOM     29  C   UNL     1      -0.427  10.136  19.349  0.00  0.00    +0.000 C 
ENDBRANCH  23  24
ENDBRANCH  22  23
ENDBRANCH  21  22
ENDBRANCH   8  21
TORSDOF 7
ENDMDL
MODEL 7
REMARK VINA RESULT:      -8.2      1.234      1.644
REMARK  Name = 
REMARK  8 active torsions:
REMARK  status: ('A' for Active; 'I' for Inactive)
REMARK    1  A    between atoms: C_1  and  C_2
REMARK    2  A    between atoms: C_2  and  C_3
REMARK    3  A    between atoms: C_3  and  C_4
REMARK    4  A    between atoms: C_11  and  O_12
REMARK    5  A    between atoms: O_12  and  C_13
REMARK    6  A    between atoms: C_13  and  C_14
REMARK    7  A    between atoms: C_14  and  N_15
REMARK    8  A    between atoms: C_24  and  N_25
REMARK                            x       y       z     vdW  Elec       q    Type
REMARK                         _______ _______ _______ _____ _____    ______ ____
ROOT
ATOM      1  C   UNL     1       2.731   4.071  18.771  0.00  0.00    +0.000 A 
ATOM      2  C   UNL     1       2.846   2.750  18.979  0.00  0.00    +0.000 A 
ATOM      3  C   UNL     1       3.819   1.898  18.287  0.00  0.00    +0.000 A 
ATOM      4  O   UNL     1       3.924   0.707  18.550  0.00  0.00    +0.000 OA
ATOM      5  O   UNL     1       4.526   2.502  17.275  0.00  0.00    +0.000 OA
ATOM      6  C   UNL     1       4.495   3.895  17.072  0.00  0.00    +0.000 A 
ATOM      7  C   UNL     1       3.695   4.764  17.858  0.00  0.00    +0.000 A 
ATOM      8  C   UNL     1       3.844   6.173  17.661  0.00  0.00    +0.000 A 
ATOM      9  C   UNL     1       4.741   6.679  16.693  0.00  0.00    +0.000 A 
ATOM     10  C   UNL     1       5.397   5.759  15.886  0.00  0.00    +0.000 A 
ATOM     11  O   UNL     1       6.210   6.069  14.836  0.00  0.00    +0.000 OA
ATOM     12  C   UNL     1       6.601   4.879  14.307  0.00  0.00    +0.000 A 
ATOM     13  C   UNL     1       6.097   3.813  15.011  0.00  0.00    +0.000 A 
ATOM     14  C   UNL     1       5.300   4.393  16.035  0.00  0.00    +0.000 A 
ENDROOT
BRANCH  12  15
ATOM     15  N   UNL     1       7.411   4.936  13.133  0.00  0.00    +0.000 N 
ATOM     16  O   UNL     1       7.105   4.160  12.220  0.00  0.00    +0.000 OA
ATOM     17  O   UNL     1       8.340   5.753  13.112  0.00  0.00    +0.000 OA
ENDBRANCH  12  15
BRANCH   1  18
ATOM     18  C   UNL     1       1.543   4.775  19.389  0.00  0.00    +0.000 C 
BRANCH  18  20
ATOM     19  C   UNL     1       1.560   3.464  21.557  0.00  0.00    +0.000 C 
ATOM     20  C   UNL     1       0.756   3.851  20.329  0.00  0.00    +0.000 C 
ENDBRANCH  18  20
ENDBRANCH   1  18
BRANCH   8  21
ATOM     21  O   UNL     1       3.091   7.039  18.435  0.00  0.00    +0.000 OA
BRANCH  21  22
ATOM     22  C   UNL     1       2.869   8.393  17.980  0.00  0.00    +0.000 C 
BRANCH  22  23
ATOM     23  C   UNL     1       1.366   8.766  17.859  0.00  0.00    +0.000 C 
BRANCH  23  24
ATOM     24  N   UNL     1       0.880   9.774  18.805  0.00  0.00    +0.000 NA
ATOM     25  C   UNL     1      -0.461  10.304  18.471  0.00  0.00    +0.000 C 
ATOM     26  C   UNL     1      -0.692  11.601  19.269  0.00  0.00    +0.000 C 
ATOM     27  O   UNL     1      -0.587  11.373  20.684  0.00  0.00    +0.000 OA
ATOM     28  C   UNL     1       0.676  10.770  21.009  0.00  0.00    +0.000 C 
ATOM     29  C   UNL     1       0.880   9.448  20.239  0.00  0.00    +0.000 C 
ENDBRANCH  23  24
ENDBRANCH  22  23
ENDBRANCH  21  22
ENDBRANCH   8  21
TORSDOF 7
ENDMDL
MODEL 8
REMARK VINA RESULT:      -7.9      1.529      1.966
REMARK  Name = 
REMARK  8 active torsions:
REMARK  status: ('A' for Active; 'I' for Inactive)
REMARK    1  A    between atoms: C_1  and  C_2
REMARK    2  A    between atoms: C_2  and  C_3
REMARK    3  A    between atoms: C_3  and  C_4
REMARK    4  A    between atoms: C_11  and  O_12
REMARK    5  A    between atoms: O_12  and  C_13
REMARK    6  A    between atoms: C_13  and  C_14
REMARK    7  A    between atoms: C_14  and  N_15
REMARK    8  A    between atoms: C_24  and  N_25
REMARK                            x       y       z     vdW  Elec       q    Type
REMARK                         _______ _______ _______ _____ _____    ______ ____
ROOT
ATOM      1  C   UNL     1       2.770   4.096  18.800  0.00  0.00    +0.000 A 
ATOM      2  C   UNL     1       2.844   2.767  18.967  0.00  0.00    +0.000 A 
ATOM      3  C   UNL     1       3.784   1.906  18.242  0.00  0.00    +0.000 A 
ATOM      4  O   UNL     1       3.853   0.704  18.468  0.00  0.00    +0.000 OA
ATOM      5  O   UNL     1       4.504   2.518  17.244  0.00  0.00    +0.000 OA
ATOM      6  C   UNL     1       4.515   3.917  17.083  0.00  0.00    +0.000 A 
ATOM      7  C   UNL     1       3.749   4.785  17.901  0.00  0.00    +0.000 A 
ATOM      8  C   UNL     1       3.942   6.195  17.746  0.00  0.00    +0.000 A 
ATOM      9  C   UNL     1       4.848   6.702  16.788  0.00  0.00    +0.000 A 
ATOM     10  C   UNL     1       5.469   5.786  15.948  0.00  0.00    +0.000 A 
ATOM     11  O   UNL     1       6.284   6.103  14.901  0.00  0.00    +0.000 OA
ATOM     12  C   UNL     1       6.633   4.918  14.333  0.00  0.00    +0.000 A 
ATOM     13  C   UNL     1       6.100   3.847  15.008  0.00  0.00    +0.000 A 
ATOM     14  C   UNL     1       5.329   4.420  16.056  0.00  0.00    +0.000 A 
ENDROOT
BRANCH  12  15
ATOM     15  N   UNL     1       7.437   4.985  13.155  0.00  0.00    +0.000 N 
ATOM     16  O   UNL     1       7.088   4.261  12.214  0.00  0.00    +0.000 OA
ATOM     17  O   UNL     1       8.403   5.757  13.159  0.00  0.00    +0.000 OA
ENDBRANCH  12  15
BRANCH   1  18
ATOM     18  C   UNL     1       1.609   4.818  19.449  0.00  0.00    +0.000 C 
BRANCH  18  20
ATOM     19  C   UNL     1       1.610   3.484  21.603  0.00  0.00    +0.000 C 
ATOM     20  C   UNL     1       0.810   3.896  20.380  0.00  0.00    +0.000 C 
ENDBRANCH  18  20
ENDBRANCH   1  18
BRANCH   8  21
ATOM     21  O   UNL     1       3.222   7.060  18.552  0.00  0.00    +0.000 OA
BRANCH  21  22
ATOM     22  C   UNL     1       2.591   8.221  17.967  0.00  0.00    +0.000 C 
BRANCH  22  23
ATOM     23  C   UNL     1       1.462   8.822  18.848  0.00  0.00    +0.000 C 
BRANCH  23  24
ATOM     24  N   UNL     1       1.520  10.271  19.061  0.00  0.00    +0.000 NA
ATOM     25  C   UNL     1       2.005  11.025  17.884  0.00  0.00    +0.000 C 
ATOM     26  C   UNL     1       2.400  12.444  18.334  0.00  0.00    +0.000 C 
ATOM     27  O   UNL     1       1.292  13.129  18.941  0.00  0.00    +0.000 OA
ATOM     28  C   UNL     1       0.752  12.360  20.027  0.00  0.00    +0.000 C 
ATOM     29  C   UNL     1       0.317  10.956  19.558  0.00  0.00    +0.000 C 
ENDBRANCH  23  24
ENDBRANCH  22  23
ENDBRANCH  21  22
ENDBRANCH   8  21
TORSDOF 7
ENDMDL
MODEL 9
REMARK VINA RESULT:      -7.9      1.987      2.801
REMARK  Name = 
REMARK  8 active torsions:
REMARK  status: ('A' for Active; 'I' for Inactive)
REMARK    1  A    between atoms: C_1  and  C_2
REMARK    2  A    between atoms: C_2  and  C_3
REMARK    3  A    between atoms: C_3  and  C_4
REMARK    4  A    between atoms: C_11  and  O_12
REMARK    5  A    between atoms: O_12  and  C_13
REMARK    6  A    between atoms: C_13  and  C_14
REMARK    7  A    between atoms: C_14  and  N_15
REMARK    8  A    between atoms: C_24  and  N_25
REMARK                            x       y       z     vdW  Elec       q    Type
REMARK                         _______ _______ _______ _____ _____    ______ ____
ROOT
ATOM      1  C   UNL     1       1.970   5.920  20.151  0.00  0.00    +0.000 A 
ATOM      2  C   UNL     1       2.089   4.753  20.801  0.00  0.00    +0.000 A 
ATOM      3  C   UNL     1       3.045   3.705  20.425  0.00  0.00    +0.000 A 
ATOM      4  O   UNL     1       3.155   2.678  21.083  0.00  0.00    +0.000 OA
ATOM      5  O   UNL     1       3.728   3.915  19.251  0.00  0.00    +0.000 OA
ATOM      6  C   UNL     1       3.692   5.152  18.579  0.00  0.00    +0.000 A 
ATOM      7  C   UNL     1       2.911   6.245  19.032  0.00  0.00    +0.000 A 
ATOM      8  C   UNL     1       3.056   7.498  18.356  0.00  0.00    +0.000 A 
ATOM      9  C   UNL     1       3.930   7.630  17.253  0.00  0.00    +0.000 A 
ATOM     10  C   UNL     1       4.566   6.481  16.801  0.00  0.00    +0.000 A 
ATOM     11  O   UNL     1       5.354   6.401  15.690  0.00  0.00    +0.000 OA
ATOM     12  C   UNL     1       5.731   5.098  15.597  0.00  0.00    +0.000 A 
ATOM     13  C   UNL     1       5.243   4.346  16.638  0.00  0.00    +0.000 A 
ATOM     14  C   UNL     1       4.472   5.252  17.416  0.00  0.00    +0.000 A 
ENDROOT
BRANCH  12  15
ATOM     15  N   UNL     1       6.513   4.738  14.458  0.00  0.00    +0.000 N 
ATOM     16  O   UNL     1       7.569   5.362  14.302  0.00  0.00    +0.000 OA
ATOM     17  O   UNL     1       6.087   3.834  13.728  0.00  0.00    +0.000 OA
ENDBRANCH  12  15
BRANCH   1  18
ATOM     18  C   UNL     1       0.797   6.805  20.514  0.00  0.00    +0.000 C 
BRANCH  18  20
ATOM     19  C   UNL     1       0.045   8.845  21.814  0.00  0.00    +0.000 C 
ATOM     20  C   UNL     1       1.195   7.901  21.511  0.00  0.00    +0.000 C 
ENDBRANCH  18  20
ENDBRANCH   1  18
BRANCH   8  21
ATOM     21  O   UNL     1       2.323   8.584  18.799  0.00  0.00    +0.000 OA
BRANCH  21  22
ATOM     22  C   UNL     1       1.358   9.201  17.917  0.00  0.00    +0.000 C 
BRANCH  22  23
ATOM     23  C   UNL     1       0.690  10.467  18.518  0.00  0.00    +0.000 C 
BRANCH  23  24
ATOM     24  N   UNL     1      -0.773  10.520  18.434  0.00  0.00    +0.000 NA
ATOM     25  C   UNL     1      -1.325  11.889  18.525  0.00  0.00    +0.000 C 
ATOM     26  C   UNL     1      -2.833  11.796  18.825  0.00  0.00    +0.000 C 
ATOM     27  O   UNL     1      -3.524  11.049  17.811  0.00  0.00    +0.000 OA
ATOM     28  C   UNL     1      -2.935   9.749  17.648  0.00  0.00    +0.000 C 
ATOM     29  C   UNL     1      -1.435   9.852  17.303  0.00  0.00    +0.000 C 
ENDBRANCH  23  24
ENDBRANCH  22  23
ENDBRANCH  21  22
ENDBRANCH   8  21
TORSDOF 7
ENDMDL
