MODEL 1
REMARK VINA RESULT:      -7.0      0.000      0.000
REMARK  Name = 
REMARK  6 active torsions:
REMARK  status: ('A' for Active; 'I' for Inactive)
REMARK    1  A    between atoms: N_5  and  C_6
REMARK    2  A    between atoms: C_8  and  C_9
REMARK    3  A    between atoms: C_9  and  O_10
REMARK    4  A    between atoms: C_11  and  O_12
REMARK    5  A    between atoms: C_13  and  N_14
REMARK    6  A    between atoms: N_14  and  O_15
REMARK                            x       y       z     vdW  Elec       q    Type
REMARK                         _______ _______ _______ _____ _____    ______ ____
ROOT
ATOM      1  C   UNL     1       5.406   4.195  17.783  0.00  0.00    +0.000 C 
ATOM      2  O   UNL     1       6.554   4.031  18.645  0.00  0.00    +0.000 OA
ATOM      3  C   UNL     1       7.564   5.000  18.276  0.00  0.00    +0.000 C 
ATOM      4  C   UNL     1       7.112   5.671  16.989  0.00  0.00    +0.000 C 
ATOM      5  C   UNL     1       5.586   5.533  17.027  0.00  0.00    +0.000 C 
ENDROOT
BRANCH   1  10
ATOM      6  N   UNL     1       0.738   3.662  20.687  0.00  0.00    +0.000 N 
ATOM      7  C   UNL     1       1.886   3.831  19.962  0.00  0.00    +0.000 A 
ATOM      8  C   UNL     1       2.645   5.086  20.085  0.00  0.00    +0.000 A 
ATOM      9  C   UNL     1       3.764   5.158  19.368  0.00  0.00    +0.000 A 
ATOM     10  N   UNL     1       4.175   4.115  18.567  0.00  0.00    +0.000 N 
ATOM     11  C   UNL     1       3.398   2.961  18.438  0.00  0.00    +0.000 A 
ATOM     12  O   UNL     1       3.723   2.058  17.667  0.00  0.00    +0.000 OA
ATOM     13  N   UNL     1       2.246   2.855  19.192  0.00  0.00    +0.000 NA
ATOM     14  H   UNL     1       0.685   4.121  21.590  0.00  0.00    +0.000 HD
ATOM     15  H   UNL     1       0.432   2.695  20.715  0.00  0.00    +0.000 HD
ENDBRANCH   1  10
BRANCH   4  16
ATOM     16  O   UNL     1       7.693   4.970  15.876  0.00  0.00    +0.000 OA
ATOM     17  H   UNL     1       7.435   4.032  15.958  0.00  0.00    +0.000 HD
ENDBRANCH   4  16
BRANCH   5  18
ATOM     18  N   UNL     1       5.018   5.564  15.668  0.00  0.00    +0.000 NA
ATOM     19  H   UNL     1       3.988   5.566  15.719  0.00  0.00    +0.000 HD
BRANCH  18  20
ATOM     20  O   UNL     1       5.340   6.879  15.136  0.00  0.00    +0.000 OA
ATOM     21  H   UNL     1       5.876   6.655  14.347  0.00  0.00    +0.000 HD
ENDBRANCH  18  20
ENDBRANCH   5  18
BRANCH   3  22
ATOM     22  C   UNL     1       7.710   5.996  19.425  0.00  0.00    +0.000 C 
BRANCH  22  23
ATOM     23  O   UNL     1       8.158   5.328  20.604  0.00  0.00    +0.000 OA
ATOM     24  H   UNL     1       9.115   5.171  20.486  0.00  0.00    +0.000 HD
ENDBRANCH  22  23
ENDBRANCH   3  22
TORSDOF 6
ENDMDL
MODEL 2
REMARK VINA RESULT:      -7.0      2.355      5.559
REMARK  Name = 
REMARK  6 active torsions:
REMARK  status: ('A' for Active; 'I' for Inactive)
REMARK    1  A    between atoms: N_5  and  C_6
REMARK    2  A    between atoms: C_8  and  C_9
REMARK    3  A    between atoms: C_9  and  O_10
REMARK    4  A    between atoms: C_11  and  O_12
REMARK    5  A    between atoms: C_13  and  N_14
REMARK    6  A    between atoms: N_14  and  O_15
REMARK                            x       y       z     vdW  Elec       q    Type
REMARK                         _______ _______ _______ _____ _____    ______ ____
ROOT
ATOM      1  C   UNL     1       4.291   4.115  19.361  0.00  0.00    +0.000 C 
ATOM      2  O   UNL     1       3.891   2.727  19.379  0.00  0.00    +0.000 OA
ATOM      3  C   UNL     1       2.507   2.640  19.791  0.00  0.00    +0.000 C 
ATOM      4  C   UNL     1       2.073   4.023  20.250  0.00  0.00    +0.000 C 
ATOM      5  C   UNL     1       3.004   4.967  19.481  0.00  0.00    +0.000 C 
ENDROOT
BRANCH   1  10
ATOM      6  N   UNL     1       7.466   5.180  14.968  0.00  0.00    +0.000 N 
ATOM      7  C   UNL     1       6.650   4.932  16.038  0.00  0.00    +0.000 A 
ATOM      8  C   UNL     1       5.247   4.550  15.810  0.00  0.00    +0.000 A 
ATOM      9  C   UNL     1       4.530   4.299  16.902  0.00  0.00    +0.000 A 
ATOM     10  N   UNL     1       5.080   4.394  18.162  0.00  0.00    +0.000 N 
ATOM     11  C   UNL     1       6.402   4.812  18.338  0.00  0.00    +0.000 A 
ATOM     12  O   UNL     1       6.874   4.970  19.464  0.00  0.00    +0.000 OA
ATOM     13  N   UNL     1       7.170   5.053  17.217  0.00  0.00    +0.000 NA
ATOM     14  H   UNL     1       7.285   4.663  14.115  0.00  0.00    +0.000 HD
ATOM     15  H   UNL     1       8.448   5.197  15.222  0.00  0.00    +0.000 HD
ENDBRANCH   1  10
BRANCH   4  16
ATOM     16  O   UNL     1       2.261   4.115  21.673  0.00  0.00    +0.000 OA
ATOM     17  H   UNL     1       2.486   5.043  21.876  0.00  0.00    +0.000 HD
ENDBRANCH   4  16
BRANCH   5  18
ATOM     18  N   UNL     1       3.166   6.247  20.192  0.00  0.00    +0.000 NA
ATOM     19  H   UNL     1       3.387   6.996  19.520  0.00  0.00    +0.000 HD
BRANCH  18  20
ATOM     20  O   UNL     1       1.840   6.598  20.677  0.00  0.00    +0.000 OA
ATOM     21  H   UNL     1       1.653   5.871  21.307  0.00  0.00    +0.000 HD
ENDBRANCH  18  20
ENDBRANCH   5  18
BRANCH   3  22
ATOM     22  C   UNL     1       1.686   2.144  18.601  0.00  0.00    +0.000 C 
BRANCH  22  23
ATOM     23  O   UNL     1       2.547   1.600  17.601  0.00  0.00    +0.000 OA
ATOM     24  H   UNL     1       3.343   1.280  18.067  0.00  0.00    +0.000 HD
ENDBRANCH  22  23
ENDBRANCH   3  22
TORSDOF 6
ENDMDL
MODEL 3
REMARK VINA RESULT:      -6.9      1.859      3.347
REMARK  Name = 
REMARK  6 active torsions:
REMARK  status: ('A' for Active; 'I' for Inactive)
REMARK    1  A    between atoms: N_5  and  C_6
REMARK    2  A    between atoms: C_8  and  C_9
REMARK    3  A    between atoms: C_9  and  O_10
REMARK    4  A    between atoms: C_11  and  O_12
REMARK    5  A    between atoms: C_13  and  N_14
REMARK    6  A    between atoms: N_14  and  O_15
REMARK                            x       y       z     vdW  Elec       q    Type
REMARK                         _______ _______ _______ _____ _____    ______ ____
ROOT
ATOM      1  C   UNL     1       5.086   5.541  18.016  0.00  0.00    +0.000 C 
ATOM      2  O   UNL     1       5.204   5.922  16.627  0.00  0.00    +0.000 OA
ATOM      3  C   UNL     1       6.605   5.997  16.276  0.00  0.00    +0.000 C 
ATOM      4  C   UNL     1       7.411   5.855  17.557  0.00  0.00    +0.000 C 
ATOM      5  C   UNL     1       6.482   5.062  18.482  0.00  0.00    +0.000 C 
ENDROOT
BRANCH   1  10
ATOM      6  N   UNL     1       0.952   1.939  18.689  0.00  0.00    +0.000 N 
ATOM      7  C   UNL     1       2.001   2.803  18.528  0.00  0.00    +0.000 A 
ATOM      8  C   UNL     1       3.222   2.346  17.844  0.00  0.00    +0.000 A 
ATOM      9  C   UNL     1       4.183   3.256  17.704  0.00  0.00    +0.000 A 
ATOM     10  N   UNL     1       4.030   4.542  18.173  0.00  0.00    +0.000 N 
ATOM     11  C   UNL     1       2.876   4.921  18.865  0.00  0.00    +0.000 A 
ATOM     12  O   UNL     1       2.767   6.047  19.351  0.00  0.00    +0.000 OA
ATOM     13  N   UNL     1       1.857   4.000  18.999  0.00  0.00    +0.000 NA
ATOM     14  H   UNL     1       0.817   1.232  17.974  0.00  0.00    +0.000 HD
ATOM     15  H   UNL     1       0.093   2.412  18.948  0.00  0.00    +0.000 HD
ENDBRANCH   1  10
BRANCH   4  16
ATOM     16  O   UNL     1       7.696   7.168  18.069  0.00  0.00    +0.000 OA
ATOM     17  H   UNL     1       6.892   7.483  18.524  0.00  0.00    +0.000 HD
ENDBRANCH   4  16
BRANCH   5  18
ATOM     18  N   UNL     1       6.792   5.326  19.898  0.00  0.00    +0.000 NA
ATOM     19  H   UNL     1       6.514   4.518  20.474  0.00  0.00    +0.000 HD
BRANCH  18  20
ATOM     20  O   UNL     1       8.244   5.331  19.988  0.00  0.00    +0.000 OA
ATOM     21  H   UNL     1       8.389   5.522  20.938  0.00  0.00    +0.000 HD
ENDBRANCH  18  20
ENDBRANCH   5  18
BRANCH   3  22
ATOM     22  C   UNL     1       6.907   4.880  15.278  0.00  0.00    +0.000 C 
BRANCH  22  23
ATOM     23  O   UNL     1       7.704   5.380  14.205  0.00  0.00    +0.000 OA
ATOM     24  H   UNL     1       8.173   4.611  13.828  0.00  0.00    +0.000 HD
ENDBRANCH  22  23
ENDBRANCH   3  22
TORSDOF 6
ENDMDL
MODEL 4
REMARK VINA RESULT:      -6.8      1.977      3.453
REMARK  Name = 
REMARK  6 active torsions:
REMARK  status: ('A' for Active; 'I' for Inactive)
REMARK    1  A    between atoms: N_5  and  C_6
REMARK    2  A    between atoms: C_8  and  C_9
REMARK    3  A    between atoms: C_9  and  O_10
REMARK    4  A    between atoms: C_11  and  O_12
REMARK    5  A    between atoms: C_13  and  N_14
REMARK    6  A    between atoms: N_14  and  O_15
REMARK                            x       y       z     vdW  Elec       q    Type
REMARK                         _______ _______ _______ _____ _____    ______ ____
ROOT
ATOM      1  C   UNL     1       4.929   5.195  17.236  0.00  0.00    +0.000 C 
ATOM      2  O   UNL     1       4.610   5.622  15.893  0.00  0.00    +0.000 OA
ATOM      3  C   UNL     1       5.735   5.340  15.028  0.00  0.00    +0.000 C 
ATOM      4  C   UNL     1       6.895   4.901  15.908  0.00  0.00    +0.000 C 
ATOM      5  C   UNL     1       6.208   4.328  17.152  0.00  0.00    +0.000 C 
ENDROOT
BRANCH   1  10
ATOM      6  N   UNL     1       0.519   2.814  19.560  0.00  0.00    +0.000 N 
ATOM      7  C   UNL     1       1.630   3.371  18.988  0.00  0.00    +0.000 A 
ATOM      8  C   UNL     1       2.477   2.557  18.101  0.00  0.00    +0.000 A 
ATOM      9  C   UNL     1       3.522   3.182  17.564  0.00  0.00    +0.000 A 
ATOM     10  N   UNL     1       3.782   4.509  17.829  0.00  0.00    +0.000 N 
ATOM     11  C   UNL     1       2.983   5.232  18.720  0.00  0.00    +0.000 A 
ATOM     12  O   UNL     1       3.255   6.396  19.017  0.00  0.00    +0.000 OA
ATOM     13  N   UNL     1       1.880   4.610  19.268  0.00  0.00    +0.000 NA
ATOM     14  H   UNL     1       0.039   2.091  19.036  0.00  0.00    +0.000 HD
ATOM     15  H   UNL     1      -0.111   3.509  19.947  0.00  0.00    +0.000 HD
ENDBRANCH   1  10
BRANCH   4  16
ATOM     16  O   UNL     1       7.701   6.051  16.214  0.00  0.00    +0.000 OA
ATOM     17  H   UNL     1       8.519   5.727  16.638  0.00  0.00    +0.000 HD
ENDBRANCH   4  16
BRANCH   5  18
ATOM     18  N   UNL     1       7.092   4.402  18.328  0.00  0.00    +0.000 NA
ATOM     19  H   UNL     1       6.844   3.663  19.001  0.00  0.00    +0.000 HD
BRANCH  18  20
ATOM     20  O   UNL     1       8.410   4.011  17.854  0.00  0.00    +0.000 OA
ATOM     21  H   UNL     1       8.925   3.975  18.687  0.00  0.00    +0.000 HD
ENDBRANCH  18  20
ENDBRANCH   5  18
BRANCH   3  22
ATOM     22  C   UNL     1       5.316   4.252  14.041  0.00  0.00    +0.000 C 
BRANCH  22  23
ATOM     23  O   UNL     1       6.413   3.380  13.774  0.00  0.00    +0.000 OA
ATOM     24  H   UNL     1       7.195   3.950  13.647  0.00  0.00    +0.000 HD
ENDBRANCH  22  23
ENDBRANCH   3  22
TORSDOF 6
ENDMDL
MODEL 5
REMARK VINA RESULT:      -6.8      2.304      5.402
REMARK  Name = 
REMARK  6 active torsions:
REMARK  status: ('A' for Active; 'I' for Inactive)
REMARK    1  A    between atoms: N_5  and  C_6
REMARK    2  A    between atoms: C_8  and  C_9
REMARK    3  A    between atoms: C_9  and  O_10
REMARK    4  A    between atoms: C_11  and  O_12
REMARK    5  A    between atoms: C_13  and  N_14
REMARK    6  A    between atoms: N_14  and  O_15
REMARK                            x       y       z     vdW  Elec       q    Type
REMARK                         _______ _______ _______ _____ _____    ______ ____
ROOT
ATOM      1  C   UNL     1       4.531   4.622  18.319  0.00  0.00    +0.000 C 
ATOM      2  O   UNL     1       4.778   3.344  18.947  0.00  0.00    +0.000 OA
ATOM      3  C   UNL     1       3.514   2.759  19.338  0.00  0.00    +0.000 C 
ATOM      4  C   UNL     1       2.434   3.809  19.131  0.00  0.00    +0.000 C 
ATOM      5  C   UNL     1       3.013   4.710  18.034  0.00  0.00    +0.000 C 
ENDROOT
BRANCH   1  10
ATOM      6  N   UNL     1       7.832   5.329  13.947  0.00  0.00    +0.000 N 
ATOM      7  C   UNL     1       6.986   5.145  15.006  0.00  0.00    +0.000 A 
ATOM      8  C   UNL     1       5.988   4.063  14.961  0.00  0.00    +0.000 A 
ATOM      9  C   UNL     1       5.224   3.934  16.043  0.00  0.00    +0.000 A 
ATOM     10  N   UNL     1       5.370   4.767  17.130  0.00  0.00    +0.000 N 
ATOM     11  C   UNL     1       6.294   5.816  17.112  0.00  0.00    +0.000 A 
ATOM     12  O   UNL     1       6.375   6.608  18.052  0.00  0.00    +0.000 OA
ATOM     13  N   UNL     1       7.113   5.951  16.010  0.00  0.00    +0.000 NA
ATOM     14  H   UNL     1       8.098   4.507  13.415  0.00  0.00    +0.000 HD
ATOM     15  H   UNL     1       8.619   5.927  14.175  0.00  0.00    +0.000 HD
ENDBRANCH   1  10
BRANCH   4  16
ATOM     16  O   UNL     1       2.238   4.516  20.367  0.00  0.00    +0.000 OA
ATOM     17  H   UNL     1       2.496   5.445  20.214  0.00  0.00    +0.000 HD
ENDBRANCH   4  16
BRANCH   5  18
ATOM     18  N   UNL     1       2.440   6.066  18.105  0.00  0.00    +0.000 NA
ATOM     19  H   UNL     1       1.570   6.050  18.658  0.00  0.00    +0.000 HD
BRANCH  18  20
ATOM     20  O   UNL     1       3.358   6.838  18.927  0.00  0.00    +0.000 OA
ATOM     21  H   UNL     1       4.059   6.182  19.123  0.00  0.00    +0.000 HD
ENDBRANCH  18  20
ENDBRANCH   5  18
BRANCH   3  22
ATOM     22  C   UNL     1       3.280   1.515  18.482  0.00  0.00    +0.000 C 
BRANCH  22  23
ATOM     23  O   UNL     1       4.405   0.641  18.564  0.00  0.00    +0.000 OA
ATOM     24  H   UNL     1       4.636   0.576  19.511  0.00  0.00    +0.000 HD
ENDBRANCH  22  23
ENDBRANCH   3  22
TORSDOF 6
ENDMDL
MODEL 6
REMARK VINA RESULT:      -6.7      1.943      3.300
REMARK  Name = 
REMARK  6 active torsions:
REMARK  status: ('A' for Active; 'I' for Inactive)
REMARK    1  A    between atoms: N_5  and  C_6
REMARK    2  A    between atoms: C_8  and  C_9
REMARK    3  A    between atoms: C_9  and  O_10
REMARK    4  A    between atoms: C_11  and  O_12
REMARK    5  A    between atoms: C_13  and  N_14
REMARK    6  A    between atoms: N_14  and  O_15
REMARK                            x       y       z     vdW  Elec       q    Type
REMARK                         _______ _______ _______ _____ _____    ______ ____
ROOT
ATOM      1  C   UNL     1       4.983   5.442  18.295  0.00  0.00    +0.000 C 
ATOM      2  O   UNL     1       4.812   5.339  16.863  0.00  0.00    +0.000 OA
ATOM      3  C   UNL     1       6.093   5.056  16.254  0.00  0.00    +0.000 C 
ATOM      4  C   UNL     1       7.157   5.188  17.333  0.00  0.00    +0.000 C 
ATOM      5  C   UNL     1       6.393   4.900  18.630  0.00  0.00    +0.000 C 
ENDROOT
BRANCH   1  10
ATOM      6  N   UNL     1       0.758   3.001  20.885  0.00  0.00    +0.000 N 
ATOM      7  C   UNL     1       1.828   3.581  20.260  0.00  0.00    +0.000 A 
ATOM      8  C   UNL     1       2.934   2.737  19.778  0.00  0.00    +0.000 A 
ATOM      9  C   UNL     1       3.922   3.376  19.157  0.00  0.00    +0.000 A 
ATOM     10  N   UNL     1       3.897   4.742  18.981  0.00  0.00    +0.000 N 
ATOM     11  C   UNL     1       2.854   5.514  19.500  0.00  0.00    +0.000 A 
ATOM     12  O   UNL     1       2.866   6.742  19.410  0.00  0.00    +0.000 OA
ATOM     13  N   UNL     1       1.807   4.868  20.126  0.00  0.00    +0.000 NA
ATOM     14  H   UNL     1       0.501   2.064  20.596  0.00  0.00    +0.000 HD
ATOM     15  H   UNL     1      -0.037   3.627  20.958  0.00  0.00    +0.000 HD
ENDBRANCH   1  10
BRANCH   4  16
ATOM     16  O   UNL     1       7.684   6.525  17.298  0.00  0.00    +0.000 OA
ATOM     17  H   UNL     1       8.298   6.574  16.540  0.00  0.00    +0.000 HD
ENDBRANCH   4  16
BRANCH   5  18
ATOM     18  N   UNL     1       7.050   5.538  19.784  0.00  0.00    +0.000 NA
ATOM     19  H   UNL     1       6.730   5.096  20.658  0.00  0.00    +0.000 HD
BRANCH  18  20
ATOM     20  O   UNL     1       8.452   5.160  19.697  0.00  0.00    +0.000 OA
ATOM     21  H   UNL     1       8.616   5.204  18.732  0.00  0.00    +0.000 HD
ENDBRANCH  18  20
ENDBRANCH   5  18
BRANCH   3  22
ATOM     22  C   UNL     1       6.039   3.647  15.666  0.00  0.00    +0.000 C 
BRANCH  22  23
ATOM     23  O   UNL     1       6.433   3.670  14.295  0.00  0.00    +0.000 OA
ATOM     24  H   UNL     1       7.338   4.037  14.273  0.00  0.00    +0.000 HD
ENDBRANCH  22  23
ENDBRANCH   3  22
TORSDOF 6
ENDMDL
MODEL 7
REMARK VINA RESULT:      -6.7      1.659      1.976
REMARK  Name = 
REMARK  6 active torsions:
REMARK  status: ('A' for Active; 'I' for Inactive)
REMARK    1  A    between atoms: N_5  and  C_6
REMARK    2  A    between atoms: C_8  and  C_9
REMARK    3  A    between atoms: C_9  and  O_10
REMARK    4  A    between atoms: C_11  and  O_12
REMARK    5  A    between atoms: C_13  and  N_14
REMARK    6  A    between atoms: N_14  and  O_15
REMARK                            x       y       z     vdW  Elec       q    Type
REMARK                         _______ _______ _______ _____ _____    ______ ____
ROOT
ATOM      1  C   UNL     1       5.576   4.067  18.229  0.00  0.00    +0.000 C 
ATOM      2  O   UNL     1       6.241   5.192  18.845  0.00  0.00    +0.000 OA
ATOM      3  C   UNL     1       7.011   5.893  17.841  0.00  0.00    +0.000 C 
ATOM      4  C   UNL     1       6.993   5.052  16.574  0.00  0.00    +0.000 C 
ATOM      5  C   UNL     1       5.697   4.244  16.696  0.00  0.00    +0.000 C 
ENDROOT
BRANCH   1  10
ATOM      6  N   UNL     1       0.450   3.577  20.229  0.00  0.00    +0.000 N 
ATOM      7  C   UNL     1       1.705   3.703  19.698  0.00  0.00    +0.000 A 
ATOM      8  C   UNL     1       1.939   4.658  18.603  0.00  0.00    +0.000 A 
ATOM      9  C   UNL     1       3.193   4.740  18.164  0.00  0.00    +0.000 A 
ATOM     10  N   UNL     1       4.199   3.974  18.710  0.00  0.00    +0.000 N 
ATOM     11  C   UNL     1       3.925   3.040  19.714  0.00  0.00    +0.000 A 
ATOM     12  O   UNL     1       4.807   2.301  20.152  0.00  0.00    +0.000 OA
ATOM     13  N   UNL     1       2.636   2.957  20.201  0.00  0.00    +0.000 NA
ATOM     14  H   UNL     1      -0.139   4.402  20.232  0.00  0.00    +0.000 HD
ATOM     15  H   UNL     1       0.449   3.084  21.115  0.00  0.00    +0.000 HD
ENDBRANCH   1  10
BRANCH   4  16
ATOM     16  O   UNL     1       8.159   4.211  16.564  0.00  0.00    +0.000 OA
ATOM     17  H   UNL     1       8.933   4.790  16.424  0.00  0.00    +0.000 HD
ENDBRANCH   4  16
BRANCH   5  18
ATOM     18  N   UNL     1       5.780   2.990  15.926  0.00  0.00    +0.000 NA
ATOM     19  H   UNL     1       4.834   2.615  15.765  0.00  0.00    +0.000 HD
BRANCH  18  20
ATOM     20  O   UNL     1       6.233   3.373  14.598  0.00  0.00    +0.000 OA
ATOM     21  H   UNL     1       6.416   4.329  14.712  0.00  0.00    +0.000 HD
ENDBRANCH  18  20
ENDBRANCH   5  18
BRANCH   3  22
ATOM     22  C   UNL     1       6.379   7.268  17.629  0.00  0.00    +0.000 C 
BRANCH  22  23
ATOM     23  O   UNL     1       7.364   8.201  17.188  0.00  0.00    +0.000 OA
ATOM     24  H   UNL     1       6.991   8.646  16.403  0.00  0.00    +0.000 HD
ENDBRANCH  22  23
ENDBRANCH   3  22
TORSDOF 6
ENDMDL
MODEL 8
REMARK VINA RESULT:      -6.5      2.613      5.330
REMARK  Name = 
REMARK  6 active torsions:
REMARK  status: ('A' for Active; 'I' for Inactive)
REMARK    1  A    between atoms: N_5  and  C_6
REMARK    2  A    between atoms: C_8  and  C_9
REMARK    3  A    between atoms: C_9  and  O_10
REMARK    4  A    between atoms: C_11  and  O_12
REMARK    5  A    between atoms: C_13  and  N_14
REMARK    6  A    between atoms: N_14  and  O_15
REMARK                            x       y       z     vdW  Elec       q    Type
REMARK                         _______ _______ _______ _____ _____    ______ ____
ROOT
ATOM      1  C   UNL     1       3.460   3.945  17.881  0.00  0.00    +0.000 C 
ATOM      2  O   UNL     1       2.445   4.662  18.620  0.00  0.00    +0.000 OA
ATOM      3  C   UNL     1       1.895   3.789  19.634  0.00  0.00    +0.000 C 
ATOM      4  C   UNL     1       2.446   2.393  19.391  0.00  0.00    +0.000 C 
ATOM      5  C   UNL     1       3.772   2.649  18.666  0.00  0.00    +0.000 C 
ENDROOT
BRANCH   1  10
ATOM      6  N   UNL     1       7.812   7.178  16.824  0.00  0.00    +0.000 N 
ATOM      7  C   UNL     1       6.751   6.366  17.118  0.00  0.00    +0.000 A 
ATOM      8  C   UNL     1       6.322   6.208  18.517  0.00  0.00    +0.000 A 
ATOM      9  C   UNL     1       5.265   5.423  18.714  0.00  0.00    +0.000 A 
ATOM     10  N   UNL     1       4.622   4.805  17.663  0.00  0.00    +0.000 N 
ATOM     11  C   UNL     1       5.095   4.938  16.355  0.00  0.00    +0.000 A 
ATOM     12  O   UNL     1       4.568   4.328  15.424  0.00  0.00    +0.000 OA
ATOM     13  N   UNL     1       6.174   5.768  16.126  0.00  0.00    +0.000 NA
ATOM     14  H   UNL     1       7.963   7.982  17.424  0.00  0.00    +0.000 HD
ATOM     15  H   UNL     1       7.871   7.402  15.837  0.00  0.00    +0.000 HD
ENDBRANCH   1  10
BRANCH   4  16
ATOM     16  O   UNL     1       1.512   1.667  18.574  0.00  0.00    +0.000 OA
ATOM     17  H   UNL     1       0.947   1.145  19.174  0.00  0.00    +0.000 HD
ENDBRANCH   4  16
BRANCH   5  18
ATOM     18  N   UNL     1       4.155   1.493  17.838  0.00  0.00    +0.000 NA
ATOM     19  H   UNL     1       5.064   1.672  17.385  0.00  0.00    +0.000 HD
BRANCH  18  20
ATOM     20  O   UNL     1       4.440   0.416  18.772  0.00  0.00    +0.000 OA
ATOM     21  H   UNL     1       4.354  -0.377  18.203  0.00  0.00    +0.000 HD
ENDBRANCH  18  20
ENDBRANCH   5  18
BRANCH   3  22
ATOM     22  C   UNL     1       2.298   4.337  21.003  0.00  0.00    +0.000 C 
BRANCH  22  23
ATOM     23  O   UNL     1       2.240   3.303  21.984  0.00  0.00    +0.000 OA
ATOM     24  H   UNL     1       1.297   3.069  22.084  0.00  0.00    +0.000 HD
ENDBRANCH  22  23
ENDBRANCH   3  22
TORSDOF 6
ENDMDL
MODEL 9
REMARK VINA RESULT:      -6.5      2.671      4.663
REMARK  Name = 
REMARK  6 active torsions:
REMARK  status: ('A' for Active; 'I' for Inactive)
REMARK    1  A    between atoms: N_5  and  C_6
REMARK    2  A    between atoms: C_8  and  C_9
REMARK    3  A    between atoms: C_9  and  O_10
REMARK    4  A    between atoms: C_11  and  O_12
REMARK    5  A    between atoms: C_13  and  N_14
REMARK    6  A    between atoms: N_14  and  O_15
REMARK                            x       y       z     vdW  Elec       q    Type
REMARK                         _______ _______ _______ _____ _____    ______ ____
ROOT
ATOM      1  C   UNL     1       3.379   4.240  18.444  0.00  0.00    +0.000 C 
ATOM      2  O   UNL     1       2.181   3.505  18.783  0.00  0.00    +0.000 OA
ATOM      3  C   UNL     1       2.510   2.490  19.760  0.00  0.00    +0.000 C 
ATOM      4  C   UNL     1       4.025   2.449  19.891  0.00  0.00    +0.000 C 
ATOM      5  C   UNL     1       4.461   3.860  19.484  0.00  0.00    +0.000 C 
ENDROOT
BRANCH   1  10
ATOM      6  N   UNL     1       2.394   9.657  18.000  0.00  0.00    +0.000 N 
ATOM      7  C   UNL     1       2.637   8.319  18.148  0.00  0.00    +0.000 A 
ATOM      8  C   UNL     1       1.982   7.577  19.238  0.00  0.00    +0.000 A 
ATOM      9  C   UNL     1       2.250   6.274  19.294  0.00  0.00    +0.000 A 
ATOM     10  N   UNL     1       3.088   5.671  18.382  0.00  0.00    +0.000 N 
ATOM     11  C   UNL     1       3.732   6.421  17.394  0.00  0.00    +0.000 A 
ATOM     12  O   UNL     1       4.539   5.900  16.625  0.00  0.00    +0.000 OA
ATOM     13  N   UNL     1       3.449   7.769  17.303  0.00  0.00    +0.000 NA
ATOM     14  H   UNL     1       1.479   9.997  18.276  0.00  0.00    +0.000 HD
ATOM     15  H   UNL     1       2.694  10.011  17.098  0.00  0.00    +0.000 HD
ENDBRANCH   1  10
BRANCH   4  16
ATOM     16  O   UNL     1       4.537   1.444  18.999  0.00  0.00    +0.000 OA
ATOM     17  H   UNL     1       4.554   1.832  18.104  0.00  0.00    +0.000 HD
ENDBRANCH   4  16
BRANCH   5  18
ATOM     18  N   UNL     1       5.844   3.862  18.976  0.00  0.00    +0.000 NA
ATOM     19  H   UNL     1       6.354   3.046  19.346  0.00  0.00    +0.000 HD
BRANCH  18  20
ATOM     20  O   UNL     1       5.740   3.587  17.551  0.00  0.00    +0.000 OA
ATOM     21  H   UNL     1       5.752   4.489  17.168  0.00  0.00    +0.000 HD
ENDBRANCH  18  20
ENDBRANCH   5  18
BRANCH   3  22
ATOM     22  C   UNL     1       1.827   2.856  21.076  0.00  0.00    +0.000 C 
BRANCH  22  23
ATOM     23  O   UNL     1       2.651   2.482  22.180  0.00  0.00    +0.000 OA
ATOM     24  H   UNL     1       2.048   2.303  22.927  0.00  0.00    +0.000 HD
ENDBRANCH  22  23
ENDBRANCH   3  22
TORSDOF 6
ENDMDL
