MODEL 1
REMARK VINA RESULT:      -8.3      0.000      0.000
REMARK  Name = 
REMARK  4 active torsions:
REMARK  status: ('A' for Active; 'I' for Inactive)
REMARK    1  A    between atoms: C_2  and  C_18
REMARK    2  A    between atoms: N_3  and  C_4
REMARK    3  A    between atoms: C_4  and  C_5
REMARK    4  A    between atoms: C_5  and  C_6
REMARK                            x       y       z     vdW  Elec       q    Type
REMARK                         _______ _______ _______ _____ _____    ______ ____
ROOT
ATOM      1  C   UNL     1       3.548   5.246  20.125  0.00  0.00    +0.000 C 
ENDROOT
BRANCH   1   2
ATOM      2  C   UNL     1       2.191   5.524  19.384  0.00  0.00    +0.000 C 
ATOM      3  C   UNL     1       2.194   4.870  17.966  0.00  0.00    +0.000 C 
ATOM      4  C   UNL     1       2.185   3.339  17.968  0.00  0.00    +0.000 C 
ATOM      5  C   UNL     1       1.059   2.763  18.815  0.00  0.00    +0.000 C 
ATOM      6  C   UNL     1       1.047   3.350  20.217  0.00  0.00    +0.000 C 
ATOM      7  C   UNL     1       1.009   4.875  20.170  0.00  0.00    +0.000 C 
BRANCH   2   8
ATOM      8  C   UNL     1       2.005   7.049  19.197  0.00  0.00    +0.000 A 
ATOM      9  C   UNL     1       2.292   7.673  17.969  0.00  0.00    +0.000 A 
ATOM     10  C   UNL     1       2.068   9.040  17.797  0.00  0.00    +0.000 A 
ATOM     11  C   UNL     1       1.569   9.754  18.868  0.00  0.00    +0.000 A 
ATOM     12 CL   UNL     1       1.235  11.430  18.738  0.00  0.00    +0.000 Cl
ATOM     13  N   UNL     1       1.298   9.217  20.070  0.00  0.00    +0.000 NA
ATOM     14  C   UNL     1       1.520   7.888  20.203  0.00  0.00    +0.000 A 
ENDBRANCH   2   8
ENDBRANCH   1   2
BRANCH   1  17
ATOM     15  O   UNL     1       5.322   3.044  19.767  0.00  0.00    +0.000 OA
ATOM     16  C   UNL     1       5.535   4.076  19.145  0.00  0.00    +0.000 C 
ATOM     17  N   UNL     1       4.695   5.174  19.226  0.00  0.00    +0.000 N 
ATOM     18  H   UNL     1       4.944   5.997  18.689  0.00  0.00    +0.000 HD
BRANCH  16  19
ATOM     19  C   UNL     1       6.704   4.250  18.146  0.00  0.00    +0.000 C 
ATOM     20  C   UNL     1       7.771   5.259  18.643  0.00  0.00    +0.000 C 
ATOM     21  C   UNL     1       7.309   6.723  18.499  0.00  0.00    +0.000 C 
ATOM     22  C   UNL     1       7.037   7.101  17.034  0.00  0.00    +0.000 C 
ATOM     23  C   UNL     1       6.329   6.005  16.310  0.00  0.00    +0.000 A 
ATOM     24  N   UNL     1       5.829   6.204  15.040  0.00  0.00    +0.000 NA
ATOM     25  C   UNL     1       5.363   5.064  14.577  0.00  0.00    +0.000 A 
ATOM     26  S   UNL     1       5.507   3.707  15.618  0.00  0.00    +0.000 S 
ATOM     27  C   UNL     1       6.205   4.719  16.804  0.00  0.00    +0.000 A 
ENDBRANCH  16  19
ENDBRANCH   1  17
TORSDOF 4
ENDMDL
MODEL 2
REMARK VINA RESULT:      -8.0      2.157      5.066
REMARK  Name = 
REMARK  4 active torsions:
REMARK  status: ('A' for Active; 'I' for Inactive)
REMARK    1  A    between atoms: C_2  and  C_18
REMARK    2  A    between atoms: N_3  and  C_4
REMARK    3  A    between atoms: C_4  and  C_5
REMARK    4  A    between atoms: C_5  and  C_6
REMARK                            x       y       z     vdW  Elec       q    Type
REMARK                         _______ _______ _______ _____ _____    ______ ____
ROOT
ATOM      1  C   UNL     1       3.970   5.129  16.879  0.00  0.00    +0.000 C 
ENDROOT
BRANCH   1   2
ATOM      2  C   UNL     1       4.540   6.304  17.751  0.00  0.00    +0.000 C 
ATOM      3  C   UNL     1       5.170   5.756  19.070  0.00  0.00    +0.000 C 
ATOM      4  C   UNL     1       6.445   4.930  18.875  0.00  0.00    +0.000 C 
ATOM      5  C   UNL     1       7.495   5.663  18.050  0.00  0.00    +0.000 C 
ATOM      6  C   UNL     1       6.925   6.180  16.739  0.00  0.00    +0.000 C 
ATOM      7  C   UNL     1       5.684   7.036  16.982  0.00  0.00    +0.000 C 
BRANCH   2   8
ATOM      8  C   UNL     1       3.390   7.263  18.145  0.00  0.00    +0.000 A 
ATOM      9  C   UNL     1       2.693   7.106  19.357  0.00  0.00    +0.000 A 
ATOM     10  C   UNL     1       1.696   8.011  19.725  0.00  0.00    +0.000 A 
ATOM     11  C   UNL     1       1.412   9.049  18.860  0.00  0.00    +0.000 A 
ATOM     12 CL   UNL     1       0.223  10.223  19.242  0.00  0.00    +0.000 Cl
ATOM     13  N   UNL     1       2.027   9.235  17.679  0.00  0.00    +0.000 NA
ATOM     14  C   UNL     1       2.995   8.345  17.355  0.00  0.00    +0.000 A 
ENDBRANCH   2   8
ENDBRANCH   1   2
BRANCH   1  17
ATOM     15  O   UNL     1       1.229   4.383  17.122  0.00  0.00    +0.000 OA
ATOM     16  C   UNL     1       2.064   3.765  17.769  0.00  0.00    +0.000 C 
ATOM     17  N   UNL     1       3.419   4.033  17.672  0.00  0.00    +0.000 N 
ATOM     18  H   UNL     1       4.049   3.486  18.248  0.00  0.00    +0.000 HD
BRANCH  16  19
ATOM     19  C   UNL     1       1.722   2.575  18.698  0.00  0.00    +0.000 C 
ATOM     20  C   UNL     1       0.584   2.905  19.697  0.00  0.00    +0.000 C 
ATOM     21  C   UNL     1       1.061   3.796  20.862  0.00  0.00    +0.000 C 
ATOM     22  C   UNL     1       2.157   3.116  21.697  0.00  0.00    +0.000 C 
ATOM     23  C   UNL     1       3.141   2.403  20.830  0.00  0.00    +0.000 A 
ATOM     24  N   UNL     1       4.302   1.880  21.361  0.00  0.00    +0.000 NA
ATOM     25  C   UNL     1       4.935   1.204  20.427  0.00  0.00    +0.000 A 
ATOM     26  S   UNL     1       4.181   1.148  18.887  0.00  0.00    +0.000 S 
ATOM     27  C   UNL     1       2.929   2.141  19.489  0.00  0.00    +0.000 A 
ENDBRANCH  16  19
ENDBRANCH   1  17
TORSDOF 4
ENDMDL
MODEL 3
REMARK VINA RESULT:      -7.6      3.302      6.542
REMARK  Name = 
REMARK  4 active torsions:
REMARK  status: ('A' for Active; 'I' for Inactive)
REMARK    1  A    between atoms: C_2  and  C_18
REMARK    2  A    between atoms: N_3  and  C_4
REMARK    3  A    between atoms: C_4  and  C_5
REMARK    4  A    between atoms: C_5  and  C_6
REMARK                            x       y       z     vdW  Elec       q    Type
REMARK                         _______ _______ _______ _____ _____    ______ ____
ROOT
ATOM      1  C   UNL     1       4.911   6.447  17.177  0.00  0.00    +0.000 C 
ENDROOT
BRANCH   1   2
ATOM      2  C   UNL     1       6.279   5.750  16.843  0.00  0.00    +0.000 C 
ATOM      3  C   UNL     1       7.429   6.803  16.761  0.00  0.00    +0.000 C 
ATOM      4  C   UNL     1       7.787   7.463  18.096  0.00  0.00    +0.000 C 
ATOM      5  C   UNL     1       8.078   6.445  19.190  0.00  0.00    +0.000 C 
ATOM      6  C   UNL     1       6.960   5.423  19.324  0.00  0.00    +0.000 C 
ATOM      7  C   UNL     1       6.666   4.756  17.982  0.00  0.00    +0.000 C 
BRANCH   2   8
ATOM      8  C   UNL     1       6.182   5.054  15.463  0.00  0.00    +0.000 A 
ATOM      9  C   UNL     1       7.251   5.096  14.550  0.00  0.00    +0.000 A 
ATOM     10  C   UNL     1       7.172   4.417  13.332  0.00  0.00    +0.000 A 
ATOM     11  C   UNL     1       6.014   3.719  13.054  0.00  0.00    +0.000 A 
ATOM     12 CL   UNL     1       5.840   2.833  11.598  0.00  0.00    +0.000 Cl
ATOM     13  N   UNL     1       4.953   3.662  13.877  0.00  0.00    +0.000 NA
ATOM     14  C   UNL     1       5.063   4.324  15.053  0.00  0.00    +0.000 A 
ENDBRANCH   2   8
ENDBRANCH   1   2
BRANCH   1  17
ATOM     15  O   UNL     1       2.347   7.106  18.232  0.00  0.00    +0.000 OA
ATOM     16  C   UNL     1       2.686   5.931  18.207  0.00  0.00    +0.000 C 
ATOM     17  N   UNL     1       3.894   5.522  17.668  0.00  0.00    +0.000 N 
ATOM     18  H   UNL     1       4.110   4.532  17.694  0.00  0.00    +0.000 HD
BRANCH  16  19
ATOM     19  C   UNL     1       1.787   4.768  18.693  0.00  0.00    +0.000 C 
ATOM     20  C   UNL     1       1.214   5.009  20.113  0.00  0.00    +0.000 C 
ATOM     21  C   UNL     1       2.264   4.782  21.219  0.00  0.00    +0.000 C 
ATOM     22  C   UNL     1       2.790   3.338  21.227  0.00  0.00    +0.000 C 
ATOM     23  C   UNL     1       3.022   2.833  19.842  0.00  0.00    +0.000 A 
ATOM     24  N   UNL     1       3.662   1.630  19.626  0.00  0.00    +0.000 NA
ATOM     25  C   UNL     1       3.635   1.354  18.340  0.00  0.00    +0.000 A 
ATOM     26  S   UNL     1       2.843   2.497  17.334  0.00  0.00    +0.000 S 
ATOM     27  C   UNL     1       2.547   3.467  18.709  0.00  0.00    +0.000 A 
ENDBRANCH  16  19
ENDBRANCH   1  17
TORSDOF 4
ENDMDL
MODEL 4
REMARK VINA RESULT:      -7.5      3.109      6.023
REMARK  Name = 
REMARK  4 active torsions:
REMARK  status: ('A' for Active; 'I' for Inactive)
REMARK    1  A    between atoms: C_2  and  C_18
REMARK    2  A    between atoms: N_3  and  C_4
REMARK    3  A    between atoms: C_4  and  C_5
REMARK    4  A    between atoms: C_5  and  C_6
REMARK                            x       y       z     vdW  Elec       q    Type
REMARK                         _______ _______ _______ _____ _____    ______ ____
ROOT
ATOM      1  C   UNL     1       2.633   4.941  20.418  0.00  0.00    +0.000 C 
ENDROOT
BRANCH   1   2
ATOM      2  C   UNL     1       3.113   4.419  19.017  0.00  0.00    +0.000 C 
ATOM      3  C   UNL     1       3.572   2.930  19.111  0.00  0.00    +0.000 C 
ATOM      4  C   UNL     1       2.447   1.930  19.394  0.00  0.00    +0.000 C 
ATOM      5  C   UNL     1       1.287   2.066  18.417  0.00  0.00    +0.000 C 
ATOM      6  C   UNL     1       0.788   3.499  18.326  0.00  0.00    +0.000 C 
ATOM      7  C   UNL     1       1.932   4.456  17.997  0.00  0.00    +0.000 C 
BRANCH   2   8
ATOM      8  C   UNL     1       4.326   5.254  18.540  0.00  0.00    +0.000 A 
ATOM      9  C   UNL     1       4.207   6.177  17.486  0.00  0.00    +0.000 A 
ATOM     10  C   UNL     1       5.296   6.963  17.103  0.00  0.00    +0.000 A 
ATOM     11  C   UNL     1       6.485   6.796  17.783  0.00  0.00    +0.000 A 
ATOM     12 CL   UNL     1       7.865   7.738  17.401  0.00  0.00    +0.000 Cl
ATOM     13  N   UNL     1       6.665   5.914  18.781  0.00  0.00    +0.000 NA
ATOM     14  C   UNL     1       5.589   5.172  19.134  0.00  0.00    +0.000 A 
ENDBRANCH   2   8
ENDBRANCH   1   2
BRANCH   1  17
ATOM     15  O   UNL     1       0.398   6.627  20.958  0.00  0.00    +0.000 OA
ATOM     16  C   UNL     1       1.486   7.145  20.747  0.00  0.00    +0.000 C 
ATOM     17  N   UNL     1       2.630   6.397  20.524  0.00  0.00    +0.000 N 
ATOM     18  H   UNL     1       3.492   6.898  20.345  0.00  0.00    +0.000 HD
BRANCH  16  19
ATOM     19  C   UNL     1       1.730   8.673  20.784  0.00  0.00    +0.000 C 
ATOM     20  C   UNL     1       1.643   9.258  22.216  0.00  0.00    +0.000 C 
ATOM     21  C   UNL     1       0.189   9.386  22.714  0.00  0.00    +0.000 C 
ATOM     22  C   UNL     1      -0.642  10.332  21.832  0.00  0.00    +0.000 C 
ATOM     23  C   UNL     1      -0.348  10.127  20.383  0.00  0.00    +0.000 A 
ATOM     24  N   UNL     1      -1.111  10.742  19.413  0.00  0.00    +0.000 NA
ATOM     25  C   UNL     1      -0.581  10.503  18.233  0.00  0.00    +0.000 A 
ATOM     26  S   UNL     1       0.846   9.551  18.221  0.00  0.00    +0.000 S 
ATOM     27  C   UNL     1       0.734   9.401  19.919  0.00  0.00    +0.000 A 
ENDBRANCH  16  19
ENDBRANCH   1  17
TORSDOF 4
ENDMDL
MODEL 5
REMARK VINA RESULT:      -7.5      3.594      6.450
REMARK  Name = 
REMARK  4 active torsions:
REMARK  status: ('A' for Active; 'I' for Inactive)
REMARK    1  A    between atoms: C_2  and  C_18
REMARK    2  A    between atoms: N_3  and  C_4
REMARK    3  A    between atoms: C_4  and  C_5
REMARK    4  A    between atoms: C_5  and  C_6
REMARK                            x       y       z     vdW  Elec       q    Type
REMARK                         _______ _______ _______ _____ _____    ______ ____
ROOT
ATOM      1  C   UNL     1       3.097   6.072  19.882  0.00  0.00    +0.000 C 
ENDROOT
BRANCH   1   2
ATOM      2  C   UNL     1       3.035   4.728  19.073  0.00  0.00    +0.000 C 
ATOM      3  C   UNL     1       3.576   3.542  19.932  0.00  0.00    +0.000 C 
ATOM      4  C   UNL     1       2.701   3.168  21.131  0.00  0.00    +0.000 C 
ATOM      5  C   UNL     1       1.250   2.920  20.739  0.00  0.00    +0.000 C 
ATOM      6  C   UNL     1       0.677   4.073  19.931  0.00  0.00    +0.000 C 
ATOM      7  C   UNL     1       1.554   4.381  18.721  0.00  0.00    +0.000 C 
BRANCH   2   8
ATOM      8  C   UNL     1       3.928   4.839  17.813  0.00  0.00    +0.000 A 
ATOM      9  C   UNL     1       4.280   6.091  17.278  0.00  0.00    +0.000 A 
ATOM     10  C   UNL     1       5.131   6.179  16.174  0.00  0.00    +0.000 A 
ATOM     11  C   UNL     1       5.601   5.003  15.625  0.00  0.00    +0.000 A 
ATOM     12 CL   UNL     1       6.673   5.014  14.288  0.00  0.00    +0.000 Cl
ATOM     13  N   UNL     1       5.281   3.779  16.078  0.00  0.00    +0.000 NA
ATOM     14  C   UNL     1       4.460   3.728  17.154  0.00  0.00    +0.000 A 
ENDBRANCH   2   8
ENDBRANCH   1   2
BRANCH   1  17
ATOM     15  O   UNL     1       1.904   8.197  21.360  0.00  0.00    +0.000 OA
ATOM     16  C   UNL     1       1.613   8.070  20.179  0.00  0.00    +0.000 C 
ATOM     17  N   UNL     1       2.184   7.094  19.379  0.00  0.00    +0.000 N 
ATOM     18  H   UNL     1       1.885   7.044  18.412  0.00  0.00    +0.000 HD
BRANCH  16  19
ATOM     19  C   UNL     1       0.650   9.018  19.425  0.00  0.00    +0.000 C 
ATOM     20  C   UNL     1       1.106   9.300  17.970  0.00  0.00    +0.000 C 
ATOM     21  C   UNL     1       2.284  10.293  17.902  0.00  0.00    +0.000 C 
ATOM     22  C   UNL     1       1.916  11.665  18.491  0.00  0.00    +0.000 C 
ATOM     23  C   UNL     1       1.108  11.525  19.738  0.00  0.00    +0.000 A 
ATOM     24  N   UNL     1       0.826  12.622  20.525  0.00  0.00    +0.000 NA
ATOM     25  C   UNL     1       0.007  12.262  21.489  0.00  0.00    +0.000 A 
ATOM     26  S   UNL     1      -0.474  10.615  21.500  0.00  0.00    +0.000 S 
ATOM     27  C   UNL     1       0.521  10.339  20.139  0.00  0.00    +0.000 A 
ENDBRANCH  16  19
ENDBRANCH   1  17
TORSDOF 4
ENDMDL
MODEL 6
REMARK VINA RESULT:      -7.4      3.301      6.281
REMARK  Name = 
REMARK  4 active torsions:
REMARK  status: ('A' for Active; 'I' for Inactive)
REMARK    1  A    between atoms: C_2  and  C_18
REMARK    2  A    between atoms: N_3  and  C_4
REMARK    3  A    between atoms: C_4  and  C_5
REMARK    4  A    between atoms: C_5  and  C_6
REMARK                            x       y       z     vdW  Elec       q    Type
REMARK                         _______ _______ _______ _____ _____    ______ ____
ROOT
ATOM      1  C   UNL     1       3.310   5.719  20.227  0.00  0.00    +0.000 C 
ENDROOT
BRANCH   1   2
ATOM      2  C   UNL     1       3.227   4.379  19.413  0.00  0.00    +0.000 C 
ATOM      3  C   UNL     1       3.600   3.161  20.316  0.00  0.00    +0.000 C 
ATOM      4  C   UNL     1       2.592   2.858  21.428  0.00  0.00    +0.000 C 
ATOM      5  C   UNL     1       1.170   2.712  20.902  0.00  0.00    +0.000 C 
ATOM      6  C   UNL     1       0.759   3.899  20.046  0.00  0.00    +0.000 C 
ATOM      7  C   UNL     1       1.765   4.138  18.923  0.00  0.00    +0.000 C 
BRANCH   2   8
ATOM      8  C   UNL     1       4.240   4.420  18.242  0.00  0.00    +0.000 A 
ATOM      9  C   UNL     1       3.877   4.000  16.950  0.00  0.00    +0.000 A 
ATOM     10  C   UNL     1       4.782   4.094  15.891  0.00  0.00    +0.000 A 
ATOM     11  C   UNL     1       6.039   4.600  16.158  0.00  0.00    +0.000 A 
ATOM     12 CL   UNL     1       7.205   4.780  14.915  0.00  0.00    +0.000 Cl
ATOM     13  N   UNL     1       6.449   4.995  17.375  0.00  0.00    +0.000 NA
ATOM     14  C   UNL     1       5.545   4.898  18.379  0.00  0.00    +0.000 A 
ENDBRANCH   2   8
ENDBRANCH   1   2
BRANCH   1  17
ATOM     15  O   UNL     1       3.289   7.795  18.273  0.00  0.00    +0.000 OA
ATOM     16  C   UNL     1       2.309   7.657  18.991  0.00  0.00    +0.000 C 
ATOM     17  N   UNL     1       2.220   6.645  19.932  0.00  0.00    +0.000 N 
ATOM     18  H   UNL     1       1.380   6.602  20.499  0.00  0.00    +0.000 HD
BRANCH  16  19
ATOM     19  C   UNL     1       1.036   8.531  18.884  0.00  0.00    +0.000 C 
ATOM     20  C   UNL     1       1.122   9.573  17.740  0.00  0.00    +0.000 C 
ATOM     21  C   UNL     1       2.026  10.770  18.097  0.00  0.00    +0.000 C 
ATOM     22  C   UNL     1       1.503  11.543  19.319  0.00  0.00    +0.000 C 
ATOM     23  C   UNL     1       1.009  10.617  20.380  0.00  0.00    +0.000 A 
ATOM     24  N   UNL     1       0.665  11.093  21.629  0.00  0.00    +0.000 NA
ATOM     25  C   UNL     1       0.150  10.111  22.336  0.00  0.00    +0.000 A 
ATOM     26  S   UNL     1       0.040   8.588  21.553  0.00  0.00    +0.000 S 
ATOM     27  C   UNL     1       0.777   9.270  20.171  0.00  0.00    +0.000 A 
ENDBRANCH  16  19
ENDBRANCH   1  17
TORSDOF 4
ENDMDL
MODEL 7
REMARK VINA RESULT:      -7.4      3.273      6.751
REMARK  Name = 
REMARK  4 active torsions:
REMARK  status: ('A' for Active; 'I' for Inactive)
REMARK    1  A    between atoms: C_2  and  C_18
REMARK    2  A    between atoms: N_3  and  C_4
REMARK    3  A    between atoms: C_4  and  C_5
REMARK    4  A    between atoms: C_5  and  C_6
REMARK                            x       y       z     vdW  Elec       q    Type
REMARK                         _______ _______ _______ _____ _____    ______ ____
ROOT
ATOM      1  C   UNL     1       3.987   7.404  17.245  0.00  0.00    +0.000 C 
ENDROOT
BRANCH   1   2
ATOM      2  C   UNL     1       4.517   5.954  17.532  0.00  0.00    +0.000 C 
ATOM      3  C   UNL     1       4.666   5.148  16.203  0.00  0.00    +0.000 C 
ATOM      4  C   UNL     1       5.769   5.653  15.269  0.00  0.00    +0.000 C 
ATOM      5  C   UNL     1       7.116   5.773  15.969  0.00  0.00    +0.000 C 
ATOM      6  C   UNL     1       7.017   6.584  17.251  0.00  0.00    +0.000 C 
ATOM      7  C   UNL     1       5.939   6.020  18.173  0.00  0.00    +0.000 C 
BRANCH   2   8
ATOM      8  C   UNL     1       3.504   5.199  18.426  0.00  0.00    +0.000 A 
ATOM      9  C   UNL     1       2.456   4.447  17.866  0.00  0.00    +0.000 A 
ATOM     10  C   UNL     1       1.582   3.726  18.682  0.00  0.00    +0.000 A 
ATOM     11  C   UNL     1       1.776   3.786  20.048  0.00  0.00    +0.000 A 
ATOM     12 CL   UNL     1       0.771   2.910  21.125  0.00  0.00    +0.000 Cl
ATOM     13  N   UNL     1       2.744   4.505  20.641  0.00  0.00    +0.000 NA
ATOM     14  C   UNL     1       3.579   5.187  19.821  0.00  0.00    +0.000 A 
ENDBRANCH   2   8
ENDBRANCH   1   2
BRANCH   1  17
ATOM     15  O   UNL     1       2.650   9.917  17.406  0.00  0.00    +0.000 OA
ATOM     16  C   UNL     1       2.125   8.939  17.922  0.00  0.00    +0.000 C 
ATOM     17  N   UNL     1       2.685   7.675  17.848  0.00  0.00    +0.000 N 
ATOM     18  H   UNL     1       2.197   6.917  18.310  0.00  0.00    +0.000 HD
BRANCH  16  19
ATOM     19  C   UNL     1       0.754   8.980  18.639  0.00  0.00    +0.000 C 
ATOM     20  C   UNL     1      -0.182  10.081  18.078  0.00  0.00    +0.000 C 
ATOM     21  C   UNL     1       0.214  11.493  18.556  0.00  0.00    +0.000 C 
ATOM     22  C   UNL     1       0.135  11.626  20.085  0.00  0.00    +0.000 C 
ATOM     23  C   UNL     1       0.671  10.412  20.768  0.00  0.00    +0.000 A 
ATOM     24  N   UNL     1       0.861  10.396  22.134  0.00  0.00    +0.000 NA
ATOM     25  C   UNL     1       1.223   9.186  22.504  0.00  0.00    +0.000 A 
ATOM     26  S   UNL     1       1.342   8.015  21.255  0.00  0.00    +0.000 S 
ATOM     27  C   UNL     1       0.923   9.219  20.117  0.00  0.00    +0.000 A 
ENDBRANCH  16  19
ENDBRANCH   1  17
TORSDOF 4
ENDMDL
MODEL 8
REMARK VINA RESULT:      -7.4      1.002      1.042
REMARK  Name = 
REMARK  4 active torsions:
REMARK  status: ('A' for Active; 'I' for Inactive)
REMARK    1  A    between atoms: C_2  and  C_18
REMARK    2  A    between atoms: N_3  and  C_4
REMARK    3  A    between atoms: C_4  and  C_5
REMARK    4  A    between atoms: C_5  and  C_6
REMARK                            x       y       z     vdW  Elec       q    Type
REMARK                         _______ _______ _______ _____ _____    ______ ____
ROOT
ATOM      1  C   UNL     1       3.343   4.168  20.297  0.00  0.00    +0.000 C 
ENDROOT
BRANCH   1   2
ATOM      2  C   UNL     1       2.097   4.556  19.425  0.00  0.00    +0.000 C 
ATOM      3  C   UNL     1       2.219   3.954  17.990  0.00  0.00    +0.000 C 
ATOM      4  C   UNL     1       2.120   2.427  17.926  0.00  0.00    +0.000 C 
ATOM      5  C   UNL     1       0.874   1.894  18.620  0.00  0.00    +0.000 C 
ATOM      6  C   UNL     1       0.741   2.432  20.036  0.00  0.00    +0.000 C 
ATOM      7  C   UNL     1       0.798   3.957  20.049  0.00  0.00    +0.000 C 
BRANCH   2   8
ATOM      8  C   UNL     1       2.023   6.096  19.282  0.00  0.00    +0.000 A 
ATOM      9  C   UNL     1       2.274   6.727  18.050  0.00  0.00    +0.000 A 
ATOM     10  C   UNL     1       2.151   8.111  17.922  0.00  0.00    +0.000 A 
ATOM     11  C   UNL     1       1.787   8.835  19.040  0.00  0.00    +0.000 A 
ATOM     12 CL   UNL     1       1.583  10.535  18.969  0.00  0.00    +0.000 Cl
ATOM     13  N   UNL     1       1.558   8.291  20.247  0.00  0.00    +0.000 NA
ATOM     14  C   UNL     1       1.679   6.945  20.337  0.00  0.00    +0.000 A 
ENDBRANCH   2   8
ENDBRANCH   1   2
BRANCH   1  17
ATOM     15  O   UNL     1       5.277   6.197  19.778  0.00  0.00    +0.000 OA
ATOM     16  C   UNL     1       5.441   5.090  19.282  0.00  0.00    +0.000 C 
ATOM     17  N   UNL     1       4.575   4.038  19.524  0.00  0.00    +0.000 N 
ATOM     18  H   UNL     1       4.770   3.154  19.068  0.00  0.00    +0.000 HD
BRANCH  16  19
ATOM     19  C   UNL     1       6.660   4.715  18.406  0.00  0.00    +0.000 C 
ATOM     20  C   UNL     1       7.905   5.588  18.707  0.00  0.00    +0.000 C 
ATOM     21  C   UNL     1       7.792   7.004  18.105  0.00  0.00    +0.000 C 
ATOM     22  C   UNL     1       7.673   6.972  16.573  0.00  0.00    +0.000 C 
ATOM     23  C   UNL     1       6.767   5.876  16.119  0.00  0.00    +0.000 A 
ATOM     24  N   UNL     1       6.378   5.782  14.799  0.00  0.00    +0.000 NA
ATOM     25  C   UNL     1       5.687   4.675  14.631  0.00  0.00    +0.000 A 
ATOM     26  S   UNL     1       5.478   3.694  16.023  0.00  0.00    +0.000 S 
ATOM     27  C   UNL     1       6.336   4.851  16.941  0.00  0.00    +0.000 A 
ENDBRANCH  16  19
ENDBRANCH   1  17
TORSDOF 4
ENDMDL
MODEL 9
REMARK VINA RESULT:      -7.2      3.498      6.482
REMARK  Name = 
REMARK  4 active torsions:
REMARK  status: ('A' for Active; 'I' for Inactive)
REMARK    1  A    between atoms: C_2  and  C_18
REMARK    2  A    between atoms: N_3  and  C_4
REMARK    3  A    between atoms: C_4  and  C_5
REMARK    4  A    between atoms: C_5  and  C_6
REMARK                            x       y       z     vdW  Elec       q    Type
REMARK                         _______ _______ _______ _____ _____    ______ ____
ROOT
ATOM      1  C   UNL     1       3.578   6.121  19.300  0.00  0.00    +0.000 C 
ENDROOT
BRANCH   1   2
ATOM      2  C   UNL     1       3.489   4.786  18.477  0.00  0.00    +0.000 C 
ATOM      3  C   UNL     1       3.894   3.565  19.362  0.00  0.00    +0.000 C 
ATOM      4  C   UNL     1       2.915   3.243  20.495  0.00  0.00    +0.000 C 
ATOM      5  C   UNL     1       1.483   3.087  20.001  0.00  0.00    +0.000 C 
ATOM      6  C   UNL     1       1.040   4.277  19.164  0.00  0.00    +0.000 C 
ATOM      7  C   UNL     1       2.018   4.534  18.020  0.00  0.00    +0.000 C 
BRANCH   2   8
ATOM      8  C   UNL     1       4.473   4.846  17.284  0.00  0.00    +0.000 A 
ATOM      9  C   UNL     1       4.996   3.672  16.711  0.00  0.00    +0.000 A 
ATOM     10  C   UNL     1       5.839   3.739  15.600  0.00  0.00    +0.000 A 
ATOM     11  C   UNL     1       6.146   4.986  15.094  0.00  0.00    +0.000 A 
ATOM     12 CL   UNL     1       7.149   5.162  13.716  0.00  0.00    +0.000 Cl
ATOM     13  N   UNL     1       5.696   6.141  15.613  0.00  0.00    +0.000 NA
ATOM     14  C   UNL     1       4.875   6.043  16.686  0.00  0.00    +0.000 A 
ENDBRANCH   2   8
ENDBRANCH   1   2
BRANCH   1  17
ATOM     15  O   UNL     1       2.104   7.835  21.037  0.00  0.00    +0.000 OA
ATOM     16  C   UNL     1       1.863   7.868  19.838  0.00  0.00    +0.000 C 
ATOM     17  N   UNL     1       2.566   7.103  18.922  0.00  0.00    +0.000 N 
ATOM     18  H   UNL     1       2.301   7.176  17.946  0.00  0.00    +0.000 HD
BRANCH  16  19
ATOM     19  C   UNL     1       0.817   8.812  19.199  0.00  0.00    +0.000 C 
ATOM     20  C   UNL     1       1.245   9.319  17.798  0.00  0.00    +0.000 C 
ATOM     21  C   UNL     1       2.326  10.417  17.872  0.00  0.00    +0.000 C 
ATOM     22  C   UNL     1       1.832  11.661  18.626  0.00  0.00    +0.000 C 
ATOM     23  C   UNL     1       1.040  11.289  19.835  0.00  0.00    +0.000 A 
ATOM     24  N   UNL     1       0.657  12.246  20.751  0.00  0.00    +0.000 NA
ATOM     25  C   UNL     1      -0.126  11.692  21.651  0.00  0.00    +0.000 A 
ATOM     26  S   UNL     1      -0.452  10.020  21.446  0.00  0.00    +0.000 S 
ATOM     27  C   UNL     1       0.565  10.013  20.073  0.00  0.00    +0.000 A 
ENDBRANCH  16  19
ENDBRANCH   1  17
TORSDOF 4
ENDMDL
