MODEL 1
REMARK VINA RESULT:      -7.3      0.000      0.000
REMARK  Name = 
REMARK  5 active torsions:
REMARK  status: ('A' for Active; 'I' for Inactive)
REMARK    1  A    between atoms: C_2  and  C_3
REMARK    2  A    between atoms: C_3  and  C_4
REMARK    3  A    between atoms: C_4  and  C_5
REMARK    4  A    between atoms: C_5  and  N_6
REMARK    5  A    between atoms: N_16  and  C_17
REMARK                            x       y       z     vdW  Elec       q    Type
REMARK                         _______ _______ _______ _____ _____    ______ ____
ROOT
ATOM      1  C   UNL     1       2.813   2.520  20.798  0.00  0.00    +0.000 C 
ENDROOT
BRANCH   1   2
ATOM      2  C   UNL     1       2.592   3.826  21.554  0.00  0.00    +0.000 C 
BRANCH   2   4
ATOM      3  O   UNL     1       0.772   4.656  20.270  0.00  0.00    +0.000 OA
ATOM      4  C   UNL     1       1.903   4.873  20.698  0.00  0.00    +0.000 C 
ATOM      5  N   UNL     1       2.650   6.018  20.468  0.00  0.00    +0.000 N 
ATOM      6  H   UNL     1       3.649   5.964  20.640  0.00  0.00    +0.000 HD
BRANCH   5   7
ATOM      7  C   UNL     1       2.196   7.152  19.748  0.00  0.00    +0.000 A 
ATOM      8  C   UNL     1       2.458   7.354  18.392  0.00  0.00    +0.000 A 
ATOM      9  C   UNL     1       2.087   8.549  17.776  0.00  0.00    +0.000 A 
ATOM     10  C   UNL     1       1.432   9.503  18.531  0.00  0.00    +0.000 A 
ATOM     11  N   UNL     1       1.080   9.317  19.821  0.00  0.00    +0.000 NA
ATOM     12  C   UNL     1       1.460   8.144  20.392  0.00  0.00    +0.000 A 
ENDBRANCH   5   7
ENDBRANCH   2   4
ENDBRANCH   1   2
BRANCH   1  13
ATOM     13  C   UNL     1       4.176   2.538  20.103  0.00  0.00    +0.000 C 
BRANCH  13  14
ATOM     14  N   UNL     1       4.123   3.125  18.788  0.00  0.00    +0.000 N 
ATOM     15  C   UNL     1       3.346   2.689  17.738  0.00  0.00    +0.000 A 
ATOM     16  O   UNL     1       2.562   1.751  17.766  0.00  0.00    +0.000 OA
ATOM     17  O   UNL     1       3.565   3.471  16.590  0.00  0.00    +0.000 OA
ATOM     18  C   UNL     1       4.506   4.387  17.030  0.00  0.00    +0.000 A 
ATOM     19  C   UNL     1       5.071   5.384  16.267  0.00  0.00    +0.000 A 
ATOM     20  C   UNL     1       6.007   6.217  16.886  0.00  0.00    +0.000 A 
ATOM     21  C   UNL     1       6.354   6.031  18.240  0.00  0.00    +0.000 A 
ATOM     22  C   UNL     1       5.773   5.010  18.993  0.00  0.00    +0.000 A 
ATOM     23  C   UNL     1       4.853   4.203  18.355  0.00  0.00    +0.000 A 
ENDBRANCH  13  14
ENDBRANCH   1  13
TORSDOF 5
ENDMDL
MODEL 2
REMARK VINA RESULT:      -7.1      2.890      6.193
REMARK  Name = 
REMARK  5 active torsions:
REMARK  status: ('A' for Active; 'I' for Inactive)
REMARK    1  A    between atoms: C_2  and  C_3
REMARK    2  A    between atoms: C_3  and  C_4
REMARK    3  A    between atoms: C_4  and  C_5
REMARK    4  A    between atoms: C_5  and  N_6
REMARK    5  A    between atoms: N_16  and  C_17
REMARK                            x       y       z     vdW  Elec       q    Type
REMARK                         _______ _______ _______ _____ _____    ______ ____
ROOT
ATOM      1  C   UNL     1       6.234   5.724  19.210  0.00  0.00    +0.000 C 
ENDROOT
BRANCH   1   2
ATOM      2  C   UNL     1       7.523   5.919  18.419  0.00  0.00    +0.000 C 
BRANCH   2   4
ATOM      3  O   UNL     1       8.166   4.056  17.093  0.00  0.00    +0.000 OA
ATOM      4  C   UNL     1       7.536   5.109  17.137  0.00  0.00    +0.000 C 
ATOM      5  N   UNL     1       6.812   5.663  16.093  0.00  0.00    +0.000 N 
ATOM      6  H   UNL     1       6.569   6.647  16.165  0.00  0.00    +0.000 HD
BRANCH   5   7
ATOM      7  C   UNL     1       6.632   5.062  14.821  0.00  0.00    +0.000 A 
ATOM      8  C   UNL     1       5.572   4.205  14.522  0.00  0.00    +0.000 A 
ATOM      9  C   UNL     1       5.524   3.552  13.290  0.00  0.00    +0.000 A 
ATOM     10  C   UNL     1       6.529   3.801  12.374  0.00  0.00    +0.000 A 
ATOM     11  N   UNL     1       7.525   4.687  12.585  0.00  0.00    +0.000 NA
ATOM     12  C   UNL     1       7.544   5.302  13.796  0.00  0.00    +0.000 A 
ENDBRANCH   5   7
ENDBRANCH   2   4
ENDBRANCH   1   2
BRANCH   1  13
ATOM     13  C   UNL     1       5.578   4.395  18.831  0.00  0.00    +0.000 C 
BRANCH  13  14
ATOM     14  N   UNL     1       4.138   4.470  18.811  0.00  0.00    +0.000 N 
ATOM     15  C   UNL     1       3.379   5.203  17.927  0.00  0.00    +0.000 A 
ATOM     16  O   UNL     1       3.806   5.886  17.007  0.00  0.00    +0.000 OA
ATOM     17  O   UNL     1       2.008   5.075  18.214  0.00  0.00    +0.000 OA
ATOM     18  C   UNL     1       2.011   4.225  19.307  0.00  0.00    +0.000 A 
ATOM     19  C   UNL     1       0.896   3.790  19.987  0.00  0.00    +0.000 A 
ATOM     20  C   UNL     1       1.097   2.930  21.071  0.00  0.00    +0.000 A 
ATOM     21  C   UNL     1       2.397   2.534  21.446  0.00  0.00    +0.000 A 
ATOM     22  C   UNL     1       3.515   2.992  20.746  0.00  0.00    +0.000 A 
ATOM     23  C   UNL     1       3.285   3.840  19.681  0.00  0.00    +0.000 A 
ENDBRANCH  13  14
ENDBRANCH   1  13
TORSDOF 5
ENDMDL
MODEL 3
REMARK VINA RESULT:      -7.0      2.999      6.296
REMARK  Name = 
REMARK  5 active torsions:
REMARK  status: ('A' for Active; 'I' for Inactive)
REMARK    1  A    between atoms: C_2  and  C_3
REMARK    2  A    between atoms: C_3  and  C_4
REMARK    3  A    between atoms: C_4  and  C_5
REMARK    4  A    between atoms: C_5  and  N_6
REMARK    5  A    between atoms: N_16  and  C_17
REMARK                            x       y       z     vdW  Elec       q    Type
REMARK                         _______ _______ _______ _____ _____    ______ ____
ROOT
ATOM      1  C   UNL     1       6.253   5.242  18.869  0.00  0.00    +0.000 C 
ENDROOT
BRANCH   1   2
ATOM      2  C   UNL     1       7.131   6.115  17.979  0.00  0.00    +0.000 C 
BRANCH   2   4
ATOM      3  O   UNL     1       6.009   6.888  16.032  0.00  0.00    +0.000 OA
ATOM      4  C   UNL     1       6.734   6.023  16.517  0.00  0.00    +0.000 C 
ATOM      5  N   UNL     1       7.244   4.924  15.845  0.00  0.00    +0.000 N 
ATOM      6  H   UNL     1       7.594   4.155  16.408  0.00  0.00    +0.000 HD
BRANCH   5   7
ATOM      7  C   UNL     1       7.057   4.658  14.464  0.00  0.00    +0.000 A 
ATOM      8  C   UNL     1       6.133   3.731  13.981  0.00  0.00    +0.000 A 
ATOM      9  C   UNL     1       6.087   3.430  12.620  0.00  0.00    +0.000 A 
ATOM     10  C   UNL     1       6.952   4.093  11.770  0.00  0.00    +0.000 A 
ATOM     11  N   UNL     1       7.800   5.060  12.179  0.00  0.00    +0.000 NA
ATOM     12  C   UNL     1       7.823   5.326  13.511  0.00  0.00    +0.000 A 
ENDBRANCH   5   7
ENDBRANCH   2   4
ENDBRANCH   1   2
BRANCH   1  13
ATOM     13  C   UNL     1       4.794   5.692  18.775  0.00  0.00    +0.000 C 
BRANCH  13  14
ATOM     14  N   UNL     1       3.881   4.590  18.597  0.00  0.00    +0.000 N 
ATOM     15  C   UNL     1       3.644   3.919  17.419  0.00  0.00    +0.000 A 
ATOM     16  O   UNL     1       4.187   4.138  16.345  0.00  0.00    +0.000 OA
ATOM     17  O   UNL     1       2.670   2.920  17.594  0.00  0.00    +0.000 OA
ATOM     18  C   UNL     1       2.358   3.043  18.938  0.00  0.00    +0.000 A 
ATOM     19  C   UNL     1       1.430   2.286  19.617  0.00  0.00    +0.000 A 
ATOM     20  C   UNL     1       1.251   2.555  20.978  0.00  0.00    +0.000 A 
ATOM     21  C   UNL     1       1.996   3.566  21.617  0.00  0.00    +0.000 A 
ATOM     22  C   UNL     1       2.928   4.326  20.907  0.00  0.00    +0.000 A 
ATOM     23  C   UNL     1       3.082   4.038  19.566  0.00  0.00    +0.000 A 
ENDBRANCH  13  14
ENDBRANCH   1  13
TORSDOF 5
ENDMDL
MODEL 4
REMARK VINA RESULT:      -6.9      2.154      4.697
REMARK  Name = 
REMARK  5 active torsions:
REMARK  status: ('A' for Active; 'I' for Inactive)
REMARK    1  A    between atoms: C_2  and  C_3
REMARK    2  A    between atoms: C_3  and  C_4
REMARK    3  A    between atoms: C_4  and  C_5
REMARK    4  A    between atoms: C_5  and  N_6
REMARK    5  A    between atoms: N_16  and  C_17
REMARK                            x       y       z     vdW  Elec       q    Type
REMARK                         _______ _______ _______ _____ _____    ______ ____
ROOT
ATOM      1  C   UNL     1       2.321   1.979  17.842  0.00  0.00    +0.000 C 
ENDROOT
BRANCH   1   2
ATOM      2  C   UNL     1       3.636   1.571  18.499  0.00  0.00    +0.000 C 
BRANCH   2   4
ATOM      3  O   UNL     1       5.025   2.950  19.847  0.00  0.00    +0.000 OA
ATOM      4  C   UNL     1       4.553   2.758  18.729  0.00  0.00    +0.000 C 
ATOM      5  N   UNL     1       4.774   3.546  17.611  0.00  0.00    +0.000 N 
ATOM      6  H   UNL     1       4.127   3.445  16.835  0.00  0.00    +0.000 HD
BRANCH   5   7
ATOM      7  C   UNL     1       5.637   4.671  17.569  0.00  0.00    +0.000 A 
ATOM      8  C   UNL     1       5.189   5.970  17.323  0.00  0.00    +0.000 A 
ATOM      9  C   UNL     1       6.105   7.011  17.174  0.00  0.00    +0.000 A 
ATOM     10  C   UNL     1       7.452   6.727  17.306  0.00  0.00    +0.000 A 
ATOM     11  N   UNL     1       7.925   5.505  17.630  0.00  0.00    +0.000 NA
ATOM     12  C   UNL     1       7.007   4.513  17.763  0.00  0.00    +0.000 A 
ENDBRANCH   5   7
ENDBRANCH   2   4
ENDBRANCH   1   2
BRANCH   1  13
ATOM     13  C   UNL     1       1.266   2.271  18.910  0.00  0.00    +0.000 C 
BRANCH  13  14
ATOM     14  N   UNL     1       1.598   3.415  19.723  0.00  0.00    +0.000 N 
ATOM     15  C   UNL     1       1.763   3.415  21.090  0.00  0.00    +0.000 A 
ATOM     16  O   UNL     1       1.676   2.441  21.824  0.00  0.00    +0.000 OA
ATOM     17  O   UNL     1       2.049   4.707  21.563  0.00  0.00    +0.000 OA
ATOM     18  C   UNL     1       2.047   5.457  20.399  0.00  0.00    +0.000 A 
ATOM     19  C   UNL     1       2.267   6.814  20.319  0.00  0.00    +0.000 A 
ATOM     20  C   UNL     1       2.227   7.399  19.050  0.00  0.00    +0.000 A 
ATOM     21  C   UNL     1       1.966   6.621  17.904  0.00  0.00    +0.000 A 
ATOM     22  C   UNL     1       1.739   5.247  18.009  0.00  0.00    +0.000 A 
ATOM     23  C   UNL     1       1.785   4.697  19.274  0.00  0.00    +0.000 A 
ENDBRANCH  13  14
ENDBRANCH   1  13
TORSDOF 5
ENDMDL
MODEL 5
REMARK VINA RESULT:      -6.9      0.662      1.055
REMARK  Name = 
REMARK  5 active torsions:
REMARK  status: ('A' for Active; 'I' for Inactive)
REMARK    1  A    between atoms: C_2  and  C_3
REMARK    2  A    between atoms: C_3  and  C_4
REMARK    3  A    between atoms: C_4  and  C_5
REMARK    4  A    between atoms: C_5  and  N_6
REMARK    5  A    between atoms: N_16  and  C_17
REMARK                            x       y       z     vdW  Elec       q    Type
REMARK                         _______ _______ _______ _____ _____    ______ ____
ROOT
ATOM      1  C   UNL     1       2.902   2.483  20.594  0.00  0.00    +0.000 C 
ENDROOT
BRANCH   1   2
ATOM      2  C   UNL     1       2.439   3.712  21.371  0.00  0.00    +0.000 C 
BRANCH   2   4
ATOM      3  O   UNL     1       0.960   4.558  19.715  0.00  0.00    +0.000 OA
ATOM      4  C   UNL     1       1.909   4.800  20.457  0.00  0.00    +0.000 C 
ATOM      5  N   UNL     1       2.577   6.010  20.547  0.00  0.00    +0.000 N 
ATOM      6  H   UNL     1       3.494   6.005  20.983  0.00  0.00    +0.000 HD
BRANCH   5   7
ATOM      7  C   UNL     1       2.227   7.186  19.835  0.00  0.00    +0.000 A 
ATOM      8  C   UNL     1       1.505   8.238  20.401  0.00  0.00    +0.000 A 
ATOM      9  C   UNL     1       1.088   9.309  19.610  0.00  0.00    +0.000 A 
ATOM     10  C   UNL     1       1.434   9.313  18.272  0.00  0.00    +0.000 A 
ATOM     11  N   UNL     1       2.204   8.362  17.701  0.00  0.00    +0.000 NA
ATOM     12  C   UNL     1       2.589   7.332  18.498  0.00  0.00    +0.000 A 
ENDBRANCH   5   7
ENDBRANCH   2   4
ENDBRANCH   1   2
BRANCH   1  13
ATOM     13  C   UNL     1       4.306   2.713  20.032  0.00  0.00    +0.000 C 
BRANCH  13  14
ATOM     14  N   UNL     1       4.290   3.317  18.723  0.00  0.00    +0.000 N 
ATOM     15  C   UNL     1       3.511   2.922  17.660  0.00  0.00    +0.000 A 
ATOM     16  O   UNL     1       2.694   2.011  17.667  0.00  0.00    +0.000 OA
ATOM     17  O   UNL     1       3.771   3.708  16.523  0.00  0.00    +0.000 OA
ATOM     18  C   UNL     1       4.738   4.584  16.985  0.00  0.00    +0.000 A 
ATOM     19  C   UNL     1       5.348   5.569  16.240  0.00  0.00    +0.000 A 
ATOM     20  C   UNL     1       6.306   6.361  16.880  0.00  0.00    +0.000 A 
ATOM     21  C   UNL     1       6.630   6.148  18.236  0.00  0.00    +0.000 A 
ATOM     22  C   UNL     1       6.004   5.139  18.970  0.00  0.00    +0.000 A 
ATOM     23  C   UNL     1       5.063   4.373  18.312  0.00  0.00    +0.000 A 
ENDBRANCH  13  14
ENDBRANCH   1  13
TORSDOF 5
ENDMDL
MODEL 6
REMARK VINA RESULT:      -6.9      3.069      6.448
REMARK  Name = 
REMARK  5 active torsions:
REMARK  status: ('A' for Active; 'I' for Inactive)
REMARK    1  A    between atoms: C_2  and  C_3
REMARK    2  A    between atoms: C_3  and  C_4
REMARK    3  A    between atoms: C_4  and  C_5
REMARK    4  A    between atoms: C_5  and  N_6
REMARK    5  A    between atoms: N_16  and  C_17
REMARK                            x       y       z     vdW  Elec       q    Type
REMARK                         _______ _______ _______ _____ _____    ______ ____
ROOT
ATOM      1  C   UNL     1       5.768   5.778  18.776  0.00  0.00    +0.000 C 
ENDROOT
BRANCH   1   2
ATOM      2  C   UNL     1       6.957   6.216  17.927  0.00  0.00    +0.000 C 
BRANCH   2   4
ATOM      3  O   UNL     1       7.874   4.321  16.824  0.00  0.00    +0.000 OA
ATOM      4  C   UNL     1       7.161   5.317  16.722  0.00  0.00    +0.000 C 
ATOM      5  N   UNL     1       6.502   5.726  15.574  0.00  0.00    +0.000 N 
ATOM      6  H   UNL     1       6.177   6.687  15.541  0.00  0.00    +0.000 HD
BRANCH   5   7
ATOM      7  C   UNL     1       6.498   5.018  14.344  0.00  0.00    +0.000 A 
ATOM      8  C   UNL     1       5.538   4.061  14.015  0.00  0.00    +0.000 A 
ATOM      9  C   UNL     1       5.663   3.315  12.843  0.00  0.00    +0.000 A 
ATOM     10  C   UNL     1       6.737   3.572  12.011  0.00  0.00    +0.000 A 
ATOM     11  N   UNL     1       7.641   4.548  12.244  0.00  0.00    +0.000 NA
ATOM     12  C   UNL     1       7.492   5.252  13.396  0.00  0.00    +0.000 A 
ENDBRANCH   5   7
ENDBRANCH   2   4
ENDBRANCH   1   2
BRANCH   1  13
ATOM     13  C   UNL     1       4.458   6.164  18.088  0.00  0.00    +0.000 C 
BRANCH  13  14
ATOM     14  N   UNL     1       3.302   5.579  18.722  0.00  0.00    +0.000 N 
ATOM     15  C   UNL     1       2.473   6.204  19.625  0.00  0.00    +0.000 A 
ATOM     16  O   UNL     1       2.573   7.360  20.013  0.00  0.00    +0.000 OA
ATOM     17  O   UNL     1       1.463   5.332  20.070  0.00  0.00    +0.000 OA
ATOM     18  C   UNL     1       1.747   4.170  19.373  0.00  0.00    +0.000 A 
ATOM     19  C   UNL     1       1.046   2.988  19.466  0.00  0.00    +0.000 A 
ATOM     20  C   UNL     1       1.483   1.916  18.681  0.00  0.00    +0.000 A 
ATOM     21  C   UNL     1       2.602   2.051  17.834  0.00  0.00    +0.000 A 
ATOM     22  C   UNL     1       3.302   3.257  17.761  0.00  0.00    +0.000 A 
ATOM     23  C   UNL     1       2.848   4.296  18.547  0.00  0.00    +0.000 A 
ENDBRANCH  13  14
ENDBRANCH   1  13
TORSDOF 5
ENDMDL
MODEL 7
REMARK VINA RESULT:      -6.8      2.405      4.462
REMARK  Name = 
REMARK  5 active torsions:
REMARK  status: ('A' for Active; 'I' for Inactive)
REMARK    1  A    between atoms: C_2  and  C_3
REMARK    2  A    between atoms: C_3  and  C_4
REMARK    3  A    between atoms: C_4  and  C_5
REMARK    4  A    between atoms: C_5  and  N_6
REMARK    5  A    between atoms: N_16  and  C_17
REMARK                            x       y       z     vdW  Elec       q    Type
REMARK                         _______ _______ _______ _____ _____    ______ ____
ROOT
ATOM      1  C   UNL     1       3.786   6.787  17.792  0.00  0.00    +0.000 C 
ENDROOT
BRANCH   1   2
ATOM      2  C   UNL     1       2.719   7.285  18.762  0.00  0.00    +0.000 C 
BRANCH   2   4
ATOM      3  O   UNL     1       2.277   8.963  17.139  0.00  0.00    +0.000 OA
ATOM      4  C   UNL     1       2.058   8.562  18.279  0.00  0.00    +0.000 C 
ATOM      5  N   UNL     1       1.242   9.182  19.212  0.00  0.00    +0.000 N 
ATOM      6  H   UNL     1       1.356   8.910  20.184  0.00  0.00    +0.000 HD
BRANCH   5   7
ATOM      7  C   UNL     1       0.478  10.352  18.972  0.00  0.00    +0.000 A 
ATOM      8  C   UNL     1      -0.801  10.331  18.414  0.00  0.00    +0.000 A 
ATOM      9  C   UNL     1      -1.446  11.524  18.091  0.00  0.00    +0.000 A 
ATOM     10  C   UNL     1      -0.802  12.716  18.367  0.00  0.00    +0.000 A 
ATOM     11  N   UNL     1       0.396  12.788  18.985  0.00  0.00    +0.000 NA
ATOM     12  C   UNL     1       0.999  11.607  19.282  0.00  0.00    +0.000 A 
ENDBRANCH   5   7
ENDBRANCH   2   4
ENDBRANCH   1   2
BRANCH   1  13
ATOM     13  C   UNL     1       3.548   5.314  17.456  0.00  0.00    +0.000 C 
BRANCH  13  14
ATOM     14  N   UNL     1       3.796   4.440  18.576  0.00  0.00    +0.000 N 
ATOM     15  C   UNL     1       5.024   3.954  18.965  0.00  0.00    +0.000 A 
ATOM     16  O   UNL     1       6.098   4.206  18.436  0.00  0.00    +0.000 OA
ATOM     17  O   UNL     1       4.901   3.103  20.077  0.00  0.00    +0.000 OA
ATOM     18  C   UNL     1       3.537   3.124  20.317  0.00  0.00    +0.000 A 
ATOM     19  C   UNL     1       2.887   2.429  21.312  0.00  0.00    +0.000 A 
ATOM     20  C   UNL     1       1.499   2.577  21.400  0.00  0.00    +0.000 A 
ATOM     21  C   UNL     1       0.803   3.405  20.497  0.00  0.00    +0.000 A 
ATOM     22  C   UNL     1       1.481   4.096  19.492  0.00  0.00    +0.000 A 
ATOM     23  C   UNL     1       2.850   3.931  19.429  0.00  0.00    +0.000 A 
ENDBRANCH  13  14
ENDBRANCH   1  13
TORSDOF 5
ENDMDL
MODEL 8
REMARK VINA RESULT:      -6.7      2.970      4.933
REMARK  Name = 
REMARK  5 active torsions:
REMARK  status: ('A' for Active; 'I' for Inactive)
REMARK    1  A    between atoms: C_2  and  C_3
REMARK    2  A    between atoms: C_3  and  C_4
REMARK    3  A    between atoms: C_4  and  C_5
REMARK    4  A    between atoms: C_5  and  N_6
REMARK    5  A    between atoms: N_16  and  C_17
REMARK                            x       y       z     vdW  Elec       q    Type
REMARK                         _______ _______ _______ _____ _____    ______ ____
ROOT
ATOM      1  C   UNL     1       2.248   7.864  17.577  0.00  0.00    +0.000 C 
ENDROOT
BRANCH   1   2
ATOM      2  C   UNL     1       2.162   9.289  18.115  0.00  0.00    +0.000 C 
BRANCH   2   4
ATOM      3  O   UNL     1       0.547   9.443  19.852  0.00  0.00    +0.000 OA
ATOM      4  C   UNL     1       0.783   9.614  18.658  0.00  0.00    +0.000 C 
ATOM      5  N   UNL     1      -0.115  10.086  17.715  0.00  0.00    +0.000 N 
ATOM      6  H   UNL     1       0.108   9.926  16.737  0.00  0.00    +0.000 HD
BRANCH   5   7
ATOM      7  C   UNL     1      -1.440  10.507  17.996  0.00  0.00    +0.000 A 
ATOM      8  C   UNL     1      -2.572   9.851  17.510  0.00  0.00    +0.000 A 
ATOM      9  C   UNL     1      -3.841  10.389  17.723  0.00  0.00    +0.000 A 
ATOM     10  C   UNL     1      -3.945  11.562  18.447  0.00  0.00    +0.000 A 
ATOM     11  N   UNL     1      -2.888  12.185  19.010  0.00  0.00    +0.000 NA
ATOM     12  C   UNL     1      -1.666  11.636  18.779  0.00  0.00    +0.000 A 
ENDBRANCH   5   7
ENDBRANCH   2   4
ENDBRANCH   1   2
BRANCH   1  13
ATOM     13  C   UNL     1       3.197   7.031  18.440  0.00  0.00    +0.000 C 
BRANCH  13  14
ATOM     14  N   UNL     1       3.303   5.664  17.992  0.00  0.00    +0.000 N 
ATOM     15  C   UNL     1       4.160   5.196  17.022  0.00  0.00    +0.000 A 
ATOM     16  O   UNL     1       4.981   5.861  16.406  0.00  0.00    +0.000 OA
ATOM     17  O   UNL     1       3.977   3.818  16.809  0.00  0.00    +0.000 OA
ATOM     18  C   UNL     1       2.972   3.510  17.711  0.00  0.00    +0.000 A 
ATOM     19  C   UNL     1       2.411   2.266  17.891  0.00  0.00    +0.000 A 
ATOM     20  C   UNL     1       1.403   2.147  18.853  0.00  0.00    +0.000 A 
ATOM     21  C   UNL     1       0.984   3.266  19.601  0.00  0.00    +0.000 A 
ATOM     22  C   UNL     1       1.563   4.520  19.398  0.00  0.00    +0.000 A 
ATOM     23  C   UNL     1       2.554   4.607  18.442  0.00  0.00    +0.000 A 
ENDBRANCH  13  14
ENDBRANCH   1  13
TORSDOF 5
ENDMDL
MODEL 9
REMARK VINA RESULT:      -6.6      2.424      4.508
REMARK  Name = 
REMARK  5 active torsions:
REMARK  status: ('A' for Active; 'I' for Inactive)
REMARK    1  A    between atoms: C_2  and  C_3
REMARK    2  A    between atoms: C_3  and  C_4
REMARK    3  A    between atoms: C_4  and  C_5
REMARK    4  A    between atoms: C_5  and  N_6
REMARK    5  A    between atoms: N_16  and  C_17
REMARK                            x       y       z     vdW  Elec       q    Type
REMARK                         _______ _______ _______ _____ _____    ______ ____
ROOT
ATOM      1  C   UNL     1       3.720   6.770  17.768  0.00  0.00    +0.000 C 
ENDROOT
BRANCH   1   2
ATOM      2  C   UNL     1       2.652   7.293  18.723  0.00  0.00    +0.000 C 
BRANCH   2   4
ATOM      3  O   UNL     1       2.301   9.006  17.114  0.00  0.00    +0.000 OA
ATOM      4  C   UNL     1       2.046   8.599  18.245  0.00  0.00    +0.000 C 
ATOM      5  N   UNL     1       1.234   9.235  19.170  0.00  0.00    +0.000 N 
ATOM      6  H   UNL     1       1.320   8.948  20.140  0.00  0.00    +0.000 HD
BRANCH   5   7
ATOM      7  C   UNL     1       0.516  10.435  18.931  0.00  0.00    +0.000 A 
ATOM      8  C   UNL     1       0.973  11.693  19.327  0.00  0.00    +0.000 A 
ATOM      9  C   UNL     1       0.161  12.816  19.170  0.00  0.00    +0.000 A 
ATOM     10  C   UNL     1      -1.083  12.653  18.588  0.00  0.00    +0.000 A 
ATOM     11  N   UNL     1      -1.530  11.472  18.109  0.00  0.00    +0.000 NA
ATOM     12  C   UNL     1      -0.716  10.398  18.283  0.00  0.00    +0.000 A 
ENDBRANCH   5   7
ENDBRANCH   2   4
ENDBRANCH   1   2
BRANCH   1  13
ATOM     13  C   UNL     1       3.461   5.298  17.443  0.00  0.00    +0.000 C 
BRANCH  13  14
ATOM     14  N   UNL     1       3.753   4.423  18.552  0.00  0.00    +0.000 N 
ATOM     15  C   UNL     1       4.994   3.938  18.894  0.00  0.00    +0.000 A 
ATOM     16  O   UNL     1       6.047   4.191  18.324  0.00  0.00    +0.000 OA
ATOM     17  O   UNL     1       4.914   3.085  20.009  0.00  0.00    +0.000 OA
ATOM     18  C   UNL     1       3.560   3.106  20.300  0.00  0.00    +0.000 A 
ATOM     19  C   UNL     1       2.949   2.409  21.318  0.00  0.00    +0.000 A 
ATOM     20  C   UNL     1       1.565   2.556  21.459  0.00  0.00    +0.000 A 
ATOM     21  C   UNL     1       0.835   3.385  20.584  0.00  0.00    +0.000 A 
ATOM     22  C   UNL     1       1.474   4.077  19.554  0.00  0.00    +0.000 A 
ATOM     23  C   UNL     1       2.840   3.913  19.439  0.00  0.00    +0.000 A 
ENDBRANCH  13  14
ENDBRANCH   1  13
TORSDOF 5
ENDMDL
