MODEL 1
REMARK VINA RESULT:      -6.3      0.000      0.000
REMARK  Name = 
REMARK  22 active torsions:
REMARK  status: ('A' for Active; 'I' for Inactive)
REMARK    1  A    between atoms: C_1  and  C_2
REMARK    2  A    between atoms: C_2  and  C_3
REMARK    3  A    between atoms: C_3  and  C_4
REMARK    4  A    between atoms: C_4  and  C_5
REMARK    5  A    between atoms: C_5  and  C_6
REMARK    6  A    between atoms: C_6  and  C_7
REMARK    7  A    between atoms: C_7  and  C_8
REMARK    8  A    between atoms: C_8  and  N_9
REMARK    9  A    between atoms: N_9  and  C_10
REMARK   10  A    between atoms: C_10  and  C_11
REMARK   11  A    between atoms: C_11  and  C_12
REMARK   12  A    between atoms: C_12  and  C_13
REMARK   13  A    between atoms: C_13  and  C_14
REMARK   14  A    between atoms: C_14  and  C_15
REMARK   15  A    between atoms: C_15  and  C_16
REMARK   16  A    between atoms: C_16  and  C_17
REMARK   17  A    between atoms: C_18  and  C_20
REMARK   18  A    between atoms: C_20  and  N_21
REMARK   19  A    between atoms: C_20  and  C_22
REMARK   20  A    between atoms: C_22  and  C_23
REMARK   21  A    between atoms: C_23  and  C_24
REMARK   22  A    between atoms: C_23  and  C_25
REMARK                            x       y       z     vdW  Elec       q    Type
REMARK                         _______ _______ _______ _____ _____    ______ ____
ROOT
ATOM      1  N   UNL     1       4.407   4.957  18.731  0.00  0.00    +0.000 N 
ATOM      2  C   UNL     1       4.229   3.592  18.909  0.00  0.00    +0.000 C 
ATOM      3  O   UNL     1       5.063   2.958  19.542  0.00  0.00    +0.000 OA
ENDROOT
BRANCH   2   4
ATOM      4  C   UNL     1       3.036   2.796  18.337  0.00  0.00    +0.000 C 
BRANCH   4   5
ATOM      5  N   UNL     1       3.382   1.382  18.153  0.00  0.00    +0.000 NA
ATOM      6  H   UNL     1       2.625   0.760  18.521  0.00  0.00    +0.000 HD
ATOM      7  H   UNL     1       4.301   1.132  18.575  0.00  0.00    +0.000 HD
ENDBRANCH   4   5
BRANCH   4   8
ATOM      8  C   UNL     1       1.772   2.834  19.239  0.00  0.00    +0.000 C 
BRANCH   8   9
ATOM      9  C   UNL     1       1.939   3.484  20.641  0.00  0.00    +0.000 C 
ATOM     10  C   UNL     1       1.215   4.832  20.754  0.00  0.00    +0.000 C 
ATOM     11  C   UNL     1       1.408   2.519  21.710  0.00  0.00    +0.000 C 
ENDBRANCH   8   9
ENDBRANCH   4   8
ENDBRANCH   2   4
BRANCH   1  12
ATOM     12  C   UNL     1       3.459   5.706  17.880  0.00  0.00    +0.000 C 
BRANCH  12  13
ATOM     13  C   UNL     1       2.692   6.815  18.588  0.00  0.00    +0.000 C 
BRANCH  13  14
ATOM     14  C   UNL     1       2.204   7.926  17.650  0.00  0.00    +0.000 C 
BRANCH  14  15
ATOM     15  C   UNL     1       1.741   9.108  18.509  0.00  0.00    +0.000 C 
BRANCH  15  16
ATOM     16  C   UNL     1       1.439   8.708  19.953  0.00  0.00    +0.000 C 
BRANCH  16  17
ATOM     17  C   UNL     1       0.196   9.460  20.451  0.00  0.00    +0.000 C 
BRANCH  17  18
ATOM     18  C   UNL     1      -0.378   8.810  21.710  0.00  0.00    +0.000 C 
ATOM     19  C   UNL     1       0.053   9.567  22.963  0.00  0.00    +0.000 C 
ENDBRANCH  17  18
ENDBRANCH  16  17
ENDBRANCH  15  16
ENDBRANCH  14  15
ENDBRANCH  13  14
ENDBRANCH  12  13
ENDBRANCH   1  12
BRANCH   1  20
ATOM     20  C   UNL     1       5.670   5.576  19.218  0.00  0.00    +0.000 C 
BRANCH  20  21
ATOM     21  C   UNL     1       6.731   5.951  18.148  0.00  0.00    +0.000 C 
BRANCH  21  22
ATOM     22  C   UNL     1       7.570   4.791  17.603  0.00  0.00    +0.000 C 
BRANCH  22  23
ATOM     23  C   UNL     1       7.418   4.578  16.093  0.00  0.00    +0.000 C 
BRANCH  23  24
ATOM     24  C   UNL     1       6.110   3.833  15.809  0.00  0.00    +0.000 C 
BRANCH  24  25
ATOM     25  C   UNL     1       5.433   4.332  14.531  0.00  0.00    +0.000 C 
BRANCH  25  27
ATOM     26  C   UNL     1       5.871   3.262  12.279  0.00  0.00    +0.000 C 
ATOM     27  C   UNL     1       6.401   4.210  13.348  0.00  0.00    +0.000 C 
ENDBRANCH  25  27
ENDBRANCH  24  25
ENDBRANCH  23  24
ENDBRANCH  22  23
ENDBRANCH  21  22
ENDBRANCH  20  21
ENDBRANCH   1  20
TORSDOF 18
ENDMDL
MODEL 2
REMARK VINA RESULT:      -6.3      2.591      4.881
REMARK  Name = 
REMARK  22 active torsions:
REMARK  status: ('A' for Active; 'I' for Inactive)
REMARK    1  A    between atoms: C_1  and  C_2
REMARK    2  A    between atoms: C_2  and  C_3
REMARK    3  A    between atoms: C_3  and  C_4
REMARK    4  A    between atoms: C_4  and  C_5
REMARK    5  A    between atoms: C_5  and  C_6
REMARK    6  A    between atoms: C_6  and  C_7
REMARK    7  A    between atoms: C_7  and  C_8
REMARK    8  A    between atoms: C_8  and  N_9
REMARK    9  A    between atoms: N_9  and  C_10
REMARK   10  A    between atoms: C_10  and  C_11
REMARK   11  A    between atoms: C_11  and  C_12
REMARK   12  A    between atoms: C_12  and  C_13
REMARK   13  A    between atoms: C_13  and  C_14
REMARK   14  A    between atoms: C_14  and  C_15
REMARK   15  A    between atoms: C_15  and  C_16
REMARK   16  A    between atoms: C_16  and  C_17
REMARK   17  A    between atoms: C_18  and  C_20
REMARK   18  A    between atoms: C_20  and  N_21
REMARK   19  A    between atoms: C_20  and  C_22
REMARK   20  A    between atoms: C_22  and  C_23
REMARK   21  A    between atoms: C_23  and  C_24
REMARK   22  A    between atoms: C_23  and  C_25
REMARK                            x       y       z     vdW  Elec       q    Type
REMARK                         _______ _______ _______ _____ _____    ______ ____
ROOT
ATOM      1  N   UNL     1       4.390   5.069  17.901  0.00  0.00    +0.000 N 
ATOM      2  C   UNL     1       3.214   5.638  18.369  0.00  0.00    +0.000 C 
ATOM      3  O   UNL     1       2.499   6.259  17.592  0.00  0.00    +0.000 OA
ENDROOT
BRANCH   2   4
ATOM      4  C   UNL     1       2.742   5.558  19.837  0.00  0.00    +0.000 C 
BRANCH   4   5
ATOM      5  N   UNL     1       2.385   6.884  20.352  0.00  0.00    +0.000 NA
ATOM      6  H   UNL     1       1.388   6.908  20.669  0.00  0.00    +0.000 HD
ATOM      7  H   UNL     1       2.571   7.648  19.668  0.00  0.00    +0.000 HD
ENDBRANCH   4   5
BRANCH   4   8
ATOM      8  C   UNL     1       1.498   4.649  20.042  0.00  0.00    +0.000 C 
BRANCH   8   9
ATOM      9  C   UNL     1       1.765   3.121  20.141  0.00  0.00    +0.000 C 
ATOM     10  C   UNL     1       1.570   2.582  21.565  0.00  0.00    +0.000 C 
ATOM     11  C   UNL     1       0.828   2.383  19.174  0.00  0.00    +0.000 C 
ENDBRANCH   8   9
ENDBRANCH   4   8
ENDBRANCH   2   4
BRANCH   1  12
ATOM     12  C   UNL     1       5.306   4.410  18.855  0.00  0.00    +0.000 C 
BRANCH  12  13
ATOM     13  C   UNL     1       6.354   5.322  19.480  0.00  0.00    +0.000 C 
BRANCH  13  14
ATOM     14  C   UNL     1       7.642   5.437  18.658  0.00  0.00    +0.000 C 
BRANCH  14  15
ATOM     15  C   UNL     1       8.072   6.909  18.645  0.00  0.00    +0.000 C 
BRANCH  15  16
ATOM     16  C   UNL     1       7.620   7.647  17.385  0.00  0.00    +0.000 C 
BRANCH  16  17
ATOM     17  C   UNL     1       7.787   9.160  17.581  0.00  0.00    +0.000 C 
BRANCH  17  18
ATOM     18  C   UNL     1       8.796   9.468  18.688  0.00  0.00    +0.000 C 
ATOM     19  C   UNL     1       9.459  10.823  18.463  0.00  0.00    +0.000 C 
ENDBRANCH  17  18
ENDBRANCH  16  17
ENDBRANCH  15  16
ENDBRANCH  14  15
ENDBRANCH  13  14
ENDBRANCH  12  13
ENDBRANCH   1  12
BRANCH   1  20
ATOM     20  C   UNL     1       4.796   5.339  16.494  0.00  0.00    +0.000 C 
BRANCH  20  21
ATOM     21  C   UNL     1       5.477   4.177  15.721  0.00  0.00    +0.000 C 
BRANCH  21  22
ATOM     22  C   UNL     1       5.460   4.290  14.193  0.00  0.00    +0.000 C 
BRANCH  22  23
ATOM     23  C   UNL     1       6.816   4.671  13.590  0.00  0.00    +0.000 C 
BRANCH  23  24
ATOM     24  C   UNL     1       7.018   3.925  12.267  0.00  0.00    +0.000 C 
BRANCH  24  25
ATOM     25  C   UNL     1       6.080   2.723  12.138  0.00  0.00    +0.000 C 
BRANCH  25  27
ATOM     26  C   UNL     1       6.249   0.343  11.295  0.00  0.00    +0.000 C 
ATOM     27  C   UNL     1       6.561   1.806  11.007  0.00  0.00    +0.000 C 
ENDBRANCH  25  27
ENDBRANCH  24  25
ENDBRANCH  23  24
ENDBRANCH  22  23
ENDBRANCH  21  22
ENDBRANCH  20  21
ENDBRANCH   1  20
TORSDOF 18
ENDMDL
MODEL 3
REMARK VINA RESULT:      -6.2      3.207      7.139
REMARK  Name = 
REMARK  22 active torsions:
REMARK  status: ('A' for Active; 'I' for Inactive)
REMARK    1  A    between atoms: C_1  and  C_2
REMARK    2  A    between atoms: C_2  and  C_3
REMARK    3  A    between atoms: C_3  and  C_4
REMARK    4  A    between atoms: C_4  and  C_5
REMARK    5  A    between atoms: C_5  and  C_6
REMARK    6  A    between atoms: C_6  and  C_7
REMARK    7  A    between atoms: C_7  and  C_8
REMARK    8  A    between atoms: C_8  and  N_9
REMARK    9  A    between atoms: N_9  and  C_10
REMARK   10  A    between atoms: C_10  and  C_11
REMARK   11  A    between atoms: C_11  and  C_12
REMARK   12  A    between atoms: C_12  and  C_13
REMARK   13  A    between atoms: C_13  and  C_14
REMARK   14  A    between atoms: C_14  and  C_15
REMARK   15  A    between atoms: C_15  and  C_16
REMARK   16  A    between atoms: C_16  and  C_17
REMARK   17  A    between atoms: C_18  and  C_20
REMARK   18  A    between atoms: C_20  and  N_21
REMARK   19  A    between atoms: C_20  and  C_22
REMARK   20  A    between atoms: C_22  and  C_23
REMARK   21  A    between atoms: C_23  and  C_24
REMARK   22  A    between atoms: C_23  and  C_25
REMARK                            x       y       z     vdW  Elec       q    Type
REMARK                         _______ _______ _______ _____ _____    ______ ____
ROOT
ATOM      1  N   UNL     1       6.573   5.369  17.972  0.00  0.00    +0.000 N 
ATOM      2  C   UNL     1       5.610   5.063  18.923  0.00  0.00    +0.000 C 
ATOM      3  O   UNL     1       5.520   5.757  19.928  0.00  0.00    +0.000 OA
ENDROOT
BRANCH   2   4
ATOM      4  C   UNL     1       4.633   3.873  18.810  0.00  0.00    +0.000 C 
BRANCH   4   5
ATOM      5  N   UNL     1       5.146   2.696  19.520  0.00  0.00    +0.000 NA
ATOM      6  H   UNL     1       4.437   2.329  20.197  0.00  0.00    +0.000 HD
ATOM      7  H   UNL     1       6.053   2.878  20.000  0.00  0.00    +0.000 HD
ENDBRANCH   4   5
BRANCH   4   8
ATOM      8  C   UNL     1       3.222   4.167  19.392  0.00  0.00    +0.000 C 
BRANCH   8   9
ATOM      9  C   UNL     1       2.011   3.625  18.583  0.00  0.00    +0.000 C 
ATOM     10  C   UNL     1       2.389   3.241  17.146  0.00  0.00    +0.000 C 
ATOM     11  C   UNL     1       1.426   2.406  19.309  0.00  0.00    +0.000 C 
ENDBRANCH   8   9
ENDBRANCH   4   8
ENDBRANCH   2   4
BRANCH   1  12
ATOM     12  C   UNL     1       6.754   4.474  16.810  0.00  0.00    +0.000 C 
BRANCH  12  13
ATOM     13  C   UNL     1       5.623   4.502  15.791  0.00  0.00    +0.000 C 
BRANCH  13  14
ATOM     14  C   UNL     1       6.092   4.761  14.355  0.00  0.00    +0.000 C 
BRANCH  14  15
ATOM     15  C   UNL     1       6.248   3.408  13.651  0.00  0.00    +0.000 C 
BRANCH  15  16
ATOM     16  C   UNL     1       6.329   3.537  12.130  0.00  0.00    +0.000 C 
BRANCH  16  17
ATOM     17  C   UNL     1       5.207   2.718  11.478  0.00  0.00    +0.000 C 
BRANCH  17  18
ATOM     18  C   UNL     1       3.896   3.505  11.439  0.00  0.00    +0.000 C 
ATOM     19  C   UNL     1       3.331   3.559  10.022  0.00  0.00    +0.000 C 
ENDBRANCH  17  18
ENDBRANCH  16  17
ENDBRANCH  15  16
ENDBRANCH  14  15
ENDBRANCH  13  14
ENDBRANCH  12  13
ENDBRANCH   1  12
BRANCH   1  20
ATOM     20  C   UNL     1       7.541   6.460  18.270  0.00  0.00    +0.000 C 
BRANCH  20  21
ATOM     21  C   UNL     1       7.713   7.565  17.192  0.00  0.00    +0.000 C 
BRANCH  21  22
ATOM     22  C   UNL     1       7.820   9.000  17.717  0.00  0.00    +0.000 C 
BRANCH  22  23
ATOM     23  C   UNL     1       8.799   9.157  18.885  0.00  0.00    +0.000 C 
BRANCH  23  24
ATOM     24  C   UNL     1       9.627  10.432  18.695  0.00  0.00    +0.000 C 
BRANCH  24  25
ATOM     25  C   UNL     1       8.814  11.550  18.038  0.00  0.00    +0.000 C 
BRANCH  25  27
ATOM     26  C   UNL     1      11.218  12.279  17.725  0.00  0.00    +0.000 C 
ATOM     27  C   UNL     1       9.752  12.666  17.563  0.00  0.00    +0.000 C 
ENDBRANCH  25  27
ENDBRANCH  24  25
ENDBRANCH  23  24
ENDBRANCH  22  23
ENDBRANCH  21  22
ENDBRANCH  20  21
ENDBRANCH   1  20
TORSDOF 18
ENDMDL
MODEL 4
REMARK VINA RESULT:      -6.2      1.887      5.737
REMARK  Name = 
REMARK  22 active torsions:
REMARK  status: ('A' for Active; 'I' for Inactive)
REMARK    1  A    between atoms: C_1  and  C_2
REMARK    2  A    between atoms: C_2  and  C_3
REMARK    3  A    between atoms: C_3  and  C_4
REMARK    4  A    between atoms: C_4  and  C_5
REMARK    5  A    between atoms: C_5  and  C_6
REMARK    6  A    between atoms: C_6  and  C_7
REMARK    7  A    between atoms: C_7  and  C_8
REMARK    8  A    between atoms: C_8  and  N_9
REMARK    9  A    between atoms: N_9  and  C_10
REMARK   10  A    between atoms: C_10  and  C_11
REMARK   11  A    between atoms: C_11  and  C_12
REMARK   12  A    between atoms: C_12  and  C_13
REMARK   13  A    between atoms: C_13  and  C_14
REMARK   14  A    between atoms: C_14  and  C_15
REMARK   15  A    between atoms: C_15  and  C_16
REMARK   16  A    between atoms: C_16  and  C_17
REMARK   17  A    between atoms: C_18  and  C_20
REMARK   18  A    between atoms: C_20  and  N_21
REMARK   19  A    between atoms: C_20  and  C_22
REMARK   20  A    between atoms: C_22  and  C_23
REMARK   21  A    between atoms: C_23  and  C_24
REMARK   22  A    between atoms: C_23  and  C_25
REMARK                            x       y       z     vdW  Elec       q    Type
REMARK                         _______ _______ _______ _____ _____    ______ ____
ROOT
ATOM      1  N   UNL     1       5.910   5.490  16.966  0.00  0.00    +0.000 N 
ATOM      2  C   UNL     1       6.797   4.925  16.060  0.00  0.00    +0.000 C 
ATOM      3  O   UNL     1       7.772   4.315  16.480  0.00  0.00    +0.000 OA
ENDROOT
BRANCH   2   4
ATOM      4  C   UNL     1       6.647   5.029  14.527  0.00  0.00    +0.000 C 
BRANCH   4   5
ATOM      5  N   UNL     1       7.897   5.475  13.901  0.00  0.00    +0.000 NA
ATOM      6  H   UNL     1       8.691   4.845  14.160  0.00  0.00    +0.000 HD
ATOM      7  H   UNL     1       8.128   6.467  14.122  0.00  0.00    +0.000 HD
ENDBRANCH   4   5
BRANCH   4   8
ATOM      8  C   UNL     1       6.261   3.686  13.847  0.00  0.00    +0.000 C 
BRANCH   8   9
ATOM      9  C   UNL     1       6.162   3.697  12.296  0.00  0.00    +0.000 C 
ATOM     10  C   UNL     1       7.108   2.682  11.639  0.00  0.00    +0.000 C 
ATOM     11  C   UNL     1       4.714   3.400  11.882  0.00  0.00    +0.000 C 
ENDBRANCH   8   9
ENDBRANCH   4   8
ENDBRANCH   2   4
BRANCH   1  12
ATOM     12  C   UNL     1       4.791   6.315  16.464  0.00  0.00    +0.000 C 
BRANCH  12  13
ATOM     13  C   UNL     1       4.385   7.472  17.368  0.00  0.00    +0.000 C 
BRANCH  13  14
ATOM     14  C   UNL     1       2.922   7.418  17.823  0.00  0.00    +0.000 C 
BRANCH  14  15
ATOM     15  C   UNL     1       2.341   8.833  17.733  0.00  0.00    +0.000 C 
BRANCH  15  16
ATOM     16  C   UNL     1       1.087   9.013  18.589  0.00  0.00    +0.000 C 
BRANCH  16  17
ATOM     17  C   UNL     1       1.069  10.424  19.193  0.00  0.00    +0.000 C 
BRANCH  17  18
ATOM     18  C   UNL     1       0.778  10.381  20.694  0.00  0.00    +0.000 C 
ATOM     19  C   UNL     1       0.436   8.964  21.145  0.00  0.00    +0.000 C 
ENDBRANCH  17  18
ENDBRANCH  16  17
ENDBRANCH  15  16
ENDBRANCH  14  15
ENDBRANCH  13  14
ENDBRANCH  12  13
ENDBRANCH   1  12
BRANCH   1  20
ATOM     20  C   UNL     1       6.245   5.434  18.414  0.00  0.00    +0.000 C 
BRANCH  20  21
ATOM     21  C   UNL     1       5.278   4.638  19.333  0.00  0.00    +0.000 C 
BRANCH  21  22
ATOM     22  C   UNL     1       4.567   3.447  18.684  0.00  0.00    +0.000 C 
BRANCH  22  23
ATOM     23  C   UNL     1       4.141   2.366  19.683  0.00  0.00    +0.000 C 
BRANCH  23  24
ATOM     24  C   UNL     1       2.612   2.275  19.720  0.00  0.00    +0.000 C 
BRANCH  24  25
ATOM     25  C   UNL     1       2.023   3.012  20.924  0.00  0.00    +0.000 C 
BRANCH  25  27
ATOM     26  C   UNL     1       1.754   5.514  20.650  0.00  0.00    +0.000 C 
ATOM     27  C   UNL     1       1.111   4.148  20.445  0.00  0.00    +0.000 C 
ENDBRANCH  25  27
ENDBRANCH  24  25
ENDBRANCH  23  24
ENDBRANCH  22  23
ENDBRANCH  21  22
ENDBRANCH  20  21
ENDBRANCH   1  20
TORSDOF 18
ENDMDL
MODEL 5
REMARK VINA RESULT:      -6.1      2.879      6.958
REMARK  Name = 
REMARK  22 active torsions:
REMARK  status: ('A' for Active; 'I' for Inactive)
REMARK    1  A    between atoms: C_1  and  C_2
REMARK    2  A    between atoms: C_2  and  C_3
REMARK    3  A    between atoms: C_3  and  C_4
REMARK    4  A    between atoms: C_4  and  C_5
REMARK    5  A    between atoms: C_5  and  C_6
REMARK    6  A    between atoms: C_6  and  C_7
REMARK    7  A    between atoms: C_7  and  C_8
REMARK    8  A    between atoms: C_8  and  N_9
REMARK    9  A    between atoms: N_9  and  C_10
REMARK   10  A    between atoms: C_10  and  C_11
REMARK   11  A    between atoms: C_11  and  C_12
REMARK   12  A    between atoms: C_12  and  C_13
REMARK   13  A    between atoms: C_13  and  C_14
REMARK   14  A    between atoms: C_14  and  C_15
REMARK   15  A    between atoms: C_15  and  C_16
REMARK   16  A    between atoms: C_16  and  C_17
REMARK   17  A    between atoms: C_18  and  C_20
REMARK   18  A    between atoms: C_20  and  N_21
REMARK   19  A    between atoms: C_20  and  C_22
REMARK   20  A    between atoms: C_22  and  C_23
REMARK   21  A    between atoms: C_23  and  C_24
REMARK   22  A    between atoms: C_23  and  C_25
REMARK                            x       y       z     vdW  Elec       q    Type
REMARK                         _______ _______ _______ _____ _____    ______ ____
ROOT
ATOM      1  N   UNL     1       5.307   5.055  17.548  0.00  0.00    +0.000 N 
ATOM      2  C   UNL     1       4.759   4.598  18.739  0.00  0.00    +0.000 C 
ATOM      3  O   UNL     1       4.626   5.377  19.673  0.00  0.00    +0.000 OA
ENDROOT
BRANCH   2   4
ATOM      4  C   UNL     1       4.315   3.139  18.980  0.00  0.00    +0.000 C 
BRANCH   4   5
ATOM      5  N   UNL     1       5.078   2.527  20.074  0.00  0.00    +0.000 NA
ATOM      6  H   UNL     1       4.438   2.132  20.802  0.00  0.00    +0.000 HD
ATOM      7  H   UNL     1       5.765   3.181  20.504  0.00  0.00    +0.000 HD
ENDBRANCH   4   5
BRANCH   4   8
ATOM      8  C   UNL     1       2.812   2.999  19.350  0.00  0.00    +0.000 C 
BRANCH   8   9
ATOM      9  C   UNL     1       2.367   3.635  20.696  0.00  0.00    +0.000 C 
ATOM     10  C   UNL     1       1.413   4.822  20.499  0.00  0.00    +0.000 C 
ATOM     11  C   UNL     1       1.689   2.563  21.559  0.00  0.00    +0.000 C 
ENDBRANCH   8   9
ENDBRANCH   4   8
ENDBRANCH   2   4
BRANCH   1  12
ATOM     12  C   UNL     1       5.567   4.094  16.455  0.00  0.00    +0.000 C 
BRANCH  12  13
ATOM     13  C   UNL     1       5.019   4.501  15.094  0.00  0.00    +0.000 C 
BRANCH  13  14
ATOM     14  C   UNL     1       6.105   4.822  14.061  0.00  0.00    +0.000 C 
BRANCH  14  15
ATOM     15  C   UNL     1       6.506   3.516  13.366  0.00  0.00    +0.000 C 
BRANCH  15  16
ATOM     16  C   UNL     1       6.304   3.565  11.851  0.00  0.00    +0.000 C 
BRANCH  16  17
ATOM     17  C   UNL     1       5.110   2.685  11.457  0.00  0.00    +0.000 C 
BRANCH  17  18
ATOM     18  C   UNL     1       3.815   3.497  11.407  0.00  0.00    +0.000 C 
ATOM     19  C   UNL     1       3.246   3.533   9.991  0.00  0.00    +0.000 C 
ENDBRANCH  17  18
ENDBRANCH  16  17
ENDBRANCH  15  16
ENDBRANCH  14  15
ENDBRANCH  13  14
ENDBRANCH  12  13
ENDBRANCH   1  12
BRANCH   1  20
ATOM     20  C   UNL     1       5.820   6.451  17.494  0.00  0.00    +0.000 C 
BRANCH  20  21
ATOM     21  C   UNL     1       7.323   6.638  17.153  0.00  0.00    +0.000 C 
BRANCH  21  22
ATOM     22  C   UNL     1       8.121   7.529  18.111  0.00  0.00    +0.000 C 
BRANCH  22  23
ATOM     23  C   UNL     1       7.847   9.026  17.930  0.00  0.00    +0.000 C 
BRANCH  23  24
ATOM     24  C   UNL     1       9.150   9.811  18.106  0.00  0.00    +0.000 C 
BRANCH  24  25
ATOM     25  C   UNL     1       9.272  10.414  19.506  0.00  0.00    +0.000 C 
BRANCH  25  27
ATOM     26  C   UNL     1      10.443  12.184  18.127  0.00  0.00    +0.000 C 
ATOM     27  C   UNL     1      10.316  11.538  19.501  0.00  0.00    +0.000 C 
ENDBRANCH  25  27
ENDBRANCH  24  25
ENDBRANCH  23  24
ENDBRANCH  22  23
ENDBRANCH  21  22
ENDBRANCH  20  21
ENDBRANCH   1  20
TORSDOF 18
ENDMDL
MODEL 6
REMARK VINA RESULT:      -6.0      1.897      6.590
REMARK  Name = 
REMARK  22 active torsions:
REMARK  status: ('A' for Active; 'I' for Inactive)
REMARK    1  A    between atoms: C_1  and  C_2
REMARK    2  A    between atoms: C_2  and  C_3
REMARK    3  A    between atoms: C_3  and  C_4
REMARK    4  A    between atoms: C_4  and  C_5
REMARK    5  A    between atoms: C_5  and  C_6
REMARK    6  A    between atoms: C_6  and  C_7
REMARK    7  A    between atoms: C_7  and  C_8
REMARK    8  A    between atoms: C_8  and  N_9
REMARK    9  A    between atoms: N_9  and  C_10
REMARK   10  A    between atoms: C_10  and  C_11
REMARK   11  A    between atoms: C_11  and  C_12
REMARK   12  A    between atoms: C_12  and  C_13
REMARK   13  A    between atoms: C_13  and  C_14
REMARK   14  A    between atoms: C_14  and  C_15
REMARK   15  A    between atoms: C_15  and  C_16
REMARK   16  A    between atoms: C_16  and  C_17
REMARK   17  A    between atoms: C_18  and  C_20
REMARK   18  A    between atoms: C_20  and  N_21
REMARK   19  A    between atoms: C_20  and  C_22
REMARK   20  A    between atoms: C_22  and  C_23
REMARK   21  A    between atoms: C_23  and  C_24
REMARK   22  A    between atoms: C_23  and  C_25
REMARK                            x       y       z     vdW  Elec       q    Type
REMARK                         _______ _______ _______ _____ _____    ______ ____
ROOT
ATOM      1  N   UNL     1       6.080   4.234  17.365  0.00  0.00    +0.000 N 
ATOM      2  C   UNL     1       5.494   4.030  18.607  0.00  0.00    +0.000 C 
ATOM      3  O   UNL     1       6.030   4.495  19.604  0.00  0.00    +0.000 OA
ENDROOT
BRANCH   2   4
ATOM      4  C   UNL     1       4.195   3.225  18.826  0.00  0.00    +0.000 C 
BRANCH   4   5
ATOM      5  N   UNL     1       4.488   1.827  19.160  0.00  0.00    +0.000 NA
ATOM      6  H   UNL     1       3.775   1.184  18.744  0.00  0.00    +0.000 HD
ATOM      7  H   UNL     1       4.574   1.665  20.186  0.00  0.00    +0.000 HD
ENDBRANCH   4   5
BRANCH   4   8
ATOM      8  C   UNL     1       3.304   3.781  19.971  0.00  0.00    +0.000 C 
BRANCH   8   9
ATOM      9  C   UNL     1       1.840   4.145  19.596  0.00  0.00    +0.000 C 
ATOM     10  C   UNL     1       0.906   2.927  19.623  0.00  0.00    +0.000 C 
ATOM     11  C   UNL     1       1.324   5.216  20.566  0.00  0.00    +0.000 C 
ENDBRANCH   8   9
ENDBRANCH   4   8
ENDBRANCH   2   4
BRANCH   1  12
ATOM     12  C   UNL     1       5.494   3.587  16.173  0.00  0.00    +0.000 C 
BRANCH  12  13
ATOM     13  C   UNL     1       6.258   3.809  14.875  0.00  0.00    +0.000 C 
BRANCH  13  14
ATOM     14  C   UNL     1       5.360   4.141  13.678  0.00  0.00    +0.000 C 
BRANCH  14  15
ATOM     15  C   UNL     1       6.058   3.647  12.405  0.00  0.00    +0.000 C 
BRANCH  15  16
ATOM     16  C   UNL     1       5.309   2.502  11.725  0.00  0.00    +0.000 C 
BRANCH  16  17
ATOM     17  C   UNL     1       3.923   2.984  11.273  0.00  0.00    +0.000 C 
BRANCH  17  18
ATOM     18  C   UNL     1       4.029   3.954  10.096  0.00  0.00    +0.000 C 
ATOM     19  C   UNL     1       2.653   4.261   9.512  0.00  0.00    +0.000 C 
ENDBRANCH  17  18
ENDBRANCH  16  17
ENDBRANCH  15  16
ENDBRANCH  14  15
ENDBRANCH  13  14
ENDBRANCH  12  13
ENDBRANCH   1  12
BRANCH   1  20
ATOM     20  C   UNL     1       7.404   4.911  17.309  0.00  0.00    +0.000 C 
BRANCH  20  21
ATOM     21  C   UNL     1       7.403   6.446  17.074  0.00  0.00    +0.000 C 
BRANCH  21  22
ATOM     22  C   UNL     1       6.096   7.173  17.403  0.00  0.00    +0.000 C 
BRANCH  22  23
ATOM     23  C   UNL     1       5.012   7.003  16.333  0.00  0.00    +0.000 C 
BRANCH  23  24
ATOM     24  C   UNL     1       3.658   6.757  17.009  0.00  0.00    +0.000 C 
BRANCH  24  25
ATOM     25  C   UNL     1       3.326   7.839  18.037  0.00  0.00    +0.000 C 
BRANCH  25  27
ATOM     26  C   UNL     1       1.675   9.758  18.053  0.00  0.00    +0.000 C 
ATOM     27  C   UNL     1       1.855   8.253  17.900  0.00  0.00    +0.000 C 
ENDBRANCH  25  27
ENDBRANCH  24  25
ENDBRANCH  23  24
ENDBRANCH  22  23
ENDBRANCH  21  22
ENDBRANCH  20  21
ENDBRANCH   1  20
TORSDOF 18
ENDMDL
MODEL 7
REMARK VINA RESULT:      -6.0      2.771      5.166
REMARK  Name = 
REMARK  22 active torsions:
REMARK  status: ('A' for Active; 'I' for Inactive)
REMARK    1  A    between atoms: C_1  and  C_2
REMARK    2  A    between atoms: C_2  and  C_3
REMARK    3  A    between atoms: C_3  and  C_4
REMARK    4  A    between atoms: C_4  and  C_5
REMARK    5  A    between atoms: C_5  and  C_6
REMARK    6  A    between atoms: C_6  and  C_7
REMARK    7  A    between atoms: C_7  and  C_8
REMARK    8  A    between atoms: C_8  and  N_9
REMARK    9  A    between atoms: N_9  and  C_10
REMARK   10  A    between atoms: C_10  and  C_11
REMARK   11  A    between atoms: C_11  and  C_12
REMARK   12  A    between atoms: C_12  and  C_13
REMARK   13  A    between atoms: C_13  and  C_14
REMARK   14  A    between atoms: C_14  and  C_15
REMARK   15  A    between atoms: C_15  and  C_16
REMARK   16  A    between atoms: C_16  and  C_17
REMARK   17  A    between atoms: C_18  and  C_20
REMARK   18  A    between atoms: C_20  and  N_21
REMARK   19  A    between atoms: C_20  and  C_22
REMARK   20  A    between atoms: C_22  and  C_23
REMARK   21  A    between atoms: C_23  and  C_24
REMARK   22  A    between atoms: C_23  and  C_25
REMARK                            x       y       z     vdW  Elec       q    Type
REMARK                         _______ _______ _______ _____ _____    ______ ____
ROOT
ATOM      1  N   UNL     1       5.101   4.781  17.683  0.00  0.00    +0.000 N 
ATOM      2  C   UNL     1       3.749   4.961  17.941  0.00  0.00    +0.000 C 
ATOM      3  O   UNL     1       2.925   4.412  17.222  0.00  0.00    +0.000 OA
ENDROOT
BRANCH   2   4
ATOM      4  C   UNL     1       3.199   5.839  19.086  0.00  0.00    +0.000 C 
BRANCH   4   5
ATOM      5  N   UNL     1       2.756   7.145  18.586  0.00  0.00    +0.000 NA
ATOM      6  H   UNL     1       3.550   7.669  18.149  0.00  0.00    +0.000 HD
ATOM      7  H   UNL     1       2.293   7.723  19.319  0.00  0.00    +0.000 HD
ENDBRANCH   4   5
BRANCH   4   8
ATOM      8  C   UNL     1       1.987   5.209  19.827  0.00  0.00    +0.000 C 
BRANCH   8   9
ATOM      9  C   UNL     1       2.116   3.710  20.216  0.00  0.00    +0.000 C 
ATOM     10  C   UNL     1       2.183   3.500  21.735  0.00  0.00    +0.000 C 
ATOM     11  C   UNL     1       0.923   2.936  19.637  0.00  0.00    +0.000 C 
ENDBRANCH   8   9
ENDBRANCH   4   8
ENDBRANCH   2   4
BRANCH   1  12
ATOM     12  C   UNL     1       6.096   5.525  18.483  0.00  0.00    +0.000 C 
BRANCH  12  13
ATOM     13  C   UNL     1       7.281   6.069  17.696  0.00  0.00    +0.000 C 
BRANCH  13  14
ATOM     14  C   UNL     1       7.292   7.597  17.573  0.00  0.00    +0.000 C 
BRANCH  14  15
ATOM     15  C   UNL     1       8.399   8.143  18.482  0.00  0.00    +0.000 C 
BRANCH  15  16
ATOM     16  C   UNL     1       8.687   9.625  18.241  0.00  0.00    +0.000 C 
BRANCH  16  17
ATOM     17  C   UNL     1       9.293  10.248  19.506  0.00  0.00    +0.000 C 
BRANCH  17  18
ATOM     18  C   UNL     1      10.116  11.493  19.171  0.00  0.00    +0.000 C 
ATOM     19  C   UNL     1      10.377  11.590  17.671  0.00  0.00    +0.000 C 
ENDBRANCH  17  18
ENDBRANCH  16  17
ENDBRANCH  15  16
ENDBRANCH  14  15
ENDBRANCH  13  14
ENDBRANCH  12  13
ENDBRANCH   1  12
BRANCH   1  20
ATOM     20  C   UNL     1       5.494   4.021  16.466  0.00  0.00    +0.000 C 
BRANCH  20  21
ATOM     21  C   UNL     1       5.537   4.805  15.126  0.00  0.00    +0.000 C 
BRANCH  21  22
ATOM     22  C   UNL     1       6.841   4.696  14.328  0.00  0.00    +0.000 C 
BRANCH  22  23
ATOM     23  C   UNL     1       6.638   4.248  12.878  0.00  0.00    +0.000 C 
BRANCH  23  24
ATOM     24  C   UNL     1       5.454   3.279  12.800  0.00  0.00    +0.000 C 
BRANCH  24  25
ATOM     25  C   UNL     1       5.355   2.604  11.430  0.00  0.00    +0.000 C 
BRANCH  25  27
ATOM     26  C   UNL     1       6.179   0.226  11.166  0.00  0.00    +0.000 C 
ATOM     27  C   UNL     1       6.571   1.698  11.207  0.00  0.00    +0.000 C 
ENDBRANCH  25  27
ENDBRANCH  24  25
ENDBRANCH  23  24
ENDBRANCH  22  23
ENDBRANCH  21  22
ENDBRANCH  20  21
ENDBRANCH   1  20
TORSDOF 18
ENDMDL
MODEL 8
REMARK VINA RESULT:      -6.0      3.250      5.103
REMARK  Name = 
REMARK  22 active torsions:
REMARK  status: ('A' for Active; 'I' for Inactive)
REMARK    1  A    between atoms: C_1  and  C_2
REMARK    2  A    between atoms: C_2  and  C_3
REMARK    3  A    between atoms: C_3  and  C_4
REMARK    4  A    between atoms: C_4  and  C_5
REMARK    5  A    between atoms: C_5  and  C_6
REMARK    6  A    between atoms: C_6  and  C_7
REMARK    7  A    between atoms: C_7  and  C_8
REMARK    8  A    between atoms: C_8  and  N_9
REMARK    9  A    between atoms: N_9  and  C_10
REMARK   10  A    between atoms: C_10  and  C_11
REMARK   11  A    between atoms: C_11  and  C_12
REMARK   12  A    between atoms: C_12  and  C_13
REMARK   13  A    between atoms: C_13  and  C_14
REMARK   14  A    between atoms: C_14  and  C_15
REMARK   15  A    between atoms: C_15  and  C_16
REMARK   16  A    between atoms: C_16  and  C_17
REMARK   17  A    between atoms: C_18  and  C_20
REMARK   18  A    between atoms: C_20  and  N_21
REMARK   19  A    between atoms: C_20  and  C_22
REMARK   20  A    between atoms: C_22  and  C_23
REMARK   21  A    between atoms: C_23  and  C_24
REMARK   22  A    between atoms: C_23  and  C_25
REMARK                            x       y       z     vdW  Elec       q    Type
REMARK                         _______ _______ _______ _____ _____    ______ ____
ROOT
ATOM      1  N   UNL     1       6.322   5.724  18.015  0.00  0.00    +0.000 N 
ATOM      2  C   UNL     1       5.939   4.880  19.050  0.00  0.00    +0.000 C 
ATOM      3  O   UNL     1       6.564   4.902  20.102  0.00  0.00    +0.000 OA
ENDROOT
BRANCH   2   4
ATOM      4  C   UNL     1       4.765   3.881  18.958  0.00  0.00    +0.000 C 
BRANCH   4   5
ATOM      5  N   UNL     1       5.124   2.586  19.546  0.00  0.00    +0.000 NA
ATOM      6  H   UNL     1       4.392   1.867  19.343  0.00  0.00    +0.000 HD
ATOM      7  H   UNL     1       5.309   2.644  20.570  0.00  0.00    +0.000 HD
ENDBRANCH   4   5
BRANCH   4   8
ATOM      8  C   UNL     1       3.480   4.363  19.686  0.00  0.00    +0.000 C 
BRANCH   8   9
ATOM      9  C   UNL     1       2.163   3.615  19.336  0.00  0.00    +0.000 C 
ATOM     10  C   UNL     1       0.989   4.042  20.228  0.00  0.00    +0.000 C 
ATOM     11  C   UNL     1       1.815   3.870  17.863  0.00  0.00    +0.000 C 
ENDBRANCH   8   9
ENDBRANCH   4   8
ENDBRANCH   2   4
BRANCH   1  12
ATOM     12  C   UNL     1       5.638   5.626  16.710  0.00  0.00    +0.000 C 
BRANCH  12  13
ATOM     13  C   UNL     1       4.583   6.693  16.451  0.00  0.00    +0.000 C 
BRANCH  13  14
ATOM     14  C   UNL     1       4.129   7.432  17.715  0.00  0.00    +0.000 C 
BRANCH  14  15
ATOM     15  C   UNL     1       2.598   7.377  17.777  0.00  0.00    +0.000 C 
BRANCH  15  16
ATOM     16  C   UNL     1       2.007   8.406  18.741  0.00  0.00    +0.000 C 
BRANCH  16  17
ATOM     17  C   UNL     1       1.153   9.417  17.962  0.00  0.00    +0.000 C 
BRANCH  17  18
ATOM     18  C   UNL     1       1.136  10.779  18.656  0.00  0.00    +0.000 C 
ATOM     19  C   UNL     1       2.289  11.655  18.173  0.00  0.00    +0.000 C 
ENDBRANCH  17  18
ENDBRANCH  16  17
ENDBRANCH  15  16
ENDBRANCH  14  15
ENDBRANCH  13  14
ENDBRANCH  12  13
ENDBRANCH   1  12
BRANCH   1  20
ATOM     20  C   UNL     1       7.556   6.538  18.187  0.00  0.00    +0.000 C 
BRANCH  20  21
ATOM     21  C   UNL     1       7.780   7.701  17.183  0.00  0.00    +0.000 C 
BRANCH  21  22
ATOM     22  C   UNL     1       7.686   9.115  17.764  0.00  0.00    +0.000 C 
BRANCH  22  23
ATOM     23  C   UNL     1       8.843   9.473  18.702  0.00  0.00    +0.000 C 
BRANCH  23  24
ATOM     24  C   UNL     1       9.438  10.824  18.292  0.00  0.00    +0.000 C 
BRANCH  24  25
ATOM     25  C   UNL     1      10.492  11.312  19.288  0.00  0.00    +0.000 C 
BRANCH  25  27
ATOM     26  C   UNL     1       9.270  12.757  20.968  0.00  0.00    +0.000 C 
ATOM     27  C   UNL     1       9.884  11.390  20.693  0.00  0.00    +0.000 C 
ENDBRANCH  25  27
ENDBRANCH  24  25
ENDBRANCH  23  24
ENDBRANCH  22  23
ENDBRANCH  21  22
ENDBRANCH  20  21
ENDBRANCH   1  20
TORSDOF 18
ENDMDL
MODEL 9
REMARK VINA RESULT:      -6.0      0.905      1.326
REMARK  Name = 
REMARK  22 active torsions:
REMARK  status: ('A' for Active; 'I' for Inactive)
REMARK    1  A    between atoms: C_1  and  C_2
REMARK    2  A    between atoms: C_2  and  C_3
REMARK    3  A    between atoms: C_3  and  C_4
REMARK    4  A    between atoms: C_4  and  C_5
REMARK    5  A    between atoms: C_5  and  C_6
REMARK    6  A    between atoms: C_6  and  C_7
REMARK    7  A    between atoms: C_7  and  C_8
REMARK    8  A    between atoms: C_8  and  N_9
REMARK    9  A    between atoms: N_9  and  C_10
REMARK   10  A    between atoms: C_10  and  C_11
REMARK   11  A    between atoms: C_11  and  C_12
REMARK   12  A    between atoms: C_12  and  C_13
REMARK   13  A    between atoms: C_13  and  C_14
REMARK   14  A    between atoms: C_14  and  C_15
REMARK   15  A    between atoms: C_15  and  C_16
REMARK   16  A    between atoms: C_16  and  C_17
REMARK   17  A    between atoms: C_18  and  C_20
REMARK   18  A    between atoms: C_20  and  N_21
REMARK   19  A    between atoms: C_20  and  C_22
REMARK   20  A    between atoms: C_22  and  C_23
REMARK   21  A    between atoms: C_23  and  C_24
REMARK   22  A    between atoms: C_23  and  C_25
REMARK                            x       y       z     vdW  Elec       q    Type
REMARK                         _______ _______ _______ _____ _____    ______ ____
ROOT
ATOM      1  N   UNL     1       4.616   4.840  18.740  0.00  0.00    +0.000 N 
ATOM      2  C   UNL     1       4.325   3.499  18.947  0.00  0.00    +0.000 C 
ATOM      3  O   UNL     1       5.100   2.813  19.601  0.00  0.00    +0.000 OA
ENDROOT
BRANCH   2   4
ATOM      4  C   UNL     1       3.075   2.790  18.383  0.00  0.00    +0.000 C 
BRANCH   4   5
ATOM      5  N   UNL     1       3.324   1.359  18.179  0.00  0.00    +0.000 NA
ATOM      6  H   UNL     1       2.738   0.985  17.396  0.00  0.00    +0.000 HD
ATOM      7  H   UNL     1       3.184   0.796  19.044  0.00  0.00    +0.000 HD
ENDBRANCH   4   5
BRANCH   4   8
ATOM      8  C   UNL     1       1.828   2.900  19.305  0.00  0.00    +0.000 C 
BRANCH   8   9
ATOM      9  C   UNL     1       2.054   3.538  20.704  0.00  0.00    +0.000 C 
ATOM     10  C   UNL     1       1.476   4.956  20.804  0.00  0.00    +0.000 C 
ATOM     11  C   UNL     1       1.417   2.641  21.774  0.00  0.00    +0.000 C 
ENDBRANCH   8   9
ENDBRANCH   4   8
ENDBRANCH   2   4
BRANCH   1  12
ATOM     12  C   UNL     1       3.738   5.645  17.864  0.00  0.00    +0.000 C 
BRANCH  12  13
ATOM     13  C   UNL     1       3.225   6.940  18.478  0.00  0.00    +0.000 C 
BRANCH  13  14
ATOM     14  C   UNL     1       2.910   8.030  17.448  0.00  0.00    +0.000 C 
BRANCH  14  15
ATOM     15  C   UNL     1       1.670   8.795  17.924  0.00  0.00    +0.000 C 
BRANCH  15  16
ATOM     16  C   UNL     1       1.502   8.764  19.443  0.00  0.00    +0.000 C 
BRANCH  16  17
ATOM     17  C   UNL     1       0.413   9.759  19.866  0.00  0.00    +0.000 C 
BRANCH  17  18
ATOM     18  C   UNL     1       0.481  11.042  19.035  0.00  0.00    +0.000 C 
ATOM     19  C   UNL     1      -0.897  11.423  18.502  0.00  0.00    +0.000 C 
ENDBRANCH  17  18
ENDBRANCH  16  17
ENDBRANCH  15  16
ENDBRANCH  14  15
ENDBRANCH  13  14
ENDBRANCH  12  13
ENDBRANCH   1  12
BRANCH   1  20
ATOM     20  C   UNL     1       5.923   5.364  19.222  0.00  0.00    +0.000 C 
BRANCH  20  21
ATOM     21  C   UNL     1       7.152   5.157  18.296  0.00  0.00    +0.000 C 
BRANCH  21  22
ATOM     22  C   UNL     1       7.085   5.848  16.931  0.00  0.00    +0.000 C 
BRANCH  22  23
ATOM     23  C   UNL     1       7.195   4.883  15.747  0.00  0.00    +0.000 C 
BRANCH  23  24
ATOM     24  C   UNL     1       5.869   4.137  15.568  0.00  0.00    +0.000 C 
BRANCH  24  25
ATOM     25  C   UNL     1       5.495   3.978  14.093  0.00  0.00    +0.000 C 
BRANCH  25  27
ATOM     26  C   UNL     1       6.679   3.363  11.942  0.00  0.00    +0.000 C 
ATOM     27  C   UNL     1       6.733   4.198  13.215  0.00  0.00    +0.000 C 
ENDBRANCH  25  27
ENDBRANCH  24  25
ENDBRANCH  23  24
ENDBRANCH  22  23
ENDBRANCH  21  22
ENDBRANCH  20  21
ENDBRANCH   1  20
TORSDOF 18
ENDMDL
