MODEL 1
REMARK VINA RESULT:      -6.5      0.000      0.000
REMARK  Name = 
REMARK  4 active torsions:
REMARK  status: ('A' for Active; 'I' for Inactive)
REMARK    1  A    between atoms: C_2  and  C_3
REMARK    2  A    between atoms: C_2  and  C_12
REMARK    3  A    between atoms: C_3  and  N_4
REMARK    4  A    between atoms: N_4  and  C_5
REMARK                            x       y       z     vdW  Elec       q    Type
REMARK                         _______ _______ _______ _____ _____    ______ ____
ROOT
ATOM      1  N   UNL     1       5.440   3.732  19.363  0.00  0.00    +0.000 NA
ATOM      2  H   UNL     1       5.673   3.354  20.282  0.00  0.00    +0.000 HD
ENDROOT
BRANCH   1   3
ATOM      3  C   UNL     1       4.058   3.396  18.973  0.00  0.00    +0.000 C 
ATOM      4  C   UNL     1       3.554   2.234  19.846  0.00  0.00    +0.000 C 
ATOM      5  C   UNL     1       2.893   2.646  21.163  0.00  0.00    +0.000 C 
ATOM      6  C   UNL     1       1.390   2.886  21.011  0.00  0.00    +0.000 C 
ATOM      7  C   UNL     1       0.988   4.138  20.238  0.00  0.00    +0.000 C 
ATOM      8  C   UNL     1       1.642   4.313  18.870  0.00  0.00    +0.000 C 
ATOM      9  C   UNL     1       3.132   4.628  18.968  0.00  0.00    +0.000 C 
ENDBRANCH   1   3
BRANCH   1  10
ATOM     10  C   UNL     1       5.702   5.182  19.341  0.00  0.00    +0.000 C 
BRANCH  10  12
ATOM     11  O   UNL     1       7.811   6.179  18.678  0.00  0.00    +0.000 OA
ATOM     12  C   UNL     1       6.786   5.589  18.328  0.00  0.00    +0.000 C 
BRANCH  12  13
ATOM     13  C   UNL     1       6.516   5.288  16.919  0.00  0.00    +0.000 A 
ATOM     14  C   UNL     1       7.208   4.405  16.108  0.00  0.00    +0.000 A 
ATOM     15  C   UNL     1       6.711   4.374  14.772  0.00  0.00    +0.000 A 
ATOM     16  C   UNL     1       5.652   5.235  14.598  0.00  0.00    +0.000 A 
ATOM     17  S   UNL     1       5.256   6.055  16.040  0.00  0.00    +0.000 S 
ENDBRANCH  12  13
ENDBRANCH  10  12
ENDBRANCH   1  10
TORSDOF 4
ENDMDL
MODEL 2
REMARK VINA RESULT:      -6.5      1.816      2.902
REMARK  Name = 
REMARK  4 active torsions:
REMARK  status: ('A' for Active; 'I' for Inactive)
REMARK    1  A    between atoms: C_2  and  C_3
REMARK    2  A    between atoms: C_2  and  C_12
REMARK    3  A    between atoms: C_3  and  N_4
REMARK    4  A    between atoms: N_4  and  C_5
REMARK                            x       y       z     vdW  Elec       q    Type
REMARK                         _______ _______ _______ _____ _____    ______ ____
ROOT
ATOM      1  N   UNL     1       4.520   2.955  17.964  0.00  0.00    +0.000 NA
ATOM      2  H   UNL     1       5.493   2.675  18.089  0.00  0.00    +0.000 HD
ENDROOT
BRANCH   1   3
ATOM      3  C   UNL     1       3.959   3.537  19.197  0.00  0.00    +0.000 C 
ATOM      4  C   UNL     1       2.769   4.442  18.835  0.00  0.00    +0.000 C 
ATOM      5  C   UNL     1       1.413   3.738  18.762  0.00  0.00    +0.000 C 
ATOM      6  C   UNL     1       0.694   3.716  20.113  0.00  0.00    +0.000 C 
ATOM      7  C   UNL     1       1.290   2.795  21.171  0.00  0.00    +0.000 C 
ATOM      8  C   UNL     1       2.786   2.956  21.427  0.00  0.00    +0.000 C 
ATOM      9  C   UNL     1       3.637   2.467  20.258  0.00  0.00    +0.000 C 
ENDBRANCH   1   3
BRANCH   1  10
ATOM     10  C   UNL     1       4.409   3.858  16.805  0.00  0.00    +0.000 C 
BRANCH  10  12
ATOM     11  O   UNL     1       6.260   3.742  15.241  0.00  0.00    +0.000 OA
ATOM     12  C   UNL     1       5.772   4.288  16.235  0.00  0.00    +0.000 C 
BRANCH  12  13
ATOM     13  C   UNL     1       6.488   5.339  16.963  0.00  0.00    +0.000 A 
ATOM     14  C   UNL     1       6.469   6.698  16.695  0.00  0.00    +0.000 A 
ATOM     15  C   UNL     1       7.308   7.446  17.572  0.00  0.00    +0.000 A 
ATOM     16  C   UNL     1       7.945   6.640  18.487  0.00  0.00    +0.000 A 
ATOM     17  S   UNL     1       7.516   4.999  18.295  0.00  0.00    +0.000 S 
ENDBRANCH  12  13
ENDBRANCH  10  12
ENDBRANCH   1  10
TORSDOF 4
ENDMDL
MODEL 3
REMARK VINA RESULT:      -6.4      0.838      1.084
REMARK  Name = 
REMARK  4 active torsions:
REMARK  status: ('A' for Active; 'I' for Inactive)
REMARK    1  A    between atoms: C_2  and  C_3
REMARK    2  A    between atoms: C_2  and  C_12
REMARK    3  A    between atoms: C_3  and  N_4
REMARK    4  A    between atoms: N_4  and  C_5
REMARK                            x       y       z     vdW  Elec       q    Type
REMARK                         _______ _______ _______ _____ _____    ______ ____
ROOT
ATOM      1  N   UNL     1       5.292   3.456  19.124  0.00  0.00    +0.000 NA
ATOM      2  H   UNL     1       5.693   2.901  19.882  0.00  0.00    +0.000 HD
ENDROOT
BRANCH   1   3
ATOM      3  C   UNL     1       3.882   3.101  18.880  0.00  0.00    +0.000 C 
ATOM      4  C   UNL     1       3.420   2.097  19.950  0.00  0.00    +0.000 C 
ATOM      5  C   UNL     1       2.857   2.719  21.229  0.00  0.00    +0.000 C 
ATOM      6  C   UNL     1       1.351   2.973  21.140  0.00  0.00    +0.000 C 
ATOM      7  C   UNL     1       0.918   4.104  20.215  0.00  0.00    +0.000 C 
ATOM      8  C   UNL     1       1.480   4.055  18.797  0.00  0.00    +0.000 C 
ATOM      9  C   UNL     1       2.978   4.343  18.749  0.00  0.00    +0.000 C 
ENDBRANCH   1   3
BRANCH   1  10
ATOM     10  C   UNL     1       5.480   4.889  19.406  0.00  0.00    +0.000 C 
BRANCH  10  12
ATOM     11  O   UNL     1       7.457   6.203  18.907  0.00  0.00    +0.000 OA
ATOM     12  C   UNL     1       6.495   5.566  18.468  0.00  0.00    +0.000 C 
BRANCH  12  13
ATOM     13  C   UNL     1       6.233   5.464  17.030  0.00  0.00    +0.000 A 
ATOM     14  C   UNL     1       5.272   6.150  16.307  0.00  0.00    +0.000 A 
ATOM     15  C   UNL     1       5.256   5.790  14.928  0.00  0.00    +0.000 A 
ATOM     16  C   UNL     1       6.206   4.839  14.633  0.00  0.00    +0.000 A 
ATOM     17  S   UNL     1       7.115   4.403  16.009  0.00  0.00    +0.000 S 
ENDBRANCH  12  13
ENDBRANCH  10  12
ENDBRANCH   1  10
TORSDOF 4
ENDMDL
MODEL 4
REMARK VINA RESULT:      -6.3      2.702      6.180
REMARK  Name = 
REMARK  4 active torsions:
REMARK  status: ('A' for Active; 'I' for Inactive)
REMARK    1  A    between atoms: C_2  and  C_3
REMARK    2  A    between atoms: C_2  and  C_12
REMARK    3  A    between atoms: C_3  and  N_4
REMARK    4  A    between atoms: N_4  and  C_5
REMARK                            x       y       z     vdW  Elec       q    Type
REMARK                         _______ _______ _______ _____ _____    ______ ____
ROOT
ATOM      1  N   UNL     1       4.221   4.501  16.449  0.00  0.00    +0.000 NA
ATOM      2  H   UNL     1       3.847   5.068  15.687  0.00  0.00    +0.000 HD
ENDROOT
BRANCH   1   3
ATOM      3  C   UNL     1       5.688   4.623  16.546  0.00  0.00    +0.000 C 
ATOM      4  C   UNL     1       6.126   5.962  15.927  0.00  0.00    +0.000 C 
ATOM      5  C   UNL     1       6.141   7.151  16.888  0.00  0.00    +0.000 C 
ATOM      6  C   UNL     1       7.483   7.303  17.607  0.00  0.00    +0.000 C 
ATOM      7  C   UNL     1       7.798   6.248  18.662  0.00  0.00    +0.000 C 
ATOM      8  C   UNL     1       7.656   4.796  18.213  0.00  0.00    +0.000 C 
ATOM      9  C   UNL     1       6.203   4.393  17.980  0.00  0.00    +0.000 C 
ENDBRANCH   1   3
BRANCH   1  10
ATOM     10  C   UNL     1       3.536   4.844  17.707  0.00  0.00    +0.000 C 
BRANCH  10  12
ATOM     11  O   UNL     1       1.463   3.722  17.134  0.00  0.00    +0.000 OA
ATOM     12  C   UNL     1       2.314   3.954  17.997  0.00  0.00    +0.000 C 
BRANCH  12  13
ATOM     13  C   UNL     1       2.183   3.440  19.363  0.00  0.00    +0.000 A 
ATOM     14  C   UNL     1       1.048   3.457  20.154  0.00  0.00    +0.000 A 
ATOM     15  C   UNL     1       1.268   2.909  21.451  0.00  0.00    +0.000 A 
ATOM     16  C   UNL     1       2.567   2.486  21.617  0.00  0.00    +0.000 A 
ATOM     17  S   UNL     1       3.500   2.735  20.210  0.00  0.00    +0.000 S 
ENDBRANCH  12  13
ENDBRANCH  10  12
ENDBRANCH   1  10
TORSDOF 4
ENDMDL
MODEL 5
REMARK VINA RESULT:      -6.2      2.005      2.622
REMARK  Name = 
REMARK  4 active torsions:
REMARK  status: ('A' for Active; 'I' for Inactive)
REMARK    1  A    between atoms: C_2  and  C_3
REMARK    2  A    between atoms: C_2  and  C_12
REMARK    3  A    between atoms: C_3  and  N_4
REMARK    4  A    between atoms: N_4  and  C_5
REMARK                            x       y       z     vdW  Elec       q    Type
REMARK                         _______ _______ _______ _____ _____    ______ ____
ROOT
ATOM      1  N   UNL     1       5.151   3.085  19.306  0.00  0.00    +0.000 NA
ATOM      2  H   UNL     1       5.628   3.236  20.196  0.00  0.00    +0.000 HD
ENDROOT
BRANCH   1   3
ATOM      3  C   UNL     1       3.950   2.247  19.469  0.00  0.00    +0.000 C 
ATOM      4  C   UNL     1       3.419   2.396  20.906  0.00  0.00    +0.000 C 
ATOM      5  C   UNL     1       2.431   3.544  21.121  0.00  0.00    +0.000 C 
ATOM      6  C   UNL     1       0.982   3.120  20.872  0.00  0.00    +0.000 C 
ATOM      7  C   UNL     1       0.604   2.859  19.417  0.00  0.00    +0.000 C 
ATOM      8  C   UNL     1       1.520   1.909  18.652  0.00  0.00    +0.000 C 
ATOM      9  C   UNL     1       2.895   2.512  18.378  0.00  0.00    +0.000 C 
ENDBRANCH   1   3
BRANCH   1  10
ATOM     10  C   UNL     1       4.860   4.383  18.673  0.00  0.00    +0.000 C 
BRANCH  10  12
ATOM     11  O   UNL     1       5.973   4.060  16.542  0.00  0.00    +0.000 OA
ATOM     12  C   UNL     1       5.852   4.753  17.557  0.00  0.00    +0.000 C 
BRANCH  12  13
ATOM     13  C   UNL     1       6.685   5.937  17.781  0.00  0.00    +0.000 A 
ATOM     14  C   UNL     1       6.687   7.107  17.041  0.00  0.00    +0.000 A 
ATOM     15  C   UNL     1       7.648   8.053  17.503  0.00  0.00    +0.000 A 
ATOM     16  C   UNL     1       8.355   7.582  18.584  0.00  0.00    +0.000 A 
ATOM     17  S   UNL     1       7.846   6.019  19.043  0.00  0.00    +0.000 S 
ENDBRANCH  12  13
ENDBRANCH  10  12
ENDBRANCH   1  10
TORSDOF 4
ENDMDL
MODEL 6
REMARK VINA RESULT:      -6.2      1.933      2.851
REMARK  Name = 
REMARK  4 active torsions:
REMARK  status: ('A' for Active; 'I' for Inactive)
REMARK    1  A    between atoms: C_2  and  C_3
REMARK    2  A    between atoms: C_2  and  C_12
REMARK    3  A    between atoms: C_3  and  N_4
REMARK    4  A    between atoms: N_4  and  C_5
REMARK                            x       y       z     vdW  Elec       q    Type
REMARK                         _______ _______ _______ _____ _____    ______ ____
ROOT
ATOM      1  N   UNL     1       4.236   3.995  17.168  0.00  0.00    +0.000 NA
ATOM      2  H   UNL     1       5.006   3.774  17.801  0.00  0.00    +0.000 HD
ENDROOT
BRANCH   1   3
ATOM      3  C   UNL     1       3.134   4.676  17.872  0.00  0.00    +0.000 C 
ATOM      4  C   UNL     1       1.829   3.891  17.649  0.00  0.00    +0.000 C 
ATOM      5  C   UNL     1       1.554   2.780  18.663  0.00  0.00    +0.000 C 
ATOM      6  C   UNL     1       0.778   3.282  19.882  0.00  0.00    +0.000 C 
ATOM      7  C   UNL     1       1.551   4.180  20.842  0.00  0.00    +0.000 C 
ATOM      8  C   UNL     1       2.269   5.368  20.209  0.00  0.00    +0.000 C 
ATOM      9  C   UNL     1       3.461   4.946  19.354  0.00  0.00    +0.000 C 
ENDBRANCH   1   3
BRANCH   1  10
ATOM     10  C   UNL     1       4.743   4.768  16.020  0.00  0.00    +0.000 C 
BRANCH  10  12
ATOM     11  O   UNL     1       6.881   4.276  14.986  0.00  0.00    +0.000 OA
ATOM     12  C   UNL     1       6.279   4.790  15.933  0.00  0.00    +0.000 C 
BRANCH  12  13
ATOM     13  C   UNL     1       6.994   5.405  17.055  0.00  0.00    +0.000 A 
ATOM     14  C   UNL     1       7.559   4.755  18.138  0.00  0.00    +0.000 A 
ATOM     15  C   UNL     1       8.150   5.652  19.075  0.00  0.00    +0.000 A 
ATOM     16  C   UNL     1       8.021   6.964  18.682  0.00  0.00    +0.000 A 
ATOM     17  S   UNL     1       7.209   7.103  17.188  0.00  0.00    +0.000 S 
ENDBRANCH  12  13
ENDBRANCH  10  12
ENDBRANCH   1  10
TORSDOF 4
ENDMDL
MODEL 7
REMARK VINA RESULT:      -6.2      1.923      2.696
REMARK  Name = 
REMARK  4 active torsions:
REMARK  status: ('A' for Active; 'I' for Inactive)
REMARK    1  A    between atoms: C_2  and  C_3
REMARK    2  A    between atoms: C_2  and  C_12
REMARK    3  A    between atoms: C_3  and  N_4
REMARK    4  A    between atoms: N_4  and  C_5
REMARK                            x       y       z     vdW  Elec       q    Type
REMARK                         _______ _______ _______ _____ _____    ______ ____
ROOT
ATOM      1  N   UNL     1       4.813   3.187  17.230  0.00  0.00    +0.000 NA
ATOM      2  H   UNL     1       5.326   3.566  18.027  0.00  0.00    +0.000 HD
ENDROOT
BRANCH   1   3
ATOM      3  C   UNL     1       3.431   2.827  17.596  0.00  0.00    +0.000 C 
ATOM      4  C   UNL     1       3.458   1.887  18.814  0.00  0.00    +0.000 C 
ATOM      5  C   UNL     1       3.449   2.583  20.176  0.00  0.00    +0.000 C 
ATOM      6  C   UNL     1       2.031   2.840  20.690  0.00  0.00    +0.000 C 
ATOM      7  C   UNL     1       1.241   3.920  19.959  0.00  0.00    +0.000 C 
ATOM      8  C   UNL     1       1.183   3.788  18.440  0.00  0.00    +0.000 C 
ATOM      9  C   UNL     1       2.529   4.064  17.775  0.00  0.00    +0.000 C 
ENDBRANCH   1   3
BRANCH   1  10
ATOM     10  C   UNL     1       4.876   4.133  16.102  0.00  0.00    +0.000 C 
BRANCH  10  12
ATOM     11  O   UNL     1       6.930   4.270  14.820  0.00  0.00    +0.000 OA
ATOM     12  C   UNL     1       6.300   4.641  15.814  0.00  0.00    +0.000 C 
BRANCH  12  13
ATOM     13  C   UNL     1       6.891   5.544  16.805  0.00  0.00    +0.000 A 
ATOM     14  C   UNL     1       6.973   6.924  16.730  0.00  0.00    +0.000 A 
ATOM     15  C   UNL     1       7.644   7.500  17.849  0.00  0.00    +0.000 A 
ATOM     16  C   UNL     1       8.057   6.544  18.748  0.00  0.00    +0.000 A 
ATOM     17  S   UNL     1       7.619   4.972  18.251  0.00  0.00    +0.000 S 
ENDBRANCH  12  13
ENDBRANCH  10  12
ENDBRANCH   1  10
TORSDOF 4
ENDMDL
MODEL 8
REMARK VINA RESULT:      -6.2      1.483      1.885
REMARK  Name = 
REMARK  4 active torsions:
REMARK  status: ('A' for Active; 'I' for Inactive)
REMARK    1  A    between atoms: C_2  and  C_3
REMARK    2  A    between atoms: C_2  and  C_12
REMARK    3  A    between atoms: C_3  and  N_4
REMARK    4  A    between atoms: N_4  and  C_5
REMARK                            x       y       z     vdW  Elec       q    Type
REMARK                         _______ _______ _______ _____ _____    ______ ____
ROOT
ATOM      1  N   UNL     1       4.821   5.125  19.442  0.00  0.00    +0.000 NA
ATOM      2  H   UNL     1       5.208   5.499  20.310  0.00  0.00    +0.000 HD
ENDROOT
BRANCH   1   3
ATOM      3  C   UNL     1       3.352   5.241  19.408  0.00  0.00    +0.000 C 
ATOM      4  C   UNL     1       2.832   4.695  18.066  0.00  0.00    +0.000 C 
ATOM      5  C   UNL     1       2.537   3.195  18.042  0.00  0.00    +0.000 C 
ATOM      6  C   UNL     1       1.103   2.876  18.469  0.00  0.00    +0.000 C 
ATOM      7  C   UNL     1       0.787   3.072  19.948  0.00  0.00    +0.000 C 
ATOM      8  C   UNL     1       1.172   4.427  20.536  0.00  0.00    +0.000 C 
ATOM      9  C   UNL     1       2.683   4.611  20.645  0.00  0.00    +0.000 C 
ENDBRANCH   1   3
BRANCH   1  10
ATOM     10  C   UNL     1       5.472   5.771  18.290  0.00  0.00    +0.000 C 
BRANCH  10  12
ATOM     11  O   UNL     1       7.576   4.570  18.407  0.00  0.00    +0.000 OA
ATOM     12  C   UNL     1       6.634   4.948  17.705  0.00  0.00    +0.000 C 
BRANCH  12  13
ATOM     13  C   UNL     1       6.593   4.682  16.265  0.00  0.00    +0.000 A 
ATOM     14  C   UNL     1       7.409   5.233  15.292  0.00  0.00    +0.000 A 
ATOM     15  C   UNL     1       7.081   4.789  13.978  0.00  0.00    +0.000 A 
ATOM     16  C   UNL     1       6.024   3.909  13.981  0.00  0.00    +0.000 A 
ATOM     17  S   UNL     1       5.449   3.613  15.560  0.00  0.00    +0.000 S 
ENDBRANCH  12  13
ENDBRANCH  10  12
ENDBRANCH   1  10
TORSDOF 4
ENDMDL
MODEL 9
REMARK VINA RESULT:      -6.1      1.968      2.696
REMARK  Name = 
REMARK  4 active torsions:
REMARK  status: ('A' for Active; 'I' for Inactive)
REMARK    1  A    between atoms: C_2  and  C_3
REMARK    2  A    between atoms: C_2  and  C_12
REMARK    3  A    between atoms: C_3  and  N_4
REMARK    4  A    between atoms: N_4  and  C_5
REMARK                            x       y       z     vdW  Elec       q    Type
REMARK                         _______ _______ _______ _____ _____    ______ ____
ROOT
ATOM      1  N   UNL     1       3.162   4.227  17.161  0.00  0.00    +0.000 NA
ATOM      2  H   UNL     1       2.692   3.608  16.499  0.00  0.00    +0.000 HD
ENDROOT
BRANCH   1   3
ATOM      3  C   UNL     1       2.282   4.585  18.288  0.00  0.00    +0.000 C 
ATOM      4  C   UNL     1       1.232   3.477  18.482  0.00  0.00    +0.000 C 
ATOM      5  C   UNL     1       1.654   2.333  19.406  0.00  0.00    +0.000 C 
ATOM      6  C   UNL     1       1.305   2.607  20.870  0.00  0.00    +0.000 C 
ATOM      7  C   UNL     1       2.137   3.680  21.564  0.00  0.00    +0.000 C 
ATOM      8  C   UNL     1       2.236   5.018  20.837  0.00  0.00    +0.000 C 
ATOM      9  C   UNL     1       3.073   4.933  19.564  0.00  0.00    +0.000 C 
ENDBRANCH   1   3
BRANCH   1  10
ATOM     10  C   UNL     1       4.429   3.617  17.597  0.00  0.00    +0.000 C 
BRANCH  10  12
ATOM     11  O   UNL     1       5.961   3.500  15.720  0.00  0.00    +0.000 OA
ATOM     12  C   UNL     1       5.642   4.071  16.766  0.00  0.00    +0.000 C 
BRANCH  12  13
ATOM     13  C   UNL     1       6.432   5.182  17.306  0.00  0.00    +0.000 A 
ATOM     14  C   UNL     1       7.375   5.119  18.317  0.00  0.00    +0.000 A 
ATOM     15  C   UNL     1       7.936   6.391  18.630  0.00  0.00    +0.000 A 
ATOM     16  C   UNL     1       7.407   7.393  17.850  0.00  0.00    +0.000 A 
ATOM     17  S   UNL     1       6.258   6.793  16.740  0.00  0.00    +0.000 S 
ENDBRANCH  12  13
ENDBRANCH  10  12
ENDBRANCH   1  10
TORSDOF 4
ENDMDL
