MODEL 1
REMARK VINA RESULT:      -8.4      0.000      0.000
REMARK  Name = 
REMARK  12 active torsions:
REMARK  status: ('A' for Active; 'I' for Inactive)
REMARK    1  A    between atoms: C_1  and  C_2
REMARK    2  A    between atoms: C_2  and  O_3
REMARK    3  A    between atoms: O_3  and  C_4
REMARK    4  A    between atoms: C_4  and  C_6
REMARK    5  A    between atoms: C_15  and  C_16
REMARK    6  A    between atoms: N_17  and  N_18
REMARK    7  A    between atoms: C_19  and  C_21
REMARK    8  A    between atoms: C_25  and  O_27
REMARK    9  A    between atoms: O_27  and  C_28
REMARK   10  A    between atoms: C_28  and  C_29
REMARK   11  A    between atoms: C_28  and  C_30
REMARK   12  A    between atoms: C_28  and  C_31
REMARK                            x       y       z     vdW  Elec       q    Type
REMARK                         _______ _______ _______ _____ _____    ______ ____
ROOT
ATOM      1  C   UNL     1       9.390  10.185  19.712  0.00  0.00    +0.000 C 
ATOM      2  N   UNL     1       8.675   9.670  18.760  0.00  0.00    +0.000 NA
ENDROOT
BRANCH   1  12
ATOM      3  C   UNL     1       9.047  12.392  20.910  0.00  0.00    +0.000 A 
ATOM      4  N   UNL     1       9.320  13.713  20.614  0.00  0.00    +0.000 N 
ATOM      5  C   UNL     1       9.945  13.829  19.395  0.00  0.00    +0.000 A 
ATOM      6  C   UNL     1      10.438  14.963  18.730  0.00  0.00    +0.000 A 
ATOM      7  C   UNL     1      11.018  14.775  17.471  0.00  0.00    +0.000 A 
ATOM      8 CL   UNL     1      11.629  16.137  16.610  0.00  0.00    +0.000 Cl
ATOM      9  C   UNL     1      11.106  13.512  16.896  0.00  0.00    +0.000 A 
ATOM     10  C   UNL     1      10.625  12.393  17.584  0.00  0.00    +0.000 A 
ATOM     11  C   UNL     1      10.042  12.545  18.863  0.00  0.00    +0.000 A 
ATOM     12  C   UNL     1       9.482  11.634  19.821  0.00  0.00    +0.000 A 
ATOM     13  H   UNL     1       9.118  14.487  21.234  0.00  0.00    +0.000 HD
BRANCH   3  14
ATOM     14  C   UNL     1       8.444  11.940  22.144  0.00  0.00    +0.000 C 
ATOM     15  O   UNL     1       8.521  10.801  22.582  0.00  0.00    +0.000 OA
BRANCH  14  16
ATOM     16  O   UNL     1       7.686  12.937  22.693  0.00  0.00    +0.000 OA
BRANCH  16  18
ATOM     17  C   UNL     1       6.016  12.731  24.418  0.00  0.00    +0.000 C 
ATOM     18  C   UNL     1       7.503  12.818  24.114  0.00  0.00    +0.000 C 
ENDBRANCH  16  18
ENDBRANCH  14  16
ENDBRANCH   3  14
ENDBRANCH   1  12
BRANCH   2  19
ATOM     19  N   UNL     1       8.631   8.299  18.695  0.00  0.00    +0.000 N 
ATOM     20  C   UNL     1       7.710   7.695  17.828  0.00  0.00    +0.000 C 
ATOM     21  O   UNL     1       6.933   8.311  17.127  0.00  0.00    +0.000 OA
ATOM     22  H   UNL     1       9.280   7.766  19.261  0.00  0.00    +0.000 HD
BRANCH  20  23
ATOM     23  C   UNL     1       7.737   6.150  17.838  0.00  0.00    +0.000 C 
ATOM     24  C   UNL     1       6.970   5.584  16.636  0.00  0.00    +0.000 C 
ATOM     25  C   UNL     1       5.460   5.698  16.828  0.00  0.00    +0.000 C 
ATOM     26  N   UNL     1       5.060   5.056  18.076  0.00  0.00    +0.000 N 
ATOM     27  C   UNL     1       4.080   4.075  18.047  0.00  0.00    +0.000 C 
ATOM     28  O   UNL     1       3.557   3.724  17.002  0.00  0.00    +0.000 OA
ATOM     29  C   UNL     1       5.696   5.554  19.279  0.00  0.00    +0.000 C 
ATOM     30  C   UNL     1       7.220   5.487  19.135  0.00  0.00    +0.000 C 
BRANCH  27  31
ATOM     31  O   UNL     1       3.802   3.550  19.287  0.00  0.00    +0.000 OA
BRANCH  31  32
ATOM     32  C   UNL     1       2.456   3.720  19.820  0.00  0.00    +0.000 C 
ATOM     33  C   UNL     1       2.364   3.178  21.254  0.00  0.00    +0.000 C 
ATOM     34  C   UNL     1       2.070   5.211  19.765  0.00  0.00    +0.000 C 
ATOM     35  C   UNL     1       1.477   2.953  18.931  0.00  0.00    +0.000 C 
ENDBRANCH  31  32
ENDBRANCH  27  31
ENDBRANCH  20  23
ENDBRANCH   2  19
TORSDOF 8
ENDMDL
MODEL 2
REMARK VINA RESULT:      -8.1      6.830     10.665
REMARK  Name = 
REMARK  12 active torsions:
REMARK  status: ('A' for Active; 'I' for Inactive)
REMARK    1  A    between atoms: C_1  and  C_2
REMARK    2  A    between atoms: C_2  and  O_3
REMARK    3  A    between atoms: O_3  and  C_4
REMARK    4  A    between atoms: C_4  and  C_6
REMARK    5  A    between atoms: C_15  and  C_16
REMARK    6  A    between atoms: N_17  and  N_18
REMARK    7  A    between atoms: C_19  and  C_21
REMARK    8  A    between atoms: C_25  and  O_27
REMARK    9  A    between atoms: O_27  and  C_28
REMARK   10  A    between atoms: C_28  and  C_29
REMARK   11  A    between atoms: C_28  and  C_30
REMARK   12  A    between atoms: C_28  and  C_31
REMARK                            x       y       z     vdW  Elec       q    Type
REMARK                         _______ _______ _______ _____ _____    ______ ____
ROOT
ATOM      1  C   UNL     1       3.129   8.052  17.877  0.00  0.00    +0.000 C 
ATOM      2  N   UNL     1       1.862   8.329  17.904  0.00  0.00    +0.000 NA
ENDROOT
BRANCH   1  12
ATOM      3  C   UNL     1       4.539   6.028  17.295  0.00  0.00    +0.000 A 
ATOM      4  N   UNL     1       4.635   4.737  17.777  0.00  0.00    +0.000 N 
ATOM      5  C   UNL     1       3.777   4.537  18.832  0.00  0.00    +0.000 A 
ATOM      6  C   UNL     1       3.580   3.407  19.641  0.00  0.00    +0.000 A 
ATOM      7  C   UNL     1       2.607   3.491  20.644  0.00  0.00    +0.000 A 
ATOM      8 CL   UNL     1       2.321   2.126  21.658  0.00  0.00    +0.000 Cl
ATOM      9  C   UNL     1       1.862   4.648  20.835  0.00  0.00    +0.000 A 
ATOM     10  C   UNL     1       2.087   5.769  20.029  0.00  0.00    +0.000 A 
ATOM     11  C   UNL     1       3.069   5.724  19.013  0.00  0.00    +0.000 A 
ATOM     12  C   UNL     1       3.553   6.670  18.048  0.00  0.00    +0.000 A 
ATOM     13  H   UNL     1       5.282   4.046  17.421  0.00  0.00    +0.000 HD
BRANCH   3  14
ATOM     14  C   UNL     1       5.352   6.562  16.224  0.00  0.00    +0.000 C 
ATOM     15  O   UNL     1       4.913   7.033  15.185  0.00  0.00    +0.000 OA
BRANCH  14  16
ATOM     16  O   UNL     1       6.677   6.366  16.493  0.00  0.00    +0.000 OA
BRANCH  16  18
ATOM     17  C   UNL     1       7.890   6.549  18.567  0.00  0.00    +0.000 C 
ATOM     18  C   UNL     1       7.231   7.308  17.426  0.00  0.00    +0.000 C 
ENDBRANCH  16  18
ENDBRANCH  14  16
ENDBRANCH   3  14
ENDBRANCH   1  12
BRANCH   2  19
ATOM     19  N   UNL     1       1.516   9.649  17.749  0.00  0.00    +0.000 N 
ATOM     20  C   UNL     1       0.794  10.280  18.771  0.00  0.00    +0.000 C 
ATOM     21  O   UNL     1       0.441   9.728  19.793  0.00  0.00    +0.000 OA
ATOM     22  H   UNL     1       1.813  10.133  16.910  0.00  0.00    +0.000 HD
BRANCH  20  23
ATOM     23  C   UNL     1       0.449  11.760  18.493  0.00  0.00    +0.000 C 
ATOM     24  C   UNL     1       1.098  12.676  19.539  0.00  0.00    +0.000 C 
ATOM     25  C   UNL     1       0.365  12.611  20.877  0.00  0.00    +0.000 C 
ATOM     26  N   UNL     1      -1.049  12.919  20.692  0.00  0.00    +0.000 N 
ATOM     27  C   UNL     1      -1.624  13.931  21.446  0.00  0.00    +0.000 C 
ATOM     28  O   UNL     1      -0.972  14.582  22.245  0.00  0.00    +0.000 OA
ATOM     29  C   UNL     1      -1.766  12.076  19.756  0.00  0.00    +0.000 C 
ATOM     30  C   UNL     1      -1.060  12.082  18.395  0.00  0.00    +0.000 C 
BRANCH  27  31
ATOM     31  O   UNL     1      -2.958  14.121  21.171  0.00  0.00    +0.000 OA
BRANCH  31  32
ATOM     32  C   UNL     1      -3.929  13.754  22.193  0.00  0.00    +0.000 C 
ATOM     33  C   UNL     1      -4.296  14.969  23.059  0.00  0.00    +0.000 C 
ATOM     34  C   UNL     1      -5.180  13.157  21.519  0.00  0.00    +0.000 C 
ATOM     35  C   UNL     1      -3.319  12.671  23.082  0.00  0.00    +0.000 C 
ENDBRANCH  31  32
ENDBRANCH  27  31
ENDBRANCH  20  23
ENDBRANCH   2  19
TORSDOF 8
ENDMDL
MODEL 3
REMARK VINA RESULT:      -8.0      6.263     10.837
REMARK  Name = 
REMARK  12 active torsions:
REMARK  status: ('A' for Active; 'I' for Inactive)
REMARK    1  A    between atoms: C_1  and  C_2
REMARK    2  A    between atoms: C_2  and  O_3
REMARK    3  A    between atoms: O_3  and  C_4
REMARK    4  A    between atoms: C_4  and  C_6
REMARK    5  A    between atoms: C_15  and  C_16
REMARK    6  A    between atoms: N_17  and  N_18
REMARK    7  A    between atoms: C_19  and  C_21
REMARK    8  A    between atoms: C_25  and  O_27
REMARK    9  A    between atoms: O_27  and  C_28
REMARK   10  A    between atoms: C_28  and  C_29
REMARK   11  A    between atoms: C_28  and  C_30
REMARK   12  A    between atoms: C_28  and  C_31
REMARK                            x       y       z     vdW  Elec       q    Type
REMARK                         _______ _______ _______ _____ _____    ______ ____
ROOT
ATOM      1  C   UNL     1       3.032   8.247  18.105  0.00  0.00    +0.000 C 
ATOM      2  N   UNL     1       1.809   8.592  17.847  0.00  0.00    +0.000 NA
ENDROOT
BRANCH   1  12
ATOM      3  C   UNL     1       4.331   6.193  17.387  0.00  0.00    +0.000 A 
ATOM      4  N   UNL     1       4.338   4.864  17.763  0.00  0.00    +0.000 N 
ATOM      5  C   UNL     1       3.445   4.634  18.784  0.00  0.00    +0.000 A 
ATOM      6  C   UNL     1       3.162   3.458  19.496  0.00  0.00    +0.000 A 
ATOM      7  C   UNL     1       2.174   3.521  20.485  0.00  0.00    +0.000 A 
ATOM      8 CL   UNL     1       1.783   2.101  21.380  0.00  0.00    +0.000 Cl
ATOM      9  C   UNL     1       1.496   4.703  20.756  0.00  0.00    +0.000 A 
ATOM     10  C   UNL     1       1.806   5.869  20.047  0.00  0.00    +0.000 A 
ATOM     11  C   UNL     1       2.806   5.844  19.048  0.00  0.00    +0.000 A 
ATOM     12  C   UNL     1       3.369   6.832  18.171  0.00  0.00    +0.000 A 
ATOM     13  H   UNL     1       4.949   4.164  17.364  0.00  0.00    +0.000 HD
BRANCH   3  14
ATOM     14  C   UNL     1       5.197   6.759  16.377  0.00  0.00    +0.000 C 
ATOM     15  O   UNL     1       5.028   6.648  15.171  0.00  0.00    +0.000 OA
BRANCH  14  16
ATOM     16  O   UNL     1       6.288   7.341  16.961  0.00  0.00    +0.000 OA
BRANCH  16  18
ATOM     17  C   UNL     1       7.802   6.457  18.613  0.00  0.00    +0.000 C 
ATOM     18  C   UNL     1       7.398   6.447  17.148  0.00  0.00    +0.000 C 
ENDBRANCH  16  18
ENDBRANCH  14  16
ENDBRANCH   3  14
ENDBRANCH   1  12
BRANCH   2  19
ATOM     19  N   UNL     1       1.543   9.939  17.807  0.00  0.00    +0.000 N 
ATOM     20  C   UNL     1       0.587  10.462  18.688  0.00  0.00    +0.000 C 
ATOM     21  O   UNL     1      -0.036   9.795  19.489  0.00  0.00    +0.000 OA
ATOM     22  H   UNL     1       2.062  10.516  17.157  0.00  0.00    +0.000 HD
BRANCH  20  23
ATOM     23  C   UNL     1       0.359  11.984  18.556  0.00  0.00    +0.000 C 
ATOM     24  C   UNL     1       1.589  12.763  19.037  0.00  0.00    +0.000 C 
ATOM     25  C   UNL     1       1.692  12.770  20.561  0.00  0.00    +0.000 C 
ATOM     26  N   UNL     1       0.461  13.289  21.147  0.00  0.00    +0.000 N 
ATOM     27  C   UNL     1       0.531  14.353  22.033  0.00  0.00    +0.000 C 
ATOM     28  O   UNL     1       1.594  14.878  22.320  0.00  0.00    +0.000 OA
ATOM     29  C   UNL     1      -0.757  12.589  20.790  0.00  0.00    +0.000 C 
ATOM     30  C   UNL     1      -0.903  12.529  19.266  0.00  0.00    +0.000 C 
BRANCH  27  31
ATOM     31  O   UNL     1      -0.699  14.746  22.507  0.00  0.00    +0.000 OA
BRANCH  31  32
ATOM     32  C   UNL     1      -1.263  15.992  22.004  0.00  0.00    +0.000 C 
ATOM     33  C   UNL     1      -0.730  16.303  20.597  0.00  0.00    +0.000 C 
ATOM     34  C   UNL     1      -2.801  15.894  22.005  0.00  0.00    +0.000 C 
ATOM     35  C   UNL     1      -0.870  17.125  22.951  0.00  0.00    +0.000 C 
ENDBRANCH  31  32
ENDBRANCH  27  31
ENDBRANCH  20  23
ENDBRANCH   2  19
TORSDOF 8
ENDMDL
MODEL 4
REMARK VINA RESULT:      -8.0      6.641     10.235
REMARK  Name = 
REMARK  12 active torsions:
REMARK  status: ('A' for Active; 'I' for Inactive)
REMARK    1  A    between atoms: C_1  and  C_2
REMARK    2  A    between atoms: C_2  and  O_3
REMARK    3  A    between atoms: O_3  and  C_4
REMARK    4  A    between atoms: C_4  and  C_6
REMARK    5  A    between atoms: C_15  and  C_16
REMARK    6  A    between atoms: N_17  and  N_18
REMARK    7  A    between atoms: C_19  and  C_21
REMARK    8  A    between atoms: C_25  and  O_27
REMARK    9  A    between atoms: O_27  and  C_28
REMARK   10  A    between atoms: C_28  and  C_29
REMARK   11  A    between atoms: C_28  and  C_30
REMARK   12  A    between atoms: C_28  and  C_31
REMARK                            x       y       z     vdW  Elec       q    Type
REMARK                         _______ _______ _______ _____ _____    ______ ____
ROOT
ATOM      1  C   UNL     1       2.694   7.673  18.711  0.00  0.00    +0.000 C 
ATOM      2  N   UNL     1       2.549   8.581  17.796  0.00  0.00    +0.000 NA
ENDROOT
BRANCH   1  12
ATOM      3  C   UNL     1       2.640   5.147  18.912  0.00  0.00    +0.000 A 
ATOM      4  N   UNL     1       3.248   4.104  18.241  0.00  0.00    +0.000 N 
ATOM      5  C   UNL     1       4.037   4.568  17.215  0.00  0.00    +0.000 A 
ATOM      6  C   UNL     1       4.790   3.867  16.259  0.00  0.00    +0.000 A 
ATOM      7  C   UNL     1       5.521   4.619  15.333  0.00  0.00    +0.000 A 
ATOM      8 CL   UNL     1       6.469   3.805  14.145  0.00  0.00    +0.000 Cl
ATOM      9  C   UNL     1       5.506   6.008  15.354  0.00  0.00    +0.000 A 
ATOM     10  C   UNL     1       4.735   6.687  16.305  0.00  0.00    +0.000 A 
ATOM     11  C   UNL     1       3.974   5.959  17.249  0.00  0.00    +0.000 A 
ATOM     12  C   UNL     1       3.087   6.328  18.316  0.00  0.00    +0.000 A 
ATOM     13  H   UNL     1       3.098   3.127  18.456  0.00  0.00    +0.000 HD
BRANCH   3  14
ATOM     14  C   UNL     1       1.708   4.981  20.005  0.00  0.00    +0.000 C 
ATOM     15  O   UNL     1       1.511   5.807  20.885  0.00  0.00    +0.000 OA
BRANCH  14  16
ATOM     16  O   UNL     1       1.161   3.729  19.975  0.00  0.00    +0.000 OA
BRANCH  16  18
ATOM     17  C   UNL     1       2.617   2.573  21.507  0.00  0.00    +0.000 C 
ATOM     18  C   UNL     1       1.197   3.044  21.238  0.00  0.00    +0.000 C 
ENDBRANCH  16  18
ENDBRANCH  14  16
ENDBRANCH   3  14
ENDBRANCH   1  12
BRANCH   2  19
ATOM     19  N   UNL     1       2.166   9.829  18.221  0.00  0.00    +0.000 N 
ATOM     20  C   UNL     1       0.817  10.192  18.115  0.00  0.00    +0.000 C 
ATOM     21  O   UNL     1      -0.047   9.470  17.658  0.00  0.00    +0.000 OA
ATOM     22  H   UNL     1       2.867  10.442  18.620  0.00  0.00    +0.000 HD
BRANCH  20  23
ATOM     23  C   UNL     1       0.494  11.618  18.614  0.00  0.00    +0.000 C 
ATOM     24  C   UNL     1       1.191  11.898  19.951  0.00  0.00    +0.000 C 
ATOM     25  C   UNL     1       0.495  11.185  21.109  0.00  0.00    +0.000 C 
ATOM     26  N   UNL     1      -0.917  11.548  21.149  0.00  0.00    +0.000 N 
ATOM     27  C   UNL     1      -1.450  12.060  22.323  0.00  0.00    +0.000 C 
ATOM     28  O   UNL     1      -0.763  12.231  23.316  0.00  0.00    +0.000 OA
ATOM     29  C   UNL     1      -1.677  11.279  19.945  0.00  0.00    +0.000 C 
ATOM     30  C   UNL     1      -1.010  11.952  18.740  0.00  0.00    +0.000 C 
BRANCH  27  31
ATOM     31  O   UNL     1      -2.787  12.365  22.223  0.00  0.00    +0.000 OA
BRANCH  31  32
ATOM     32  C   UNL     1      -3.178  13.768  22.279  0.00  0.00    +0.000 C 
ATOM     33  C   UNL     1      -2.140  14.653  21.571  0.00  0.00    +0.000 C 
ATOM     34  C   UNL     1      -4.572  13.936  21.645  0.00  0.00    +0.000 C 
ATOM     35  C   UNL     1      -3.281  14.190  23.744  0.00  0.00    +0.000 C 
ENDBRANCH  31  32
ENDBRANCH  27  31
ENDBRANCH  20  23
ENDBRANCH   2  19
TORSDOF 8
ENDMDL
MODEL 5
REMARK VINA RESULT:      -8.0      3.734     10.885
REMARK  Name = 
REMARK  12 active torsions:
REMARK  status: ('A' for Active; 'I' for Inactive)
REMARK    1  A    between atoms: C_1  and  C_2
REMARK    2  A    between atoms: C_2  and  O_3
REMARK    3  A    between atoms: O_3  and  C_4
REMARK    4  A    between atoms: C_4  and  C_6
REMARK    5  A    between atoms: C_15  and  C_16
REMARK    6  A    between atoms: N_17  and  N_18
REMARK    7  A    between atoms: C_19  and  C_21
REMARK    8  A    between atoms: C_25  and  O_27
REMARK    9  A    between atoms: O_27  and  C_28
REMARK   10  A    between atoms: C_28  and  C_29
REMARK   11  A    between atoms: C_28  and  C_30
REMARK   12  A    between atoms: C_28  and  C_31
REMARK                            x       y       z     vdW  Elec       q    Type
REMARK                         _______ _______ _______ _____ _____    ______ ____
ROOT
ATOM      1  C   UNL     1       7.183   6.313  17.811  0.00  0.00    +0.000 C 
ATOM      2  N   UNL     1       7.172   7.608  17.871  0.00  0.00    +0.000 NA
ENDROOT
BRANCH   1  12
ATOM      3  C   UNL     1       5.758   5.109  16.095  0.00  0.00    +0.000 A 
ATOM      4  N   UNL     1       4.507   4.525  16.105  0.00  0.00    +0.000 N 
ATOM      5  C   UNL     1       3.933   4.604  17.352  0.00  0.00    +0.000 A 
ATOM      6  C   UNL     1       2.707   4.107  17.822  0.00  0.00    +0.000 A 
ATOM      7  C   UNL     1       2.375   4.361  19.157  0.00  0.00    +0.000 A 
ATOM      8 CL   UNL     1       0.876   3.780  19.779  0.00  0.00    +0.000 Cl
ATOM      9  C   UNL     1       3.225   5.077  19.992  0.00  0.00    +0.000 A 
ATOM     10  C   UNL     1       4.450   5.548  19.508  0.00  0.00    +0.000 A 
ATOM     11  C   UNL     1       4.823   5.301  18.167  0.00  0.00    +0.000 A 
ATOM     12  C   UNL     1       5.980   5.615  17.377  0.00  0.00    +0.000 A 
ATOM     13  H   UNL     1       4.088   4.067  15.306  0.00  0.00    +0.000 HD
BRANCH   3  14
ATOM     14  C   UNL     1       6.635   5.138  14.945  0.00  0.00    +0.000 C 
ATOM     15  O   UNL     1       7.787   5.550  14.957  0.00  0.00    +0.000 OA
BRANCH  14  16
ATOM     16  O   UNL     1       5.960   4.745  13.824  0.00  0.00    +0.000 OA
BRANCH  16  18
ATOM     17  C   UNL     1       6.454   3.447  11.855  0.00  0.00    +0.000 C 
ATOM     18  C   UNL     1       6.303   3.426  13.368  0.00  0.00    +0.000 C 
ENDBRANCH  16  18
ENDBRANCH  14  16
ENDBRANCH   3  14
ENDBRANCH   1  12
BRANCH   2  19
ATOM     19  N   UNL     1       8.327   8.215  18.297  0.00  0.00    +0.000 N 
ATOM     20  C   UNL     1       8.443   9.606  18.170  0.00  0.00    +0.000 C 
ATOM     21  O   UNL     1       7.583  10.319  17.694  0.00  0.00    +0.000 OA
ATOM     22  H   UNL     1       9.052   7.642  18.711  0.00  0.00    +0.000 HD
BRANCH  20  23
ATOM     23  C   UNL     1       9.785  10.187  18.672  0.00  0.00    +0.000 C 
ATOM     24  C   UNL     1       9.634  10.762  20.085  0.00  0.00    +0.000 C 
ATOM     25  C   UNL     1       8.899  12.100  20.074  0.00  0.00    +0.000 C 
ATOM     26  N   UNL     1       9.570  13.036  19.178  0.00  0.00    +0.000 N 
ATOM     27  C   UNL     1       9.961  14.274  19.665  0.00  0.00    +0.000 C 
ATOM     28  O   UNL     1       9.774  14.593  20.828  0.00  0.00    +0.000 OA
ATOM     29  C   UNL     1       9.719  12.604  17.803  0.00  0.00    +0.000 C 
ATOM     30  C   UNL     1      10.432  11.248  17.752  0.00  0.00    +0.000 C 
BRANCH  27  31
ATOM     31  O   UNL     1      10.585  15.056  18.721  0.00  0.00    +0.000 OA
BRANCH  31  32
ATOM     32  C   UNL     1       9.908  16.266  18.274  0.00  0.00    +0.000 C 
ATOM     33  C   UNL     1       8.388  16.052  18.216  0.00  0.00    +0.000 C 
ATOM     34  C   UNL     1      10.267  17.430  19.218  0.00  0.00    +0.000 C 
ATOM     35  C   UNL     1      10.417  16.626  16.879  0.00  0.00    +0.000 C 
ENDBRANCH  31  32
ENDBRANCH  27  31
ENDBRANCH  20  23
ENDBRANCH   2  19
TORSDOF 8
ENDMDL
MODEL 6
REMARK VINA RESULT:      -7.9      6.104     10.330
REMARK  Name = 
REMARK  12 active torsions:
REMARK  status: ('A' for Active; 'I' for Inactive)
REMARK    1  A    between atoms: C_1  and  C_2
REMARK    2  A    between atoms: C_2  and  O_3
REMARK    3  A    between atoms: O_3  and  C_4
REMARK    4  A    between atoms: C_4  and  C_6
REMARK    5  A    between atoms: C_15  and  C_16
REMARK    6  A    between atoms: N_17  and  N_18
REMARK    7  A    between atoms: C_19  and  C_21
REMARK    8  A    between atoms: C_25  and  O_27
REMARK    9  A    between atoms: O_27  and  C_28
REMARK   10  A    between atoms: C_28  and  C_29
REMARK   11  A    between atoms: C_28  and  C_30
REMARK   12  A    between atoms: C_28  and  C_31
REMARK                            x       y       z     vdW  Elec       q    Type
REMARK                         _______ _______ _______ _____ _____    ______ ____
ROOT
ATOM      1  C   UNL     1       2.028   5.762  18.849  0.00  0.00    +0.000 C 
ATOM      2  N   UNL     1       2.584   6.609  19.658  0.00  0.00    +0.000 NA
ENDROOT
BRANCH   1  12
ATOM      3  C   UNL     1       2.720   3.439  18.108  0.00  0.00    +0.000 A 
ATOM      4  N   UNL     1       3.714   2.933  17.293  0.00  0.00    +0.000 N 
ATOM      5  C   UNL     1       4.472   3.943  16.750  0.00  0.00    +0.000 A 
ATOM      6  C   UNL     1       5.542   3.890  15.842  0.00  0.00    +0.000 A 
ATOM      7  C   UNL     1       6.142   5.100  15.476  0.00  0.00    +0.000 A 
ATOM      8 CL   UNL     1       7.465   5.086  14.371  0.00  0.00    +0.000 Cl
ATOM      9  C   UNL     1       5.698   6.313  15.990  0.00  0.00    +0.000 A 
ATOM     10  C   UNL     1       4.619   6.345  16.880  0.00  0.00    +0.000 A 
ATOM     11  C   UNL     1       3.982   5.142  17.263  0.00  0.00    +0.000 A 
ATOM     12  C   UNL     1       2.871   4.827  18.116  0.00  0.00    +0.000 A 
ATOM     13  H   UNL     1       3.840   1.949  17.095  0.00  0.00    +0.000 HD
BRANCH   3  14
ATOM     14  C   UNL     1       1.727   2.632  18.780  0.00  0.00    +0.000 C 
ATOM     15  O   UNL     1       0.576   2.477  18.395  0.00  0.00    +0.000 OA
BRANCH  14  16
ATOM     16  O   UNL     1       2.223   2.157  19.961  0.00  0.00    +0.000 OA
BRANCH  16  18
ATOM     17  C   UNL     1       2.302   3.687  21.820  0.00  0.00    +0.000 C 
ATOM     18  C   UNL     1       1.500   2.602  21.121  0.00  0.00    +0.000 C 
ENDBRANCH  16  18
ENDBRANCH  14  16
ENDBRANCH   3  14
ENDBRANCH   1  12
BRANCH   2  19
ATOM     19  N   UNL     1       1.745   7.475  20.316  0.00  0.00    +0.000 N 
ATOM     20  C   UNL     1       1.383   8.672  19.683  0.00  0.00    +0.000 C 
ATOM     21  O   UNL     1       1.772   9.002  18.582  0.00  0.00    +0.000 OA
ATOM     22  H   UNL     1       1.396   7.212  21.229  0.00  0.00    +0.000 HD
BRANCH  20  23
ATOM     23  C   UNL     1       0.443   9.576  20.511  0.00  0.00    +0.000 C 
ATOM     24  C   UNL     1      -0.664  10.166  19.628  0.00  0.00    +0.000 C 
ATOM     25  C   UNL     1      -0.136  11.290  18.740  0.00  0.00    +0.000 C 
ATOM     26  N   UNL     1       0.510  12.315  19.553  0.00  0.00    +0.000 N 
ATOM     27  C   UNL     1       0.092  13.632  19.436  0.00  0.00    +0.000 C 
ATOM     28  O   UNL     1      -0.814  13.952  18.685  0.00  0.00    +0.000 OA
ATOM     29  C   UNL     1       1.603  11.865  20.391  0.00  0.00    +0.000 C 
ATOM     30  C   UNL     1       1.138  10.716  21.292  0.00  0.00    +0.000 C 
BRANCH  27  31
ATOM     31  O   UNL     1       0.778  14.493  20.261  0.00  0.00    +0.000 OA
BRANCH  31  32
ATOM     32  C   UNL     1       1.590  15.534  19.644  0.00  0.00    +0.000 C 
ATOM     33  C   UNL     1       2.410  14.966  18.475  0.00  0.00    +0.000 C 
ATOM     34  C   UNL     1       0.678  16.683  19.173  0.00  0.00    +0.000 C 
ATOM     35  C   UNL     1       2.544  16.099  20.696  0.00  0.00    +0.000 C 
ENDBRANCH  31  32
ENDBRANCH  27  31
ENDBRANCH  20  23
ENDBRANCH   2  19
TORSDOF 8
ENDMDL
MODEL 7
REMARK VINA RESULT:      -7.9      6.443     10.180
REMARK  Name = 
REMARK  12 active torsions:
REMARK  status: ('A' for Active; 'I' for Inactive)
REMARK    1  A    between atoms: C_1  and  C_2
REMARK    2  A    between atoms: C_2  and  O_3
REMARK    3  A    between atoms: O_3  and  C_4
REMARK    4  A    between atoms: C_4  and  C_6
REMARK    5  A    between atoms: C_15  and  C_16
REMARK    6  A    between atoms: N_17  and  N_18
REMARK    7  A    between atoms: C_19  and  C_21
REMARK    8  A    between atoms: C_25  and  O_27
REMARK    9  A    between atoms: O_27  and  C_28
REMARK   10  A    between atoms: C_28  and  C_29
REMARK   11  A    between atoms: C_28  and  C_30
REMARK   12  A    between atoms: C_28  and  C_31
REMARK                            x       y       z     vdW  Elec       q    Type
REMARK                         _______ _______ _______ _____ _____    ______ ____
ROOT
ATOM      1  C   UNL     1       3.476   5.718  19.551  0.00  0.00    +0.000 C 
ATOM      2  N   UNL     1       2.574   6.548  19.126  0.00  0.00    +0.000 NA
ENDROOT
BRANCH   1  12
ATOM      3  C   UNL     1       3.958   3.367  18.737  0.00  0.00    +0.000 A 
ATOM      4  N   UNL     1       4.622   2.830  17.652  0.00  0.00    +0.000 N 
ATOM      5  C   UNL     1       5.100   3.818  16.824  0.00  0.00    +0.000 A 
ATOM      6  C   UNL     1       5.784   3.728  15.601  0.00  0.00    +0.000 A 
ATOM      7  C   UNL     1       6.168   4.923  14.984  0.00  0.00    +0.000 A 
ATOM      8 CL   UNL     1       7.019   4.865  13.486  0.00  0.00    +0.000 Cl
ATOM      9  C   UNL     1       5.884   6.158  15.557  0.00  0.00    +0.000 A 
ATOM     10  C   UNL     1       5.186   6.225  16.768  0.00  0.00    +0.000 A 
ATOM     11  C   UNL     1       4.772   5.038  17.413  0.00  0.00    +0.000 A 
ATOM     12  C   UNL     1       4.045   4.756  18.619  0.00  0.00    +0.000 A 
ATOM     13  H   UNL     1       4.710   1.838  17.475  0.00  0.00    +0.000 HD
BRANCH   3  14
ATOM     14  C   UNL     1       3.296   2.585  19.758  0.00  0.00    +0.000 C 
ATOM     15  O   UNL     1       3.689   2.469  20.910  0.00  0.00    +0.000 OA
BRANCH  14  16
ATOM     16  O   UNL     1       2.235   1.909  19.224  0.00  0.00    +0.000 OA
BRANCH  16  18
ATOM     17  C   UNL     1       0.649   3.437  20.201  0.00  0.00    +0.000 C 
ATOM     18  C   UNL     1       1.101   2.741  18.927  0.00  0.00    +0.000 C 
ENDBRANCH  16  18
ENDBRANCH  14  16
ENDBRANCH   3  14
ENDBRANCH   1  12
BRANCH   2  19
ATOM     19  N   UNL     1       2.062   7.427  20.049  0.00  0.00    +0.000 N 
ATOM     20  C   UNL     1       1.566   8.659  19.602  0.00  0.00    +0.000 C 
ATOM     21  O   UNL     1       1.567   9.010  18.439  0.00  0.00    +0.000 OA
ATOM     22  H   UNL     1       2.038   7.149  21.023  0.00  0.00    +0.000 HD
BRANCH  20  23
ATOM     23  C   UNL     1       1.021   9.576  20.720  0.00  0.00    +0.000 C 
ATOM     24  C   UNL     1      -0.510   9.513  20.777  0.00  0.00    +0.000 C 
ATOM     25  C   UNL     1      -1.149  10.297  19.632  0.00  0.00    +0.000 C 
ATOM     26  N   UNL     1      -0.664  11.673  19.629  0.00  0.00    +0.000 N 
ATOM     27  C   UNL     1      -1.581  12.712  19.660  0.00  0.00    +0.000 C 
ATOM     28  O   UNL     1      -2.782  12.504  19.708  0.00  0.00    +0.000 OA
ATOM     29  C   UNL     1       0.772  11.839  19.530  0.00  0.00    +0.000 C 
ATOM     30  C   UNL     1       1.472  11.053  20.644  0.00  0.00    +0.000 C 
BRANCH  27  31
ATOM     31  O   UNL     1      -0.992  13.955  19.659  0.00  0.00    +0.000 OA
BRANCH  31  32
ATOM     32  C   UNL     1      -1.054  14.746  20.881  0.00  0.00    +0.000 C 
ATOM     33  C   UNL     1      -2.314  15.625  20.899  0.00  0.00    +0.000 C 
ATOM     34  C   UNL     1      -1.019  13.805  22.101  0.00  0.00    +0.000 C 
ATOM     35  C   UNL     1       0.183  15.641  20.950  0.00  0.00    +0.000 C 
ENDBRANCH  31  32
ENDBRANCH  27  31
ENDBRANCH  20  23
ENDBRANCH   2  19
TORSDOF 8
ENDMDL
MODEL 8
REMARK VINA RESULT:      -7.8      6.470     10.367
REMARK  Name = 
REMARK  12 active torsions:
REMARK  status: ('A' for Active; 'I' for Inactive)
REMARK    1  A    between atoms: C_1  and  C_2
REMARK    2  A    between atoms: C_2  and  O_3
REMARK    3  A    between atoms: O_3  and  C_4
REMARK    4  A    between atoms: C_4  and  C_6
REMARK    5  A    between atoms: C_15  and  C_16
REMARK    6  A    between atoms: N_17  and  N_18
REMARK    7  A    between atoms: C_19  and  C_21
REMARK    8  A    between atoms: C_25  and  O_27
REMARK    9  A    between atoms: O_27  and  C_28
REMARK   10  A    between atoms: C_28  and  C_29
REMARK   11  A    between atoms: C_28  and  C_30
REMARK   12  A    between atoms: C_28  and  C_31
REMARK                            x       y       z     vdW  Elec       q    Type
REMARK                         _______ _______ _______ _____ _____    ______ ____
ROOT
ATOM      1  C   UNL     1       1.935   5.559  19.163  0.00  0.00    +0.000 C 
ATOM      2  N   UNL     1       2.573   6.292  20.022  0.00  0.00    +0.000 NA
ENDROOT
BRANCH   1  12
ATOM      3  C   UNL     1       2.459   3.298  18.144  0.00  0.00    +0.000 A 
ATOM      4  N   UNL     1       3.387   2.831  17.235  0.00  0.00    +0.000 N 
ATOM      5  C   UNL     1       4.181   3.853  16.769  0.00  0.00    +0.000 A 
ATOM      6  C   UNL     1       5.208   3.843  15.812  0.00  0.00    +0.000 A 
ATOM      7  C   UNL     1       5.863   5.051  15.551  0.00  0.00    +0.000 A 
ATOM      8 CL   UNL     1       7.137   5.088  14.391  0.00  0.00    +0.000 Cl
ATOM      9  C   UNL     1       5.513   6.222  16.213  0.00  0.00    +0.000 A 
ATOM     10  C   UNL     1       4.474   6.214  17.150  0.00  0.00    +0.000 A 
ATOM     11  C   UNL     1       3.783   5.013  17.431  0.00  0.00    +0.000 A 
ATOM     12  C   UNL     1       2.691   4.666  18.295  0.00  0.00    +0.000 A 
ATOM     13  H   UNL     1       3.446   1.870  16.926  0.00  0.00    +0.000 HD
BRANCH   3  14
ATOM     14  C   UNL     1       1.447   2.476  18.771  0.00  0.00    +0.000 C 
ATOM     15  O   UNL     1       0.320   2.299  18.329  0.00  0.00    +0.000 OA
BRANCH  14  16
ATOM     16  O   UNL     1       1.892   2.017  19.979  0.00  0.00    +0.000 OA
BRANCH  16  18
ATOM     17  C   UNL     1       2.292   3.277  21.993  0.00  0.00    +0.000 C 
ATOM     18  C   UNL     1       1.243   2.622  21.110  0.00  0.00    +0.000 C 
ENDBRANCH  16  18
ENDBRANCH  14  16
ENDBRANCH   3  14
ENDBRANCH   1  12
BRANCH   2  19
ATOM     19  N   UNL     1       1.814   7.123  20.808  0.00  0.00    +0.000 N 
ATOM     20  C   UNL     1       1.458   8.383  20.307  0.00  0.00    +0.000 C 
ATOM     21  O   UNL     1       1.788   8.797  19.214  0.00  0.00    +0.000 OA
ATOM     22  H   UNL     1       1.515   6.792  21.717  0.00  0.00    +0.000 HD
BRANCH  20  23
ATOM     23  C   UNL     1       0.610   9.241  21.273  0.00  0.00    +0.000 C 
ATOM     24  C   UNL     1      -0.815   9.417  20.737  0.00  0.00    +0.000 C 
ATOM     25  C   UNL     1      -0.864  10.417  19.583  0.00  0.00    +0.000 C 
ATOM     26  N   UNL     1      -0.280  11.689  19.993  0.00  0.00    +0.000 N 
ATOM     27  C   UNL     1      -1.024  12.851  19.849  0.00  0.00    +0.000 C 
ATOM     28  O   UNL     1      -2.160  12.833  19.405  0.00  0.00    +0.000 OA
ATOM     29  C   UNL     1       1.086  11.636  20.473  0.00  0.00    +0.000 C 
ATOM     30  C   UNL     1       1.202  10.627  21.620  0.00  0.00    +0.000 C 
BRANCH  27  31
ATOM     31  O   UNL     1      -0.359  13.977  20.278  0.00  0.00    +0.000 OA
BRANCH  31  32
ATOM     32  C   UNL     1      -0.779  14.586  21.532  0.00  0.00    +0.000 C 
ATOM     33  C   UNL     1      -1.294  13.521  22.512  0.00  0.00    +0.000 C 
ATOM     34  C   UNL     1       0.399  15.373  22.139  0.00  0.00    +0.000 C 
ATOM     35  C   UNL     1      -1.901  15.583  21.241  0.00  0.00    +0.000 C 
ENDBRANCH  31  32
ENDBRANCH  27  31
ENDBRANCH  20  23
ENDBRANCH   2  19
TORSDOF 8
ENDMDL
MODEL 9
REMARK VINA RESULT:      -7.8      2.295      3.861
REMARK  Name = 
REMARK  12 active torsions:
REMARK  status: ('A' for Active; 'I' for Inactive)
REMARK    1  A    between atoms: C_1  and  C_2
REMARK    2  A    between atoms: C_2  and  O_3
REMARK    3  A    between atoms: O_3  and  C_4
REMARK    4  A    between atoms: C_4  and  C_6
REMARK    5  A    between atoms: C_15  and  C_16
REMARK    6  A    between atoms: N_17  and  N_18
REMARK    7  A    between atoms: C_19  and  C_21
REMARK    8  A    between atoms: C_25  and  O_27
REMARK    9  A    between atoms: O_27  and  C_28
REMARK   10  A    between atoms: C_28  and  C_29
REMARK   11  A    between atoms: C_28  and  C_30
REMARK   12  A    between atoms: C_28  and  C_31
REMARK                            x       y       z     vdW  Elec       q    Type
REMARK                         _______ _______ _______ _____ _____    ______ ____
ROOT
ATOM      1  C   UNL     1       9.726  10.284  19.863  0.00  0.00    +0.000 C 
ATOM      2  N   UNL     1       8.759   9.822  19.133  0.00  0.00    +0.000 NA
ENDROOT
BRANCH   1  12
ATOM      3  C   UNL     1      10.413  12.653  19.280  0.00  0.00    +0.000 A 
ATOM      4  N   UNL     1      10.256  13.888  19.879  0.00  0.00    +0.000 N 
ATOM      5  C   UNL     1       9.534  13.785  21.044  0.00  0.00    +0.000 A 
ATOM      6  C   UNL     1       9.104  14.778  21.938  0.00  0.00    +0.000 A 
ATOM      7  C   UNL     1       8.390  14.367  23.069  0.00  0.00    +0.000 A 
ATOM      8 CL   UNL     1       7.849  15.549  24.202  0.00  0.00    +0.000 Cl
ATOM      9  C   UNL     1       8.114  13.025  23.303  0.00  0.00    +0.000 A 
ATOM     10  C   UNL     1       8.537  12.053  22.390  0.00  0.00    +0.000 A 
ATOM     11  C   UNL     1       9.251  12.433  21.231  0.00  0.00    +0.000 A 
ATOM     12  C   UNL     1       9.799  11.717  20.114  0.00  0.00    +0.000 A 
ATOM     13  H   UNL     1      10.597  14.756  19.487  0.00  0.00    +0.000 HD
BRANCH   3  14
ATOM     14  C   UNL     1      11.079  12.439  18.014  0.00  0.00    +0.000 C 
ATOM     15  O   UNL     1      11.967  11.620  17.823  0.00  0.00    +0.000 OA
BRANCH  14  16
ATOM     16  O   UNL     1      10.652  13.355  17.094  0.00  0.00    +0.000 OA
BRANCH  16  18
ATOM     17  C   UNL     1      11.146  15.705  16.900  0.00  0.00    +0.000 C 
ATOM     18  C   UNL     1      11.664  14.292  16.688  0.00  0.00    +0.000 C 
ENDBRANCH  16  18
ENDBRANCH  14  16
ENDBRANCH   3  14
ENDBRANCH   1  12
BRANCH   2  19
ATOM     19  N   UNL     1       8.742   8.466  18.918  0.00  0.00    +0.000 N 
ATOM     20  C   UNL     1       7.843   7.945  17.978  0.00  0.00    +0.000 C 
ATOM     21  O   UNL     1       7.062   8.619  17.338  0.00  0.00    +0.000 OA
ATOM     22  H   UNL     1       9.396   7.886  19.429  0.00  0.00    +0.000 HD
BRANCH  20  23
ATOM     23  C   UNL     1       7.901   6.409  17.818  0.00  0.00    +0.000 C 
ATOM     24  C   UNL     1       7.218   5.970  16.517  0.00  0.00    +0.000 C 
ATOM     25  C   UNL     1       5.697   6.041  16.628  0.00  0.00    +0.000 C 
ATOM     26  N   UNL     1       5.237   5.258  17.770  0.00  0.00    +0.000 N 
ATOM     27  C   UNL     1       4.280   4.274  17.572  0.00  0.00    +0.000 C 
ATOM     28  O   UNL     1       3.827   4.035  16.466  0.00  0.00    +0.000 OA
ATOM     29  C   UNL     1       5.791   5.627  19.057  0.00  0.00    +0.000 C 
ATOM     30  C   UNL     1       7.322   5.598  19.000  0.00  0.00    +0.000 C 
BRANCH  27  31
ATOM     31  O   UNL     1       3.941   3.609  18.728  0.00  0.00    +0.000 OA
BRANCH  31  32
ATOM     32  C   UNL     1       2.600   3.805  19.264  0.00  0.00    +0.000 C 
ATOM     33  C   UNL     1       2.641   4.664  20.538  0.00  0.00    +0.000 C 
ATOM     34  C   UNL     1       1.709   4.454  18.187  0.00  0.00    +0.000 C 
ATOM     35  C   UNL     1       2.002   2.439  19.600  0.00  0.00    +0.000 C 
ENDBRANCH  31  32
ENDBRANCH  27  31
ENDBRANCH  20  23
ENDBRANCH   2  19
TORSDOF 8
ENDMDL
