MODEL 1
REMARK VINA RESULT:      -8.6      0.000      0.000
REMARK  Name = 
REMARK  6 active torsions:
REMARK  status: ('A' for Active; 'I' for Inactive)
REMARK    1  A    between atoms: C_1  and  C_2
REMARK    2  A    between atoms: C_10  and  C_11
REMARK    3  A    between atoms: C_11  and  C_12
REMARK    4  A    between atoms: C_12  and  N_13
REMARK    5  A    between atoms: N_16  and  C_17
REMARK    6  A    between atoms: C_21  and  C_22
REMARK                            x       y       z     vdW  Elec       q    Type
REMARK                         _______ _______ _______ _____ _____    ______ ____
ROOT
ATOM      1  C   UNL     1      -0.412  10.443  22.954  0.00  0.00    +0.000 C 
ENDROOT
BRANCH   1   2
ATOM      2  N   UNL     1       0.750   9.620  22.624  0.00  0.00    +0.000 N 
ATOM      3  C   UNL     1       0.629   8.623  21.678  0.00  0.00    +0.000 C 
ATOM      4  O   UNL     1      -0.447   8.370  21.159  0.00  0.00    +0.000 OA
ATOM      5  N   UNL     1       1.817   7.966  21.430  0.00  0.00    +0.000 N 
ATOM      6  H   UNL     1       1.662   9.925  22.915  0.00  0.00    +0.000 HD
ATOM      7  H   UNL     1       2.543   8.060  22.131  0.00  0.00    +0.000 HD
BRANCH   5   8
ATOM      8  C   UNL     1       1.982   6.935  20.465  0.00  0.00    +0.000 A 
ATOM      9  C   UNL     1       2.382   7.200  19.151  0.00  0.00    +0.000 A 
ATOM     10  C   UNL     1       2.456   6.185  18.200  0.00  0.00    +0.000 A 
ATOM     11  C   UNL     1       2.111   4.882  18.551  0.00  0.00    +0.000 A 
ATOM     12  C   UNL     1       1.723   4.583  19.862  0.00  0.00    +0.000 A 
ATOM     13  C   UNL     1       1.679   5.613  20.823  0.00  0.00    +0.000 A 
BRANCH  12  14
ATOM     14  C   UNL     1       1.319   3.176  20.231  0.00  0.00    +0.000 C 
ATOM     15  F   UNL     1       0.211   2.734  19.571  0.00  0.00    +0.000 F 
ATOM     16  F   UNL     1       2.296   2.267  19.967  0.00  0.00    +0.000 F 
ATOM     17  F   UNL     1       1.035   3.047  21.557  0.00  0.00    +0.000 F 
ENDBRANCH  12  14
ENDBRANCH   5   8
ENDBRANCH   1   2
BRANCH   1  18
ATOM     18  C   UNL     1      -0.403  11.786  22.213  0.00  0.00    +0.000 C 
BRANCH  18  28
ATOM     19  C   UNL     1      -3.625  10.019  13.524  0.00  0.00    +0.000 C 
ATOM     20  C   UNL     1      -3.164  10.096  14.956  0.00  0.00    +0.000 C 
ATOM     21  O   UNL     1      -2.569   9.165  15.492  0.00  0.00    +0.000 OA
ATOM     22  N   UNL     1      -3.457  11.304  15.555  0.00  0.00    +0.000 N 
ATOM     23  C   UNL     1      -3.132  11.503  16.874  0.00  0.00    +0.000 A 
ATOM     24  N   UNL     1      -3.914  12.085  17.752  0.00  0.00    +0.000 NA
ATOM     25  C   UNL     1      -3.227  12.013  18.942  0.00  0.00    +0.000 A 
ATOM     26  C   UNL     1      -3.635  12.360  20.237  0.00  0.00    +0.000 A 
ATOM     27  C   UNL     1      -2.711  12.259  21.289  0.00  0.00    +0.000 A 
ATOM     28  C   UNL     1      -1.392  11.835  21.065  0.00  0.00    +0.000 A 
ATOM     29  C   UNL     1      -0.986  11.450  19.772  0.00  0.00    +0.000 A 
ATOM     30  C   UNL     1      -1.941  11.521  18.750  0.00  0.00    +0.000 A 
ATOM     31  N   UNL     1      -1.927  11.151  17.428  0.00  0.00    +0.000 N 
ATOM     32  H   UNL     1      -4.270  11.815  15.237  0.00  0.00    +0.000 HD
ATOM     33  H   UNL     1      -1.169  10.705  16.931  0.00  0.00    +0.000 HD
ENDBRANCH  18  28
ENDBRANCH   1  18
TORSDOF 5
ENDMDL
MODEL 2
REMARK VINA RESULT:      -8.3      7.530      9.884
REMARK  Name = 
REMARK  6 active torsions:
REMARK  status: ('A' for Active; 'I' for Inactive)
REMARK    1  A    between atoms: C_1  and  C_2
REMARK    2  A    between atoms: C_10  and  C_11
REMARK    3  A    between atoms: C_11  and  C_12
REMARK    4  A    between atoms: C_12  and  N_13
REMARK    5  A    between atoms: N_16  and  C_17
REMARK    6  A    between atoms: C_21  and  C_22
REMARK                            x       y       z     vdW  Elec       q    Type
REMARK                         _______ _______ _______ _____ _____    ______ ____
ROOT
ATOM      1  C   UNL     1       8.073   7.765  17.388  0.00  0.00    +0.000 C 
ENDROOT
BRANCH   1   2
ATOM      2  N   UNL     1       7.561   6.540  17.999  0.00  0.00    +0.000 N 
ATOM      3  C   UNL     1       6.228   6.215  17.855  0.00  0.00    +0.000 C 
ATOM      4  O   UNL     1       5.453   6.965  17.284  0.00  0.00    +0.000 OA
ATOM      5  N   UNL     1       5.900   5.007  18.436  0.00  0.00    +0.000 N 
ATOM      6  H   UNL     1       8.213   5.845  18.319  0.00  0.00    +0.000 HD
ATOM      7  H   UNL     1       6.547   4.644  19.126  0.00  0.00    +0.000 HD
BRANCH   5   8
ATOM      8  C   UNL     1       4.609   4.413  18.387  0.00  0.00    +0.000 A 
ATOM      9  C   UNL     1       4.082   3.868  17.212  0.00  0.00    +0.000 A 
ATOM     10  C   UNL     1       2.782   3.368  17.167  0.00  0.00    +0.000 A 
ATOM     11  C   UNL     1       1.981   3.423  18.304  0.00  0.00    +0.000 A 
ATOM     12  C   UNL     1       2.486   3.948  19.500  0.00  0.00    +0.000 A 
ATOM     13  C   UNL     1       3.811   4.425  19.540  0.00  0.00    +0.000 A 
BRANCH  12  14
ATOM     14  C   UNL     1       1.604   4.035  20.722  0.00  0.00    +0.000 C 
ATOM     15  F   UNL     1       0.767   2.968  20.869  0.00  0.00    +0.000 F 
ATOM     16  F   UNL     1       2.318   4.109  21.876  0.00  0.00    +0.000 F 
ATOM     17  F   UNL     1       0.801   5.135  20.705  0.00  0.00    +0.000 F 
ENDBRANCH  12  14
ENDBRANCH   5   8
ENDBRANCH   1   2
BRANCH   1  18
ATOM     18  C   UNL     1       7.402   9.022  17.954  0.00  0.00    +0.000 C 
BRANCH  18  28
ATOM     19  C   UNL     1      10.878  17.773  17.363  0.00  0.00    +0.000 C 
ATOM     20  C   UNL     1      10.181  16.459  17.598  0.00  0.00    +0.000 C 
ATOM     21  O   UNL     1       8.959  16.388  17.706  0.00  0.00    +0.000 OA
ATOM     22  N   UNL     1      11.048  15.387  17.646  0.00  0.00    +0.000 N 
ATOM     23  C   UNL     1      10.558  14.129  17.895  0.00  0.00    +0.000 A 
ATOM     24  N   UNL     1      11.119  13.259  18.701  0.00  0.00    +0.000 NA
ATOM     25  C   UNL     1      10.270  12.176  18.701  0.00  0.00    +0.000 A 
ATOM     26  C   UNL     1      10.302  11.011  19.479  0.00  0.00    +0.000 A 
ATOM     27  C   UNL     1       9.349  10.008  19.236  0.00  0.00    +0.000 A 
ATOM     28  C   UNL     1       8.384  10.145  18.226  0.00  0.00    +0.000 A 
ATOM     29  C   UNL     1       8.324  11.330  17.466  0.00  0.00    +0.000 A 
ATOM     30  C   UNL     1       9.260  12.330  17.759  0.00  0.00    +0.000 A 
ATOM     31  N   UNL     1       9.436  13.611  17.298  0.00  0.00    +0.000 N 
ATOM     32  H   UNL     1      11.993  15.545  17.971  0.00  0.00    +0.000 HD
ATOM     33  H   UNL     1       8.858  14.100  16.630  0.00  0.00    +0.000 HD
ENDBRANCH  18  28
ENDBRANCH   1  18
TORSDOF 5
ENDMDL
MODEL 3
REMARK VINA RESULT:      -8.1      7.508      9.695
REMARK  Name = 
REMARK  6 active torsions:
REMARK  status: ('A' for Active; 'I' for Inactive)
REMARK    1  A    between atoms: C_1  and  C_2
REMARK    2  A    between atoms: C_10  and  C_11
REMARK    3  A    between atoms: C_11  and  C_12
REMARK    4  A    between atoms: C_12  and  N_13
REMARK    5  A    between atoms: N_16  and  C_17
REMARK    6  A    between atoms: C_21  and  C_22
REMARK                            x       y       z     vdW  Elec       q    Type
REMARK                         _______ _______ _______ _____ _____    ______ ____
ROOT
ATOM      1  C   UNL     1       8.298   7.389  18.115  0.00  0.00    +0.000 C 
ENDROOT
BRANCH   1   2
ATOM      2  N   UNL     1       7.483   6.476  18.915  0.00  0.00    +0.000 N 
ATOM      3  C   UNL     1       6.365   5.895  18.352  0.00  0.00    +0.000 C 
ATOM      4  O   UNL     1       6.005   6.180  17.221  0.00  0.00    +0.000 OA
ATOM      5  N   UNL     1       5.727   5.016  19.203  0.00  0.00    +0.000 N 
ATOM      6  H   UNL     1       7.859   6.111  19.772  0.00  0.00    +0.000 HD
ATOM      7  H   UNL     1       5.941   5.102  20.189  0.00  0.00    +0.000 HD
BRANCH   5   8
ATOM      8  C   UNL     1       4.583   4.245  18.856  0.00  0.00    +0.000 A 
ATOM      9  C   UNL     1       4.442   3.642  17.601  0.00  0.00    +0.000 A 
ATOM     10  C   UNL     1       3.277   2.963  17.254  0.00  0.00    +0.000 A 
ATOM     11  C   UNL     1       2.222   2.892  18.160  0.00  0.00    +0.000 A 
ATOM     12  C   UNL     1       2.340   3.471  19.429  0.00  0.00    +0.000 A 
ATOM     13  C   UNL     1       3.534   4.132  19.779  0.00  0.00    +0.000 A 
BRANCH  12  14
ATOM     14  C   UNL     1       1.182   3.419  20.396  0.00  0.00    +0.000 C 
ATOM     15  F   UNL     1       0.744   4.649  20.790  0.00  0.00    +0.000 F 
ATOM     16  F   UNL     1       0.096   2.786  19.876  0.00  0.00    +0.000 F 
ATOM     17  F   UNL     1       1.492   2.753  21.542  0.00  0.00    +0.000 F 
ENDBRANCH  12  14
ENDBRANCH   5   8
ENDBRANCH   1   2
BRANCH   1  18
ATOM     18  C   UNL     1       7.582   8.716  17.836  0.00  0.00    +0.000 C 
BRANCH  18  28
ATOM     19  C   UNL     1      10.048  17.823  17.811  0.00  0.00    +0.000 C 
ATOM     20  C   UNL     1       9.499  16.428  17.953  0.00  0.00    +0.000 C 
ATOM     21  O   UNL     1       8.290  16.213  18.004  0.00  0.00    +0.000 OA
ATOM     22  N   UNL     1      10.481  15.459  17.988  0.00  0.00    +0.000 N 
ATOM     23  C   UNL     1      10.130  14.143  18.155  0.00  0.00    +0.000 A 
ATOM     24  N   UNL     1      10.756  13.301  18.943  0.00  0.00    +0.000 NA
ATOM     25  C   UNL     1      10.038  12.130  18.855  0.00  0.00    +0.000 A 
ATOM     26  C   UNL     1      10.175  10.938  19.577  0.00  0.00    +0.000 A 
ATOM     27  C   UNL     1       9.354   9.848  19.246  0.00  0.00    +0.000 A 
ATOM     28  C   UNL     1       8.418   9.927  18.203  0.00  0.00    +0.000 A 
ATOM     29  C   UNL     1       8.250  11.135  17.498  0.00  0.00    +0.000 A 
ATOM     30  C   UNL     1       9.053  12.218  17.878  0.00  0.00    +0.000 A 
ATOM     31  N   UNL     1       9.098  13.533  17.486  0.00  0.00    +0.000 N 
ATOM     32  H   UNL     1      11.389  15.707  18.360  0.00  0.00    +0.000 HD
ATOM     33  H   UNL     1       8.493  13.988  16.818  0.00  0.00    +0.000 HD
ENDBRANCH  18  28
ENDBRANCH   1  18
TORSDOF 5
ENDMDL
MODEL 4
REMARK VINA RESULT:      -8.0      7.526     10.136
REMARK  Name = 
REMARK  6 active torsions:
REMARK  status: ('A' for Active; 'I' for Inactive)
REMARK    1  A    between atoms: C_1  and  C_2
REMARK    2  A    between atoms: C_10  and  C_11
REMARK    3  A    between atoms: C_11  and  C_12
REMARK    4  A    between atoms: C_12  and  N_13
REMARK    5  A    between atoms: N_16  and  C_17
REMARK    6  A    between atoms: C_21  and  C_22
REMARK                            x       y       z     vdW  Elec       q    Type
REMARK                         _______ _______ _______ _____ _____    ______ ____
ROOT
ATOM      1  C   UNL     1       8.012   7.966  18.103  0.00  0.00    +0.000 C 
ENDROOT
BRANCH   1   2
ATOM      2  N   UNL     1       6.807   7.326  17.579  0.00  0.00    +0.000 N 
ATOM      3  C   UNL     1       6.331   6.180  18.181  0.00  0.00    +0.000 C 
ATOM      4  O   UNL     1       6.935   5.652  19.101  0.00  0.00    +0.000 OA
ATOM      5  N   UNL     1       5.160   5.719  17.617  0.00  0.00    +0.000 N 
ATOM      6  H   UNL     1       6.220   7.837  16.943  0.00  0.00    +0.000 HD
ATOM      7  H   UNL     1       4.937   6.061  16.689  0.00  0.00    +0.000 HD
BRANCH   5   8
ATOM      8  C   UNL     1       4.431   4.589  18.080  0.00  0.00    +0.000 A 
ATOM      9  C   UNL     1       4.349   3.402  17.343  0.00  0.00    +0.000 A 
ATOM     10  C   UNL     1       3.561   2.338  17.775  0.00  0.00    +0.000 A 
ATOM     11  C   UNL     1       2.826   2.455  18.952  0.00  0.00    +0.000 A 
ATOM     12  C   UNL     1       2.901   3.623  19.719  0.00  0.00    +0.000 A 
ATOM     13  C   UNL     1       3.723   4.683  19.286  0.00  0.00    +0.000 A 
BRANCH  12  14
ATOM     14  C   UNL     1       2.078   3.758  20.977  0.00  0.00    +0.000 C 
ATOM     15  F   UNL     1       2.278   2.750  21.872  0.00  0.00    +0.000 F 
ATOM     16  F   UNL     1       2.340   4.911  21.650  0.00  0.00    +0.000 F 
ATOM     17  F   UNL     1       0.740   3.767  20.724  0.00  0.00    +0.000 F 
ENDBRANCH  12  14
ENDBRANCH   5   8
ENDBRANCH   1   2
BRANCH   1  18
ATOM     18  C   UNL     1       8.321   9.292  17.397  0.00  0.00    +0.000 C 
BRANCH  18  28
ATOM     19  C   UNL     1      10.900  17.955  20.103  0.00  0.00    +0.000 C 
ATOM     20  C   UNL     1      10.286  16.635  19.716  0.00  0.00    +0.000 C 
ATOM     21  O   UNL     1       9.225  16.574  19.100  0.00  0.00    +0.000 OA
ATOM     22  N   UNL     1      11.047  15.550  20.099  0.00  0.00    +0.000 N 
ATOM     23  C   UNL     1      10.592  14.280  19.849  0.00  0.00    +0.000 A 
ATOM     24  N   UNL     1      10.660  13.285  20.700  0.00  0.00    +0.000 NA
ATOM     25  C   UNL     1      10.038  12.232  20.068  0.00  0.00    +0.000 A 
ATOM     26  C   UNL     1       9.707  10.961  20.556  0.00  0.00    +0.000 A 
ATOM     27  C   UNL     1       9.131  10.028  19.680  0.00  0.00    +0.000 A 
ATOM     28  C   UNL     1       8.897  10.339  18.331  0.00  0.00    +0.000 A 
ATOM     29  C   UNL     1       9.193  11.628  17.844  0.00  0.00    +0.000 A 
ATOM     30  C   UNL     1       9.727  12.551  18.751  0.00  0.00    +0.000 A 
ATOM     31  N   UNL     1      10.043  13.883  18.655  0.00  0.00    +0.000 N 
ATOM     32  H   UNL     1      11.631  15.637  20.921  0.00  0.00    +0.000 HD
ATOM     33  H   UNL     1       9.909  14.481  17.852  0.00  0.00    +0.000 HD
ENDBRANCH  18  28
ENDBRANCH   1  18
TORSDOF 5
ENDMDL
MODEL 5
REMARK VINA RESULT:      -8.0      8.052     10.301
REMARK  Name = 
REMARK  6 active torsions:
REMARK  status: ('A' for Active; 'I' for Inactive)
REMARK    1  A    between atoms: C_1  and  C_2
REMARK    2  A    between atoms: C_10  and  C_11
REMARK    3  A    between atoms: C_11  and  C_12
REMARK    4  A    between atoms: C_12  and  N_13
REMARK    5  A    between atoms: N_16  and  C_17
REMARK    6  A    between atoms: C_21  and  C_22
REMARK                            x       y       z     vdW  Elec       q    Type
REMARK                         _______ _______ _______ _____ _____    ______ ____
ROOT
ATOM      1  C   UNL     1       8.391   8.999  17.461  0.00  0.00    +0.000 C 
ENDROOT
BRANCH   1   2
ATOM      2  N   UNL     1       6.996   8.587  17.319  0.00  0.00    +0.000 N 
ATOM      3  C   UNL     1       6.660   7.258  17.481  0.00  0.00    +0.000 C 
ATOM      4  O   UNL     1       7.516   6.409  17.675  0.00  0.00    +0.000 OA
ATOM      5  N   UNL     1       5.305   7.026  17.374  0.00  0.00    +0.000 N 
ATOM      6  H   UNL     1       6.277   9.289  17.328  0.00  0.00    +0.000 HD
ATOM      7  H   UNL     1       4.755   7.744  16.917  0.00  0.00    +0.000 HD
BRANCH   5   8
ATOM      8  C   UNL     1       4.687   5.757  17.551  0.00  0.00    +0.000 A 
ATOM      9  C   UNL     1       4.776   4.743  16.591  0.00  0.00    +0.000 A 
ATOM     10  C   UNL     1       4.093   3.539  16.748  0.00  0.00    +0.000 A 
ATOM     11  C   UNL     1       3.292   3.339  17.868  0.00  0.00    +0.000 A 
ATOM     12  C   UNL     1       3.196   4.329  18.854  0.00  0.00    +0.000 A 
ATOM     13  C   UNL     1       3.914   5.532  18.698  0.00  0.00    +0.000 A 
BRANCH  12  14
ATOM     14  C   UNL     1       2.302   4.121  20.052  0.00  0.00    +0.000 C 
ATOM     15  F   UNL     1       0.972   4.222  19.766  0.00  0.00    +0.000 F 
ATOM     16  F   UNL     1       2.468   2.896  20.621  0.00  0.00    +0.000 F 
ATOM     17  F   UNL     1       2.537   5.028  21.040  0.00  0.00    +0.000 F 
ENDBRANCH  12  14
ENDBRANCH   5   8
ENDBRANCH   1   2
BRANCH   1  18
ATOM     18  C   UNL     1       8.823   9.094  18.929  0.00  0.00    +0.000 C 
BRANCH  18  28
ATOM     19  C   UNL     1      11.571  17.987  17.385  0.00  0.00    +0.000 C 
ATOM     20  C   UNL     1      10.931  16.644  17.620  0.00  0.00    +0.000 C 
ATOM     21  O   UNL     1       9.925  16.294  17.008  0.00  0.00    +0.000 OA
ATOM     22  N   UNL     1      11.604  15.878  18.550  0.00  0.00    +0.000 N 
ATOM     23  C   UNL     1      11.112  14.645  18.896  0.00  0.00    +0.000 A 
ATOM     24  N   UNL     1      11.059  14.184  20.123  0.00  0.00    +0.000 NA
ATOM     25  C   UNL     1      10.443  12.957  20.016  0.00  0.00    +0.000 A 
ATOM     26  C   UNL     1      10.012  12.079  21.019  0.00  0.00    +0.000 A 
ATOM     27  C   UNL     1       9.468  10.839  20.646  0.00  0.00    +0.000 A 
ATOM     28  C   UNL     1       9.366  10.461  19.297  0.00  0.00    +0.000 A 
ATOM     29  C   UNL     1       9.764  11.356  18.284  0.00  0.00    +0.000 A 
ATOM     30  C   UNL     1      10.262  12.601  18.684  0.00  0.00    +0.000 A 
ATOM     31  N   UNL     1      10.648  13.722  17.992  0.00  0.00    +0.000 N 
ATOM     32  H   UNL     1      12.118  16.350  19.282  0.00  0.00    +0.000 HD
ATOM     33  H   UNL     1      10.612  13.859  16.992  0.00  0.00    +0.000 HD
ENDBRANCH  18  28
ENDBRANCH   1  18
TORSDOF 5
ENDMDL
MODEL 6
REMARK VINA RESULT:      -8.0      5.441      7.871
REMARK  Name = 
REMARK  6 active torsions:
REMARK  status: ('A' for Active; 'I' for Inactive)
REMARK    1  A    between atoms: C_1  and  C_2
REMARK    2  A    between atoms: C_10  and  C_11
REMARK    3  A    between atoms: C_11  and  C_12
REMARK    4  A    between atoms: C_12  and  N_13
REMARK    5  A    between atoms: N_16  and  C_17
REMARK    6  A    between atoms: C_21  and  C_22
REMARK                            x       y       z     vdW  Elec       q    Type
REMARK                         _______ _______ _______ _____ _____    ______ ____
ROOT
ATOM      1  C   UNL     1       5.358   5.836  18.896  0.00  0.00    +0.000 C 
ENDROOT
BRANCH   1   2
ATOM      2  N   UNL     1       6.086   4.976  17.964  0.00  0.00    +0.000 N 
ATOM      3  C   UNL     1       5.940   5.172  16.606  0.00  0.00    +0.000 C 
ATOM      4  O   UNL     1       5.163   6.005  16.166  0.00  0.00    +0.000 OA
ATOM      5  N   UNL     1       6.726   4.326  15.850  0.00  0.00    +0.000 N 
ATOM      6  H   UNL     1       6.842   4.412  18.309  0.00  0.00    +0.000 HD
ATOM      7  H   UNL     1       7.079   3.498  16.315  0.00  0.00    +0.000 HD
BRANCH   5   8
ATOM      8  C   UNL     1       6.806   4.353  14.431  0.00  0.00    +0.000 A 
ATOM      9  C   UNL     1       7.797   5.070  13.752  0.00  0.00    +0.000 A 
ATOM     10  C   UNL     1       7.806   5.151  12.362  0.00  0.00    +0.000 A 
ATOM     11  C   UNL     1       6.804   4.524  11.626  0.00  0.00    +0.000 A 
ATOM     12  C   UNL     1       5.808   3.785  12.276  0.00  0.00    +0.000 A 
ATOM     13  C   UNL     1       5.826   3.687  13.681  0.00  0.00    +0.000 A 
BRANCH  12  14
ATOM     14  C   UNL     1       4.706   3.132  11.477  0.00  0.00    +0.000 C 
ATOM     15  F   UNL     1       5.000   1.863  11.074  0.00  0.00    +0.000 F 
ATOM     16  F   UNL     1       3.541   3.040  12.173  0.00  0.00    +0.000 F 
ATOM     17  F   UNL     1       4.411   3.821  10.340  0.00  0.00    +0.000 F 
ENDBRANCH  12  14
ENDBRANCH   5   8
ENDBRANCH   1   2
BRANCH   1  18
ATOM     18  C   UNL     1       3.855   5.533  18.915  0.00  0.00    +0.000 C 
BRANCH  18  28
ATOM     19  C   UNL     1      -1.789  11.857  23.058  0.00  0.00    +0.000 C 
ATOM     20  C   UNL     1      -0.727  10.944  22.505  0.00  0.00    +0.000 C 
ATOM     21  O   UNL     1       0.188  10.521  23.207  0.00  0.00    +0.000 OA
ATOM     22  N   UNL     1      -0.919  10.632  21.174  0.00  0.00    +0.000 N 
ATOM     23  C   UNL     1      -0.006   9.839  20.525  0.00  0.00    +0.000 A 
ATOM     24  N   UNL     1       0.442  10.062  19.312  0.00  0.00    +0.000 NA
ATOM     25  C   UNL     1       1.373   9.073  19.089  0.00  0.00    +0.000 A 
ATOM     26  C   UNL     1       2.255   8.897  18.015  0.00  0.00    +0.000 A 
ATOM     27  C   UNL     1       3.068   7.753  17.988  0.00  0.00    +0.000 A 
ATOM     28  C   UNL     1       3.002   6.783  19.000  0.00  0.00    +0.000 A 
ATOM     29  C   UNL     1       2.143   6.974  20.102  0.00  0.00    +0.000 A 
ATOM     30  C   UNL     1       1.376   8.145  20.124  0.00  0.00    +0.000 A 
ATOM     31  N   UNL     1       0.525   8.689  21.053  0.00  0.00    +0.000 N 
ATOM     32  H   UNL     1      -1.392  11.305  20.585  0.00  0.00    +0.000 HD
ATOM     33  H   UNL     1       0.307   8.318  21.967  0.00  0.00    +0.000 HD
ENDBRANCH  18  28
ENDBRANCH   1  18
TORSDOF 5
ENDMDL
MODEL 7
REMARK VINA RESULT:      -7.9      7.636     10.561
REMARK  Name = 
REMARK  6 active torsions:
REMARK  status: ('A' for Active; 'I' for Inactive)
REMARK    1  A    between atoms: C_1  and  C_2
REMARK    2  A    between atoms: C_10  and  C_11
REMARK    3  A    between atoms: C_11  and  C_12
REMARK    4  A    between atoms: C_12  and  N_13
REMARK    5  A    between atoms: N_16  and  C_17
REMARK    6  A    between atoms: C_21  and  C_22
REMARK                            x       y       z     vdW  Elec       q    Type
REMARK                         _______ _______ _______ _____ _____    ______ ____
ROOT
ATOM      1  C   UNL     1       9.088   9.656  18.718  0.00  0.00    +0.000 C 
ENDROOT
BRANCH   1   2
ATOM      2  N   UNL     1       8.066   9.178  17.788  0.00  0.00    +0.000 N 
ATOM      3  C   UNL     1       7.646   7.866  17.858  0.00  0.00    +0.000 C 
ATOM      4  O   UNL     1       8.159   7.078  18.637  0.00  0.00    +0.000 OA
ATOM      5  N   UNL     1       6.642   7.571  16.959  0.00  0.00    +0.000 N 
ATOM      6  H   UNL     1       7.528   9.848  17.268  0.00  0.00    +0.000 HD
ATOM      7  H   UNL     1       6.526   8.210  16.181  0.00  0.00    +0.000 HD
BRANCH   5   8
ATOM      8  C   UNL     1       5.993   6.309  16.859  0.00  0.00    +0.000 A 
ATOM      9  C   UNL     1       6.506   5.267  16.078  0.00  0.00    +0.000 A 
ATOM     10  C   UNL     1       5.811   4.069  15.927  0.00  0.00    +0.000 A 
ATOM     11  C   UNL     1       4.576   3.904  16.547  0.00  0.00    +0.000 A 
ATOM     12  C   UNL     1       4.045   4.922  17.347  0.00  0.00    +0.000 A 
ATOM     13  C   UNL     1       4.770   6.119  17.515  0.00  0.00    +0.000 A 
BRANCH  12  14
ATOM     14  C   UNL     1       2.690   4.751  17.992  0.00  0.00    +0.000 C 
ATOM     15  F   UNL     1       1.744   4.244  17.151  0.00  0.00    +0.000 F 
ATOM     16  F   UNL     1       2.724   3.912  19.062  0.00  0.00    +0.000 F 
ATOM     17  F   UNL     1       2.182   5.927  18.453  0.00  0.00    +0.000 F 
ENDBRANCH  12  14
ENDBRANCH   5   8
ENDBRANCH   1   2
BRANCH   1  18
ATOM     18  C   UNL     1       9.740  10.961  18.245  0.00  0.00    +0.000 C 
BRANCH  18  28
ATOM     19  C   UNL     1       8.054  14.777  26.708  0.00  0.00    +0.000 C 
ATOM     20  C   UNL     1       8.456  14.034  25.461  0.00  0.00    +0.000 C 
ATOM     21  O   UNL     1       8.602  12.814  25.458  0.00  0.00    +0.000 OA
ATOM     22  N   UNL     1       8.607  14.857  24.364  0.00  0.00    +0.000 N 
ATOM     23  C   UNL     1       9.012  14.323  23.166  0.00  0.00    +0.000 A 
ATOM     24  N   UNL     1       9.899  14.870  22.370  0.00  0.00    +0.000 NA
ATOM     25  C   UNL     1      10.045  13.978  21.333  0.00  0.00    +0.000 A 
ATOM     26  C   UNL     1      10.952  13.985  20.265  0.00  0.00    +0.000 A 
ATOM     27  C   UNL     1      10.851  12.985  19.284  0.00  0.00    +0.000 A 
ATOM     28  C   UNL     1       9.855  11.997  19.347  0.00  0.00    +0.000 A 
ATOM     29  C   UNL     1       8.965  11.963  20.439  0.00  0.00    +0.000 A 
ATOM     30  C   UNL     1       9.117  12.948  21.423  0.00  0.00    +0.000 A 
ATOM     31  N   UNL     1       8.507  13.163  22.633  0.00  0.00    +0.000 N 
ATOM     32  H   UNL     1       8.888  15.817  24.517  0.00  0.00    +0.000 HD
ATOM     33  H   UNL     1       7.801  12.586  23.068  0.00  0.00    +0.000 HD
ENDBRANCH  18  28
ENDBRANCH   1  18
TORSDOF 5
ENDMDL
MODEL 8
REMARK VINA RESULT:      -7.8      5.401      9.153
REMARK  Name = 
REMARK  6 active torsions:
REMARK  status: ('A' for Active; 'I' for Inactive)
REMARK    1  A    between atoms: C_1  and  C_2
REMARK    2  A    between atoms: C_10  and  C_11
REMARK    3  A    between atoms: C_11  and  C_12
REMARK    4  A    between atoms: C_12  and  N_13
REMARK    5  A    between atoms: N_16  and  C_17
REMARK    6  A    between atoms: C_21  and  C_22
REMARK                            x       y       z     vdW  Elec       q    Type
REMARK                         _______ _______ _______ _____ _____    ______ ____
ROOT
ATOM      1  C   UNL     1       1.481   8.861  21.205  0.00  0.00    +0.000 C 
ENDROOT
BRANCH   1   2
ATOM      2  N   UNL     1       0.451   9.859  20.921  0.00  0.00    +0.000 N 
ATOM      3  C   UNL     1      -0.074  10.606  21.956  0.00  0.00    +0.000 C 
ATOM      4  O   UNL     1       0.257  10.403  23.113  0.00  0.00    +0.000 OA
ATOM      5  N   UNL     1      -0.994  11.543  21.533  0.00  0.00    +0.000 N 
ATOM      6  H   UNL     1       0.298  10.145  19.970  0.00  0.00    +0.000 HD
ATOM      7  H   UNL     1      -1.397  11.402  20.614  0.00  0.00    +0.000 HD
BRANCH   5   8
ATOM      8  C   UNL     1      -1.645  12.476  22.386  0.00  0.00    +0.000 A 
ATOM      9  C   UNL     1      -0.952  13.506  23.032  0.00  0.00    +0.000 A 
ATOM     10  C   UNL     1      -1.595  14.357  23.929  0.00  0.00    +0.000 A 
ATOM     11  C   UNL     1      -2.947  14.174  24.207  0.00  0.00    +0.000 A 
ATOM     12  C   UNL     1      -3.670  13.162  23.565  0.00  0.00    +0.000 A 
ATOM     13  C   UNL     1      -3.016  12.326  22.638  0.00  0.00    +0.000 A 
BRANCH  12  14
ATOM     14  C   UNL     1      -5.128  12.948  23.893  0.00  0.00    +0.000 C 
ATOM     15  F   UNL     1      -5.854  12.444  22.855  0.00  0.00    +0.000 F 
ATOM     16  F   UNL     1      -5.308  12.082  24.927  0.00  0.00    +0.000 F 
ATOM     17  F   UNL     1      -5.754  14.101  24.256  0.00  0.00    +0.000 F 
ENDBRANCH  12  14
ENDBRANCH   5   8
ENDBRANCH   1   2
BRANCH   1  18
ATOM     18  C   UNL     1       0.921   7.434  21.221  0.00  0.00    +0.000 C 
BRANCH  18  28
ATOM     19  C   UNL     1       7.046   4.858  14.524  0.00  0.00    +0.000 C 
ATOM     20  C   UNL     1       6.242   5.327  15.708  0.00  0.00    +0.000 C 
ATOM     21  O   UNL     1       6.543   6.344  16.328  0.00  0.00    +0.000 OA
ATOM     22  N   UNL     1       5.156   4.521  15.979  0.00  0.00    +0.000 N 
ATOM     23  C   UNL     1       4.353   4.805  17.057  0.00  0.00    +0.000 A 
ATOM     24  N   UNL     1       3.886   3.907  17.891  0.00  0.00    +0.000 NA
ATOM     25  C   UNL     1       3.196   4.628  18.839  0.00  0.00    +0.000 A 
ATOM     26  C   UNL     1       2.602   4.201  20.034  0.00  0.00    +0.000 A 
ATOM     27  C   UNL     1       1.886   5.131  20.804  0.00  0.00    +0.000 A 
ATOM     28  C   UNL     1       1.744   6.466  20.394  0.00  0.00    +0.000 A 
ATOM     29  C   UNL     1       2.371   6.910  19.212  0.00  0.00    +0.000 A 
ATOM     30  C   UNL     1       3.114   5.970  18.487  0.00  0.00    +0.000 A 
ATOM     31  N   UNL     1       3.909   6.064  17.372  0.00  0.00    +0.000 N 
ATOM     32  H   UNL     1       5.210   3.541  15.738  0.00  0.00    +0.000 HD
ATOM     33  H   UNL     1       4.132   6.903  16.855  0.00  0.00    +0.000 HD
ENDBRANCH  18  28
ENDBRANCH   1  18
TORSDOF 5
ENDMDL
MODEL 9
REMARK VINA RESULT:      -7.8      4.000      5.899
REMARK  Name = 
REMARK  6 active torsions:
REMARK  status: ('A' for Active; 'I' for Inactive)
REMARK    1  A    between atoms: C_1  and  C_2
REMARK    2  A    between atoms: C_10  and  C_11
REMARK    3  A    between atoms: C_11  and  C_12
REMARK    4  A    between atoms: C_12  and  N_13
REMARK    5  A    between atoms: N_16  and  C_17
REMARK    6  A    between atoms: C_21  and  C_22
REMARK                            x       y       z     vdW  Elec       q    Type
REMARK                         _______ _______ _______ _____ _____    ______ ____
ROOT
ATOM      1  C   UNL     1       1.348   9.094  21.486  0.00  0.00    +0.000 C 
ENDROOT
BRANCH   1   2
ATOM      2  N   UNL     1       1.815   7.719  21.308  0.00  0.00    +0.000 N 
ATOM      3  C   UNL     1       2.297   7.320  20.078  0.00  0.00    +0.000 C 
ATOM      4  O   UNL     1       2.279   8.073  19.117  0.00  0.00    +0.000 OA
ATOM      5  N   UNL     1       2.752   6.018  20.073  0.00  0.00    +0.000 N 
ATOM      6  H   UNL     1       1.988   7.154  22.120  0.00  0.00    +0.000 HD
ATOM      7  H   UNL     1       2.433   5.422  20.828  0.00  0.00    +0.000 HD
BRANCH   5   8
ATOM      8  C   UNL     1       3.346   5.376  18.951  0.00  0.00    +0.000 A 
ATOM      9  C   UNL     1       2.629   4.503  18.125  0.00  0.00    +0.000 A 
ATOM     10  C   UNL     1       3.252   3.820  17.083  0.00  0.00    +0.000 A 
ATOM     11  C   UNL     1       4.616   3.990  16.864  0.00  0.00    +0.000 A 
ATOM     12  C   UNL     1       5.357   4.869  17.663  0.00  0.00    +0.000 A 
ATOM     13  C   UNL     1       4.710   5.575  18.697  0.00  0.00    +0.000 A 
BRANCH  12  14
ATOM     14  C   UNL     1       6.842   5.026  17.442  0.00  0.00    +0.000 C 
ATOM     15  F   UNL     1       7.575   4.965  18.590  0.00  0.00    +0.000 F 
ATOM     16  F   UNL     1       7.352   4.067  16.623  0.00  0.00    +0.000 F 
ATOM     17  F   UNL     1       7.157   6.219  16.866  0.00  0.00    +0.000 F 
ENDBRANCH  12  14
ENDBRANCH   5   8
ENDBRANCH   1   2
BRANCH   1  18
ATOM     18  C   UNL     1       0.096   9.173  22.367  0.00  0.00    +0.000 C 
BRANCH  18  28
ATOM     19  C   UNL     1      -4.749  16.808  25.061  0.00  0.00    +0.000 C 
ATOM     20  C   UNL     1      -3.799  15.698  24.693  0.00  0.00    +0.000 C 
ATOM     21  O   UNL     1      -2.836  15.414  25.401  0.00  0.00    +0.000 OA
ATOM     22  N   UNL     1      -4.149  15.050  23.526  0.00  0.00    +0.000 N 
ATOM     23  C   UNL     1      -3.351  14.042  23.045  0.00  0.00    +0.000 A 
ATOM     24  N   UNL     1      -3.026  13.889  21.784  0.00  0.00    +0.000 NA
ATOM     25  C   UNL     1      -2.175  12.808  21.764  0.00  0.00    +0.000 A 
ATOM     26  C   UNL     1      -1.423  12.277  20.708  0.00  0.00    +0.000 A 
ATOM     27  C   UNL     1      -0.675  11.109  20.929  0.00  0.00    +0.000 A 
ATOM     28  C   UNL     1      -0.681  10.462  22.175  0.00  0.00    +0.000 A 
ATOM     29  C   UNL     1      -1.405  11.012  23.251  0.00  0.00    +0.000 A 
ATOM     30  C   UNL     1      -2.107  12.200  23.013  0.00  0.00    +0.000 A 
ATOM     31  N   UNL     1      -2.825  13.043  23.825  0.00  0.00    +0.000 N 
ATOM     32  H   UNL     1      -4.648  15.571  22.816  0.00  0.00    +0.000 HD
ATOM     33  H   UNL     1      -2.961  12.953  24.822  0.00  0.00    +0.000 HD
ENDBRANCH  18  28
ENDBRANCH   1  18
TORSDOF 5
ENDMDL
