MODEL 1
REMARK VINA RESULT:      -7.2      0.000      0.000
REMARK  Name = 
REMARK  6 active torsions:
REMARK  status: ('A' for Active; 'I' for Inactive)
REMARK    1  A    between atoms: C_1  and  O_2
REMARK    2  A    between atoms: O_2  and  C_3
REMARK    3  A    between atoms: C_6  and  C_7
REMARK    4  A    between atoms: C_8  and  C_9
REMARK    5  A    between atoms: C_11  and  N_12
REMARK    6  A    between atoms: C_15  and  N_16
REMARK                            x       y       z     vdW  Elec       q    Type
REMARK                         _______ _______ _______ _____ _____    ______ ____
ROOT
ATOM      1  C   UNL     1      -2.765  13.594  21.731  0.00  0.00    +0.000 C 
ATOM      2  C   UNL     1      -3.118  14.161  23.093  0.00  0.00    +0.000 C 
ATOM      3  C   UNL     1      -4.399  14.408  23.453  0.00  0.00    +0.000 C 
ATOM      4  O   UNL     1      -5.457  14.118  22.605  0.00  0.00    +0.000 OA
ATOM      5  C   UNL     1      -5.240  13.527  21.385  0.00  0.00    +0.000 A 
ATOM      6  C   UNL     1      -6.399  13.375  20.616  0.00  0.00    +0.000 A 
ATOM      7  C   UNL     1      -6.265  12.850  19.351  0.00  0.00    +0.000 A 
ATOM      8  C   UNL     1      -5.030  12.512  18.849  0.00  0.00    +0.000 A 
ATOM      9  N   UNL     1      -5.028  12.182  17.565  0.00  0.00    +0.000 NA
ATOM     10  C   UNL     1      -3.960  11.538  17.122  0.00  0.00    +0.000 A 
ATOM     11  C   UNL     1      -4.042  11.048  15.847  0.00  0.00    +0.000 A 
ATOM     12  C   UNL     1      -3.561   9.777  15.619  0.00  0.00    +0.000 A 
ATOM     13  C   UNL     1      -2.532   9.327  16.428  0.00  0.00    +0.000 A 
ATOM     14  C   UNL     1      -2.111  10.114  17.517  0.00  0.00    +0.000 A 
ATOM     15  C   UNL     1      -2.892  11.195  17.955  0.00  0.00    +0.000 A 
ATOM     16  N   UNL     1      -2.772  11.823  19.164  0.00  0.00    +0.000 NA
ATOM     17  C   UNL     1      -3.867  12.488  19.655  0.00  0.00    +0.000 A 
ATOM     18  C   UNL     1      -3.971  13.128  20.920  0.00  0.00    +0.000 A 
ENDROOT
BRANCH   1  22
ATOM     19  C   UNL     1       0.485  10.719  21.942  0.00  0.00    +0.000 A 
ATOM     20  C   UNL     1       0.583  11.826  21.090  0.00  0.00    +0.000 A 
ATOM     21  C   UNL     1      -0.443  12.777  21.023  0.00  0.00    +0.000 A 
ATOM     22  C   UNL     1      -1.593  12.626  21.807  0.00  0.00    +0.000 A 
ATOM     23  C   UNL     1      -1.686  11.514  22.662  0.00  0.00    +0.000 A 
ATOM     24  C   UNL     1      -0.658  10.582  22.729  0.00  0.00    +0.000 A 
ATOM     25  F   UNL     1      -0.819   9.554  23.576  0.00  0.00    +0.000 F 
BRANCH  19  27
ATOM     26  C   UNL     1       1.335   8.595  21.316  0.00  0.00    +0.000 C 
ATOM     27  O   UNL     1       1.560   9.873  21.901  0.00  0.00    +0.000 OA
ENDBRANCH  19  27
ENDBRANCH   1  22
BRANCH   3  28
ATOM     28  N   UNL     1      -4.831  14.971  24.623  0.00  0.00    +0.000 N 
ATOM     29  H   UNL     1      -4.829  14.355  25.433  0.00  0.00    +0.000 HD
ATOM     30  H   UNL     1      -5.709  15.475  24.506  0.00  0.00    +0.000 HD
ENDBRANCH   3  28
BRANCH   6  31
ATOM     31  N   UNL     1      -7.678  13.565  21.155  0.00  0.00    +0.000 N 
ATOM     32  H   UNL     1      -8.302  14.057  20.520  0.00  0.00    +0.000 HD
ATOM     33  H   UNL     1      -8.095  12.729  21.551  0.00  0.00    +0.000 HD
ENDBRANCH   6  31
BRANCH   2  34
ATOM     34  C   UNL     1      -2.082  14.541  23.989  0.00  0.00    +0.000 C 
ATOM     35  N   UNL     1      -1.252  14.853  24.730  0.00  0.00    +0.000 NA
ENDBRANCH   2  34
TORSDOF 5
ENDMDL
MODEL 2
REMARK VINA RESULT:      -6.7      1.399      1.672
REMARK  Name = 
REMARK  6 active torsions:
REMARK  status: ('A' for Active; 'I' for Inactive)
REMARK    1  A    between atoms: C_1  and  O_2
REMARK    2  A    between atoms: O_2  and  C_3
REMARK    3  A    between atoms: C_6  and  C_7
REMARK    4  A    between atoms: C_8  and  C_9
REMARK    5  A    between atoms: C_11  and  N_12
REMARK    6  A    between atoms: C_15  and  N_16
REMARK                            x       y       z     vdW  Elec       q    Type
REMARK                         _______ _______ _______ _____ _____    ______ ____
ROOT
ATOM      1  C   UNL     1      -3.568  13.938  21.420  0.00  0.00    +0.000 C 
ATOM      2  C   UNL     1      -4.020  14.394  22.795  0.00  0.00    +0.000 C 
ATOM      3  C   UNL     1      -5.227  14.048  23.301  0.00  0.00    +0.000 C 
ATOM      4  O   UNL     1      -6.095  13.226  22.600  0.00  0.00    +0.000 OA
ATOM      5  C   UNL     1      -5.739  12.699  21.384  0.00  0.00    +0.000 A 
ATOM      6  C   UNL     1      -6.754  11.958  20.768  0.00  0.00    +0.000 A 
ATOM      7  C   UNL     1      -6.506  11.446  19.515  0.00  0.00    +0.000 A 
ATOM      8  C   UNL     1      -5.310  11.678  18.878  0.00  0.00    +0.000 A 
ATOM      9  N   UNL     1      -5.271  11.274  17.616  0.00  0.00    +0.000 NA
ATOM     10  C   UNL     1      -4.072  11.164  17.068  0.00  0.00    +0.000 A 
ATOM     11  C   UNL     1      -4.030  10.581  15.830  0.00  0.00    +0.000 A 
ATOM     12  C   UNL     1      -3.030   9.665  15.588  0.00  0.00    +0.000 A 
ATOM     13  C   UNL     1      -1.841   9.817  16.280  0.00  0.00    +0.000 A 
ATOM     14  C   UNL     1      -1.742  10.803  17.281  0.00  0.00    +0.000 A 
ATOM     15  C   UNL     1      -2.896  11.432  17.774  0.00  0.00    +0.000 A 
ATOM     16  N   UNL     1      -2.976  12.147  18.937  0.00  0.00    +0.000 NA
ATOM     17  C   UNL     1      -4.204  12.267  19.536  0.00  0.00    +0.000 A 
ATOM     18  C   UNL     1      -4.480  12.895  20.780  0.00  0.00    +0.000 A 
ENDROOT
BRANCH   1  22
ATOM     19  C   UNL     1       0.657  12.939  21.280  0.00  0.00    +0.000 A 
ATOM     20  C   UNL     1       0.200  14.134  20.712  0.00  0.00    +0.000 A 
ATOM     21  C   UNL     1      -1.154  14.486  20.765  0.00  0.00    +0.000 A 
ATOM     22  C   UNL     1      -2.077  13.636  21.385  0.00  0.00    +0.000 A 
ATOM     23  C   UNL     1      -1.614  12.438  21.956  0.00  0.00    +0.000 A 
ATOM     24  C   UNL     1      -0.266  12.102  21.908  0.00  0.00    +0.000 A 
ATOM     25  F   UNL     1       0.097  10.946  22.483  0.00  0.00    +0.000 F 
BRANCH  19  27
ATOM     26  C   UNL     1       2.743  13.742  20.486  0.00  0.00    +0.000 C 
ATOM     27  O   UNL     1       2.003  12.724  21.150  0.00  0.00    +0.000 OA
ENDBRANCH  19  27
ENDBRANCH   1  22
BRANCH   3  28
ATOM     28  N   UNL     1      -5.763  14.447  24.495  0.00  0.00    +0.000 N 
ATOM     29  H   UNL     1      -6.048  15.422  24.544  0.00  0.00    +0.000 HD
ATOM     30  H   UNL     1      -5.194  14.156  25.288  0.00  0.00    +0.000 HD
ENDBRANCH   3  28
BRANCH   6  31
ATOM     31  N   UNL     1      -7.917  11.579  21.454  0.00  0.00    +0.000 N 
ATOM     32  H   UNL     1      -8.743  12.074  21.128  0.00  0.00    +0.000 HD
ATOM     33  H   UNL     1      -8.056  10.576  21.520  0.00  0.00    +0.000 HD
ENDBRANCH   6  31
BRANCH   2  34
ATOM     34  C   UNL     1      -3.208  15.289  23.543  0.00  0.00    +0.000 C 
ATOM     35  N   UNL     1      -2.557  16.031  24.145  0.00  0.00    +0.000 NA
ENDBRANCH   2  34
TORSDOF 5
ENDMDL
MODEL 3
REMARK VINA RESULT:      -6.5      2.594      5.535
REMARK  Name = 
REMARK  6 active torsions:
REMARK  status: ('A' for Active; 'I' for Inactive)
REMARK    1  A    between atoms: C_1  and  O_2
REMARK    2  A    between atoms: O_2  and  C_3
REMARK    3  A    between atoms: C_6  and  C_7
REMARK    4  A    between atoms: C_8  and  C_9
REMARK    5  A    between atoms: C_11  and  N_12
REMARK    6  A    between atoms: C_15  and  N_16
REMARK                            x       y       z     vdW  Elec       q    Type
REMARK                         _______ _______ _______ _____ _____    ______ ____
ROOT
ATOM      1  C   UNL     1      -1.626  11.106  20.232  0.00  0.00    +0.000 C 
ATOM      2  C   UNL     1      -0.277  10.517  19.870  0.00  0.00    +0.000 C 
ATOM      3  C   UNL     1       0.017  10.129  18.606  0.00  0.00    +0.000 C 
ATOM      4  O   UNL     1      -0.892  10.288  17.572  0.00  0.00    +0.000 OA
ATOM      5  C   UNL     1      -2.108  10.886  17.788  0.00  0.00    +0.000 A 
ATOM      6  C   UNL     1      -2.942  10.897  16.665  0.00  0.00    +0.000 A 
ATOM      7  C   UNL     1      -4.207  11.421  16.809  0.00  0.00    +0.000 A 
ATOM      8  C   UNL     1      -4.645  11.893  18.024  0.00  0.00    +0.000 A 
ATOM      9  N   UNL     1      -5.933  12.207  18.061  0.00  0.00    +0.000 NA
ATOM     10  C   UNL     1      -6.327  12.964  19.072  0.00  0.00    +0.000 A 
ATOM     11  C   UNL     1      -7.613  13.429  19.006  0.00  0.00    +0.000 A 
ATOM     12  C   UNL     1      -7.836  14.744  19.352  0.00  0.00    +0.000 A 
ATOM     13  C   UNL     1      -6.980  15.317  20.276  0.00  0.00    +0.000 A 
ATOM     14  C   UNL     1      -5.856  14.594  20.722  0.00  0.00    +0.000 A 
ATOM     15  C   UNL     1      -5.443  13.436  20.046  0.00  0.00    +0.000 A 
ATOM     16  N   UNL     1      -4.219  12.838  20.168  0.00  0.00    +0.000 NA
ATOM     17  C   UNL     1      -3.777  12.058  19.129  0.00  0.00    +0.000 A 
ATOM     18  C   UNL     1      -2.510  11.424  19.028  0.00  0.00    +0.000 A 
ENDROOT
BRANCH   1  22
ATOM     19  C   UNL     1      -1.319  14.333  23.124  0.00  0.00    +0.000 A 
ATOM     20  C   UNL     1      -1.908  13.116  23.491  0.00  0.00    +0.000 A 
ATOM     21  C   UNL     1      -1.997  12.055  22.581  0.00  0.00    +0.000 A 
ATOM     22  C   UNL     1      -1.503  12.202  21.280  0.00  0.00    +0.000 A 
ATOM     23  C   UNL     1      -0.912  13.424  20.917  0.00  0.00    +0.000 A 
ATOM     24  C   UNL     1      -0.818  14.468  21.830  0.00  0.00    +0.000 A 
ATOM     25  F   UNL     1      -0.232  15.599  21.409  0.00  0.00    +0.000 F 
BRANCH  19  27
ATOM     26  C   UNL     1      -2.328  15.179  25.098  0.00  0.00    +0.000 C 
ATOM     27  O   UNL     1      -1.305  15.279  24.114  0.00  0.00    +0.000 OA
ENDBRANCH  19  27
ENDBRANCH   1  22
BRANCH   3  28
ATOM     28  N   UNL     1       1.171   9.532  18.176  0.00  0.00    +0.000 N 
ATOM     29  H   UNL     1       1.979  10.145  18.100  0.00  0.00    +0.000 HD
ATOM     30  H   UNL     1       1.022   8.962  17.345  0.00  0.00    +0.000 HD
ENDBRANCH   3  28
BRANCH   6  31
ATOM     31  N   UNL     1      -2.470  10.568  15.387  0.00  0.00    +0.000 N 
ATOM     32  H   UNL     1      -2.179  11.384  14.854  0.00  0.00    +0.000 HD
ATOM     33  H   UNL     1      -1.783   9.821  15.374  0.00  0.00    +0.000 HD
ENDBRANCH   6  31
BRANCH   2  34
ATOM     34  C   UNL     1       0.680  10.267  20.890  0.00  0.00    +0.000 C 
ATOM     35  N   UNL     1       1.460  10.047  21.715  0.00  0.00    +0.000 NA
ENDBRANCH   2  34
TORSDOF 5
ENDMDL
MODEL 4
REMARK VINA RESULT:      -6.5      2.625      5.793
REMARK  Name = 
REMARK  6 active torsions:
REMARK  status: ('A' for Active; 'I' for Inactive)
REMARK    1  A    between atoms: C_1  and  O_2
REMARK    2  A    between atoms: O_2  and  C_3
REMARK    3  A    between atoms: C_6  and  C_7
REMARK    4  A    between atoms: C_8  and  C_9
REMARK    5  A    between atoms: C_11  and  N_12
REMARK    6  A    between atoms: C_15  and  N_16
REMARK                            x       y       z     vdW  Elec       q    Type
REMARK                         _______ _______ _______ _____ _____    ______ ____
ROOT
ATOM      1  C   UNL     1      -2.623  11.442  19.302  0.00  0.00    +0.000 C 
ATOM      2  C   UNL     1      -2.162  10.874  17.974  0.00  0.00    +0.000 C 
ATOM      3  C   UNL     1      -2.977  10.833  16.894  0.00  0.00    +0.000 C 
ATOM      4  O   UNL     1      -4.264  11.345  16.940  0.00  0.00    +0.000 OA
ATOM      5  C   UNL     1      -4.741  11.952  18.075  0.00  0.00    +0.000 A 
ATOM      6  C   UNL     1      -6.082  12.341  17.989  0.00  0.00    +0.000 A 
ATOM      7  C   UNL     1      -6.661  12.900  19.106  0.00  0.00    +0.000 A 
ATOM      8  C   UNL     1      -5.953  13.045  20.275  0.00  0.00    +0.000 A 
ATOM      9  N   UNL     1      -6.678  13.436  21.314  0.00  0.00    +0.000 NA
ATOM     10  C   UNL     1      -6.013  13.909  22.355  0.00  0.00    +0.000 A 
ATOM     11  C   UNL     1      -6.771  14.471  23.346  0.00  0.00    +0.000 A 
ATOM     12  C   UNL     1      -6.324  15.650  23.902  0.00  0.00    +0.000 A 
ATOM     13  C   UNL     1      -4.958  15.874  23.917  0.00  0.00    +0.000 A 
ATOM     14  C   UNL     1      -4.100  14.970  23.260  0.00  0.00    +0.000 A 
ATOM     15  C   UNL     1      -4.620  14.018  22.369  0.00  0.00    +0.000 A 
ATOM     16  N   UNL     1      -3.895  13.318  21.444  0.00  0.00    +0.000 NA
ATOM     17  C   UNL     1      -4.556  12.827  20.346  0.00  0.00    +0.000 A 
ATOM     18  C   UNL     1      -3.973  12.150  19.241  0.00  0.00    +0.000 A 
ENDROOT
BRANCH   1  22
ATOM     19  C   UNL     1       0.490  13.696  21.326  0.00  0.00    +0.000 A 
ATOM     20  C   UNL     1       0.046  12.480  21.860  0.00  0.00    +0.000 A 
ATOM     21  C   UNL     1      -0.940  11.726  21.212  0.00  0.00    +0.000 A 
ATOM     22  C   UNL     1      -1.506  12.187  20.017  0.00  0.00    +0.000 A 
ATOM     23  C   UNL     1      -1.057  13.408  19.485  0.00  0.00    +0.000 A 
ATOM     24  C   UNL     1      -0.070  14.144  20.130  0.00  0.00    +0.000 A 
ATOM     25  F   UNL     1       0.311  15.294  19.553  0.00  0.00    +0.000 F 
BRANCH  19  27
ATOM     26  C   UNL     1       2.738  14.441  21.465  0.00  0.00    +0.000 C 
ATOM     27  O   UNL     1       1.454  14.325  22.068  0.00  0.00    +0.000 OA
ENDBRANCH  19  27
ENDBRANCH   1  22
BRANCH   3  28
ATOM     28  N   UNL     1      -2.693  10.294  15.669  0.00  0.00    +0.000 N 
ATOM     29  H   UNL     1      -2.198  10.905  15.024  0.00  0.00    +0.000 HD
ATOM     30  H   UNL     1      -3.505   9.844  15.249  0.00  0.00    +0.000 HD
ENDBRANCH   3  28
BRANCH   6  31
ATOM     31  N   UNL     1      -6.776  12.347  16.772  0.00  0.00    +0.000 N 
ATOM     32  H   UNL     1      -6.702  11.463  16.274  0.00  0.00    +0.000 HD
ATOM     33  H   UNL     1      -7.731  12.685  16.836  0.00  0.00    +0.000 HD
ENDBRANCH   6  31
BRANCH   2  34
ATOM     34  C   UNL     1      -0.877  10.276  17.870  0.00  0.00    +0.000 C 
ATOM     35  N   UNL     1       0.166   9.782  17.803  0.00  0.00    +0.000 NA
ENDBRANCH   2  34
TORSDOF 5
ENDMDL
MODEL 5
REMARK VINA RESULT:      -6.5      2.506      5.435
REMARK  Name = 
REMARK  6 active torsions:
REMARK  status: ('A' for Active; 'I' for Inactive)
REMARK    1  A    between atoms: C_1  and  O_2
REMARK    2  A    between atoms: O_2  and  C_3
REMARK    3  A    between atoms: C_6  and  C_7
REMARK    4  A    between atoms: C_8  and  C_9
REMARK    5  A    between atoms: C_11  and  N_12
REMARK    6  A    between atoms: C_15  and  N_16
REMARK                            x       y       z     vdW  Elec       q    Type
REMARK                         _______ _______ _______ _____ _____    ______ ____
ROOT
ATOM      1  C   UNL     1      -1.637  11.119  19.992  0.00  0.00    +0.000 C 
ATOM      2  C   UNL     1      -0.264  10.536  19.722  0.00  0.00    +0.000 C 
ATOM      3  C   UNL     1       0.073  10.035  18.510  0.00  0.00    +0.000 C 
ATOM      4  O   UNL     1      -0.811  10.067  17.444  0.00  0.00    +0.000 OA
ATOM      5  C   UNL     1      -2.048  10.649  17.571  0.00  0.00    +0.000 A 
ATOM      6  C   UNL     1      -2.851  10.527  16.432  0.00  0.00    +0.000 A 
ATOM      7  C   UNL     1      -4.132  11.027  16.494  0.00  0.00    +0.000 A 
ATOM      8  C   UNL     1      -4.615  11.601  17.646  0.00  0.00    +0.000 A 
ATOM      9  N   UNL     1      -5.911  11.881  17.621  0.00  0.00    +0.000 NA
ATOM     10  C   UNL     1      -6.352  12.721  18.543  0.00  0.00    +0.000 A 
ATOM     11  C   UNL     1      -7.648  13.141  18.401  0.00  0.00    +0.000 A 
ATOM     12  C   UNL     1      -7.914  14.476  18.612  0.00  0.00    +0.000 A 
ATOM     13  C   UNL     1      -7.098  15.160  19.495  0.00  0.00    +0.000 A 
ATOM     14  C   UNL     1      -5.968  14.517  20.037  0.00  0.00    +0.000 A 
ATOM     15  C   UNL     1      -5.507  13.310  19.487  0.00  0.00    +0.000 A 
ATOM     16  N   UNL     1      -4.271  12.763  19.696  0.00  0.00    +0.000 NA
ATOM     17  C   UNL     1      -3.782  11.898  18.750  0.00  0.00    +0.000 A 
ATOM     18  C   UNL     1      -2.496  11.293  18.743  0.00  0.00    +0.000 A 
ENDROOT
BRANCH   1  22
ATOM     19  C   UNL     1      -1.412  14.441  22.782  0.00  0.00    +0.000 A 
ATOM     20  C   UNL     1      -0.807  14.541  21.524  0.00  0.00    +0.000 A 
ATOM     21  C   UNL     1      -0.886  13.491  20.600  0.00  0.00    +0.000 A 
ATOM     22  C   UNL     1      -1.570  12.315  20.931  0.00  0.00    +0.000 A 
ATOM     23  C   UNL     1      -2.177  12.220  22.195  0.00  0.00    +0.000 A 
ATOM     24  C   UNL     1      -2.102  13.271  23.100  0.00  0.00    +0.000 A 
ATOM     25  F   UNL     1      -2.715  13.106  24.282  0.00  0.00    +0.000 F 
BRANCH  19  27
ATOM     26  C   UNL     1      -2.108  16.645  23.316  0.00  0.00    +0.000 C 
ATOM     27  O   UNL     1      -1.250  15.541  23.581  0.00  0.00    +0.000 OA
ENDBRANCH  19  27
ENDBRANCH   1  22
BRANCH   3  28
ATOM     28  N   UNL     1       1.254   9.433  18.168  0.00  0.00    +0.000 N 
ATOM     29  H   UNL     1       1.786   9.040  18.941  0.00  0.00    +0.000 HD
ATOM     30  H   UNL     1       1.817  10.015  17.549  0.00  0.00    +0.000 HD
ENDBRANCH   3  28
BRANCH   6  31
ATOM     31  N   UNL     1      -2.337  10.089  15.204  0.00  0.00    +0.000 N 
ATOM     32  H   UNL     1      -3.055   9.714  14.590  0.00  0.00    +0.000 HD
ATOM     33  H   UNL     1      -1.729  10.757  14.742  0.00  0.00    +0.000 HD
ENDBRANCH   6  31
BRANCH   2  34
ATOM     34  C   UNL     1       0.672  10.414  20.784  0.00  0.00    +0.000 C 
ATOM     35  N   UNL     1       1.442  10.330  21.643  0.00  0.00    +0.000 NA
ENDBRANCH   2  34
TORSDOF 5
ENDMDL
MODEL 6
REMARK VINA RESULT:      -6.5      2.108      5.789
REMARK  Name = 
REMARK  6 active torsions:
REMARK  status: ('A' for Active; 'I' for Inactive)
REMARK    1  A    between atoms: C_1  and  O_2
REMARK    2  A    between atoms: O_2  and  C_3
REMARK    3  A    between atoms: C_6  and  C_7
REMARK    4  A    between atoms: C_8  and  C_9
REMARK    5  A    between atoms: C_11  and  N_12
REMARK    6  A    between atoms: C_15  and  N_16
REMARK                            x       y       z     vdW  Elec       q    Type
REMARK                         _______ _______ _______ _____ _____    ______ ____
ROOT
ATOM      1  C   UNL     1      -3.029  11.837  19.570  0.00  0.00    +0.000 C 
ATOM      2  C   UNL     1      -3.566  11.447  18.206  0.00  0.00    +0.000 C 
ATOM      3  C   UNL     1      -4.807  11.804  17.800  0.00  0.00    +0.000 C 
ATOM      4  O   UNL     1      -5.634  12.578  18.598  0.00  0.00    +0.000 OA
ATOM      5  C   UNL     1      -5.204  13.045  19.815  0.00  0.00    +0.000 A 
ATOM      6  C   UNL     1      -6.182  13.740  20.534  0.00  0.00    +0.000 A 
ATOM      7  C   UNL     1      -5.856  14.189  21.793  0.00  0.00    +0.000 A 
ATOM      8  C   UNL     1      -4.619  13.939  22.338  0.00  0.00    +0.000 A 
ATOM      9  N   UNL     1      -4.500  14.276  23.615  0.00  0.00    +0.000 NA
ATOM     10  C   UNL     1      -3.268  14.372  24.088  0.00  0.00    +0.000 A 
ATOM     11  C   UNL     1      -3.150  14.890  25.350  0.00  0.00    +0.000 A 
ATOM     12  C   UNL     1      -2.144  15.804  25.573  0.00  0.00    +0.000 A 
ATOM     13  C   UNL     1      -1.002  15.703  24.798  0.00  0.00    +0.000 A 
ATOM     14  C   UNL     1      -0.961  14.772  23.742  0.00  0.00    +0.000 A 
ATOM     15  C   UNL     1      -2.139  14.156  23.293  0.00  0.00    +0.000 A 
ATOM     16  N   UNL     1      -2.289  13.502  22.101  0.00  0.00    +0.000 NA
ATOM     17  C   UNL     1      -3.554  13.398  21.579  0.00  0.00    +0.000 A 
ATOM     18  C   UNL     1      -3.906  12.833  20.323  0.00  0.00    +0.000 A 
ENDROOT
BRANCH   1  22
ATOM     19  C   UNL     1       1.245  12.600  19.413  0.00  0.00    +0.000 A 
ATOM     20  C   UNL     1       0.357  13.438  18.727  0.00  0.00    +0.000 A 
ATOM     21  C   UNL     1      -1.025  13.224  18.783  0.00  0.00    +0.000 A 
ATOM     22  C   UNL     1      -1.542  12.154  19.523  0.00  0.00    +0.000 A 
ATOM     23  C   UNL     1      -0.647  11.316  20.212  0.00  0.00    +0.000 A 
ATOM     24  C   UNL     1       0.723  11.544  20.160  0.00  0.00    +0.000 A 
ATOM     25  F   UNL     1       1.509  10.705  20.851  0.00  0.00    +0.000 F 
BRANCH  19  27
ATOM     26  C   UNL     1       2.873  13.868  18.244  0.00  0.00    +0.000 C 
ATOM     27  O   UNL     1       2.566  12.927  19.266  0.00  0.00    +0.000 OA
ENDBRANCH  19  27
ENDBRANCH   1  22
BRANCH   3  28
ATOM     28  N   UNL     1      -5.417  11.462  16.624  0.00  0.00    +0.000 N 
ATOM     29  H   UNL     1      -5.790  12.238  16.081  0.00  0.00    +0.000 HD
ATOM     30  H   UNL     1      -6.084  10.701  16.744  0.00  0.00    +0.000 HD
ENDBRANCH   3  28
BRANCH   6  31
ATOM     31  N   UNL     1      -7.391  14.140  19.947  0.00  0.00    +0.000 N 
ATOM     32  H   UNL     1      -7.465  13.858  18.973  0.00  0.00    +0.000 HD
ATOM     33  H   UNL     1      -8.217  13.910  20.490  0.00  0.00    +0.000 HD
ENDBRANCH   6  31
BRANCH   2  34
ATOM     34  C   UNL     1      -2.797  10.603  17.360  0.00  0.00    +0.000 C 
ATOM     35  N   UNL     1      -2.181   9.922  16.657  0.00  0.00    +0.000 NA
ENDBRANCH   2  34
TORSDOF 5
ENDMDL
MODEL 7
REMARK VINA RESULT:      -6.4      2.762      5.060
REMARK  Name = 
REMARK  6 active torsions:
REMARK  status: ('A' for Active; 'I' for Inactive)
REMARK    1  A    between atoms: C_1  and  O_2
REMARK    2  A    between atoms: O_2  and  C_3
REMARK    3  A    between atoms: C_6  and  C_7
REMARK    4  A    between atoms: C_8  and  C_9
REMARK    5  A    between atoms: C_11  and  N_12
REMARK    6  A    between atoms: C_15  and  N_16
REMARK                            x       y       z     vdW  Elec       q    Type
REMARK                         _______ _______ _______ _____ _____    ______ ____
ROOT
ATOM      1  C   UNL     1      -1.518  14.126  22.593  0.00  0.00    +0.000 C 
ATOM      2  C   UNL     1      -0.822  15.181  23.432  0.00  0.00    +0.000 C 
ATOM      3  C   UNL     1       0.179  15.943  22.933  0.00  0.00    +0.000 C 
ATOM      4  O   UNL     1       0.591  15.822  21.615  0.00  0.00    +0.000 OA
ATOM      5  C   UNL     1      -0.034  14.951  20.758  0.00  0.00    +0.000 A 
ATOM      6  C   UNL     1       0.551  14.887  19.489  0.00  0.00    +0.000 A 
ATOM      7  C   UNL     1       0.027  13.991  18.585  0.00  0.00    +0.000 A 
ATOM      8  C   UNL     1      -1.019  13.167  18.928  0.00  0.00    +0.000 A 
ATOM      9  N   UNL     1      -1.309  12.240  18.025  0.00  0.00    +0.000 NA
ATOM     10  C   UNL     1      -2.488  11.652  18.140  0.00  0.00    +0.000 A 
ATOM     11  C   UNL     1      -2.851  10.829  17.108  0.00  0.00    +0.000 A 
ATOM     12  C   UNL     1      -4.149  10.907  16.654  0.00  0.00    +0.000 A 
ATOM     13  C   UNL     1      -5.123  11.287  17.560  0.00  0.00    +0.000 A 
ATOM     14  C   UNL     1      -4.745  11.698  18.853  0.00  0.00    +0.000 A 
ATOM     15  C   UNL     1      -3.403  11.993  19.140  0.00  0.00    +0.000 A 
ATOM     16  N   UNL     1      -2.958  12.694  20.227  0.00  0.00    +0.000 NA
ATOM     17  C   UNL     1      -1.744  13.326  20.132  0.00  0.00    +0.000 A 
ATOM     18  C   UNL     1      -1.149  14.165  21.113  0.00  0.00    +0.000 A 
ENDROOT
BRANCH   1  22
ATOM     19  C   UNL     1      -5.723  13.850  23.647  0.00  0.00    +0.000 A 
ATOM     20  C   UNL     1      -5.279  14.871  22.797  0.00  0.00    +0.000 A 
ATOM     21  C   UNL     1      -3.932  14.965  22.427  0.00  0.00    +0.000 A 
ATOM     22  C   UNL     1      -3.003  14.037  22.913  0.00  0.00    +0.000 A 
ATOM     23  C   UNL     1      -3.454  13.014  23.764  0.00  0.00    +0.000 A 
ATOM     24  C   UNL     1      -4.795  12.922  24.117  0.00  0.00    +0.000 A 
ATOM     25  F   UNL     1      -5.147  11.912  24.926  0.00  0.00    +0.000 F 
BRANCH  19  27
ATOM     26  C   UNL     1      -7.867  12.905  23.278  0.00  0.00    +0.000 C 
ATOM     27  O   UNL     1      -7.063  13.885  23.925  0.00  0.00    +0.000 OA
ENDBRANCH  19  27
ENDBRANCH   1  22
BRANCH   3  28
ATOM     28  N   UNL     1       0.916  16.878  23.608  0.00  0.00    +0.000 N 
ATOM     29  H   UNL     1       0.392  17.473  24.246  0.00  0.00    +0.000 HD
ATOM     30  H   UNL     1       1.533  17.401  22.989  0.00  0.00    +0.000 HD
ENDBRANCH   3  28
BRANCH   6  31
ATOM     31  N   UNL     1       1.511  15.817  19.066  0.00  0.00    +0.000 N 
ATOM     32  H   UNL     1       1.499  16.670  19.619  0.00  0.00    +0.000 HD
ATOM     33  H   UNL     1       2.443  15.433  18.950  0.00  0.00    +0.000 HD
ENDBRANCH   6  31
BRANCH   2  34
ATOM     34  C   UNL     1      -1.150  15.317  24.808  0.00  0.00    +0.000 C 
ATOM     35  N   UNL     1      -1.428  15.442  25.923  0.00  0.00    +0.000 NA
ENDBRANCH   2  34
TORSDOF 5
ENDMDL
MODEL 8
REMARK VINA RESULT:      -6.4      2.406      5.933
REMARK  Name = 
REMARK  6 active torsions:
REMARK  status: ('A' for Active; 'I' for Inactive)
REMARK    1  A    between atoms: C_1  and  O_2
REMARK    2  A    between atoms: O_2  and  C_3
REMARK    3  A    between atoms: C_6  and  C_7
REMARK    4  A    between atoms: C_8  and  C_9
REMARK    5  A    between atoms: C_11  and  N_12
REMARK    6  A    between atoms: C_15  and  N_16
REMARK                            x       y       z     vdW  Elec       q    Type
REMARK                         _______ _______ _______ _____ _____    ______ ____
ROOT
ATOM      1  C   UNL     1      -2.921  11.791  19.565  0.00  0.00    +0.000 C 
ATOM      2  C   UNL     1      -3.436  11.401  18.193  0.00  0.00    +0.000 C 
ATOM      3  C   UNL     1      -4.676  11.744  17.772  0.00  0.00    +0.000 C 
ATOM      4  O   UNL     1      -5.523  12.505  18.563  0.00  0.00    +0.000 OA
ATOM      5  C   UNL     1      -5.113  12.972  19.787  0.00  0.00    +0.000 A 
ATOM      6  C   UNL     1      -6.109  13.652  20.497  0.00  0.00    +0.000 A 
ATOM      7  C   UNL     1      -5.805  14.100  21.762  0.00  0.00    +0.000 A 
ATOM      8  C   UNL     1      -4.571  13.862  22.321  0.00  0.00    +0.000 A 
ATOM      9  N   UNL     1      -4.472  14.196  23.600  0.00  0.00    +0.000 NA
ATOM     10  C   UNL     1      -3.248  14.305  24.089  0.00  0.00    +0.000 A 
ATOM     11  C   UNL     1      -3.152  14.820  25.354  0.00  0.00    +0.000 A 
ATOM     12  C   UNL     1      -2.160  15.745  25.594  0.00  0.00    +0.000 A 
ATOM     13  C   UNL     1      -1.007  15.661  24.833  0.00  0.00    +0.000 A 
ATOM     14  C   UNL     1      -0.941  14.735  23.774  0.00  0.00    +0.000 A 
ATOM     15  C   UNL     1      -2.107  14.106  23.308  0.00  0.00    +0.000 A 
ATOM     16  N   UNL     1      -2.234  13.455  22.112  0.00  0.00    +0.000 NA
ATOM     17  C   UNL     1      -3.490  13.338  21.573  0.00  0.00    +0.000 A 
ATOM     18  C   UNL     1      -3.819  12.774  20.311  0.00  0.00    +0.000 A 
ENDROOT
BRANCH   1  22
ATOM     19  C   UNL     1       1.282  12.887  19.533  0.00  0.00    +0.000 A 
ATOM     20  C   UNL     1       0.880  11.671  20.098  0.00  0.00    +0.000 A 
ATOM     21  C   UNL     1      -0.467  11.287  20.098  0.00  0.00    +0.000 A 
ATOM     22  C   UNL     1      -1.437  12.127  19.538  0.00  0.00    +0.000 A 
ATOM     23  C   UNL     1      -1.028  13.346  18.971  0.00  0.00    +0.000 A 
ATOM     24  C   UNL     1       0.312  13.713  18.965  0.00  0.00    +0.000 A 
ATOM     25  F   UNL     1       0.623  14.888  18.397  0.00  0.00    +0.000 F 
BRANCH  19  27
ATOM     26  C   UNL     1       3.065  13.935  20.696  0.00  0.00    +0.000 C 
ATOM     27  O   UNL     1       2.628  13.131  19.606  0.00  0.00    +0.000 OA
ENDBRANCH  19  27
ENDBRANCH   1  22
BRANCH   3  28
ATOM     28  N   UNL     1      -5.268  11.400  16.588  0.00  0.00    +0.000 N 
ATOM     29  H   UNL     1      -4.684  11.499  15.760  0.00  0.00    +0.000 HD
ATOM     30  H   UNL     1      -6.189  11.822  16.481  0.00  0.00    +0.000 HD
ENDBRANCH   3  28
BRANCH   6  31
ATOM     31  N   UNL     1      -7.315  14.040  19.896  0.00  0.00    +0.000 N 
ATOM     32  H   UNL     1      -7.746  13.289  19.361  0.00  0.00    +0.000 HD
ATOM     33  H   UNL     1      -7.965  14.503  20.523  0.00  0.00    +0.000 HD
ENDBRANCH   6  31
BRANCH   2  34
ATOM     34  C   UNL     1      -2.647  10.570  17.354  0.00  0.00    +0.000 C 
ATOM     35  N   UNL     1      -1.999   9.908  16.661  0.00  0.00    +0.000 NA
ENDBRANCH   2  34
TORSDOF 5
ENDMDL
MODEL 9
REMARK VINA RESULT:      -6.4      2.330      2.661
REMARK  Name = 
REMARK  6 active torsions:
REMARK  status: ('A' for Active; 'I' for Inactive)
REMARK    1  A    between atoms: C_1  and  O_2
REMARK    2  A    between atoms: O_2  and  C_3
REMARK    3  A    between atoms: C_6  and  C_7
REMARK    4  A    between atoms: C_8  and  C_9
REMARK    5  A    between atoms: C_11  and  N_12
REMARK    6  A    between atoms: C_15  and  N_16
REMARK                            x       y       z     vdW  Elec       q    Type
REMARK                         _______ _______ _______ _____ _____    ______ ____
ROOT
ATOM      1  C   UNL     1      -3.781  14.697  21.454  0.00  0.00    +0.000 C 
ATOM      2  C   UNL     1      -4.365  15.339  22.698  0.00  0.00    +0.000 C 
ATOM      3  C   UNL     1      -5.572  14.975  23.189  0.00  0.00    +0.000 C 
ATOM      4  O   UNL     1      -6.319  13.968  22.599  0.00  0.00    +0.000 OA
ATOM      5  C   UNL     1      -5.836  13.274  21.518  0.00  0.00    +0.000 A 
ATOM      6  C   UNL     1      -6.741  12.348  20.988  0.00  0.00    +0.000 A 
ATOM      7  C   UNL     1      -6.364  11.652  19.862  0.00  0.00    +0.000 A 
ATOM      8  C   UNL     1      -5.148  11.881  19.261  0.00  0.00    +0.000 A 
ATOM      9  N   UNL     1      -4.987  11.271  18.095  0.00  0.00    +0.000 NA
ATOM     10  C   UNL     1      -3.747  11.180  17.643  0.00  0.00    +0.000 A 
ATOM     11  C   UNL     1      -3.570  10.399  16.532  0.00  0.00    +0.000 A 
ATOM     12  C   UNL     1      -2.484   9.552  16.513  0.00  0.00    +0.000 A 
ATOM     13  C   UNL     1      -1.363   9.930  17.232  0.00  0.00    +0.000 A 
ATOM     14  C   UNL     1      -1.416  11.079  18.046  0.00  0.00    +0.000 A 
ATOM     15  C   UNL     1      -2.650  11.673  18.354  0.00  0.00    +0.000 A 
ATOM     16  N   UNL     1      -2.870  12.567  19.365  0.00  0.00    +0.000 NA
ATOM     17  C   UNL     1      -4.144  12.675  19.864  0.00  0.00    +0.000 A 
ATOM     18  C   UNL     1      -4.558  13.479  20.960  0.00  0.00    +0.000 A 
ENDROOT
BRANCH   1  22
ATOM     19  C   UNL     1       0.541  14.377  21.750  0.00  0.00    +0.000 A 
ATOM     20  C   UNL     1      -0.278  13.551  22.530  0.00  0.00    +0.000 A 
ATOM     21  C   UNL     1      -1.673  13.622  22.434  0.00  0.00    +0.000 A 
ATOM     22  C   UNL     1      -2.272  14.533  21.556  0.00  0.00    +0.000 A 
ATOM     23  C   UNL     1      -1.446  15.358  20.774  0.00  0.00    +0.000 A 
ATOM     24  C   UNL     1      -0.062  15.273  20.868  0.00  0.00    +0.000 A 
ATOM     25  F   UNL     1       0.656  16.089  20.082  0.00  0.00    +0.000 F 
BRANCH  19  27
ATOM     26  C   UNL     1       2.613  13.624  20.874  0.00  0.00    +0.000 C 
ATOM     27  O   UNL     1       1.884  14.200  21.951  0.00  0.00    +0.000 OA
ENDBRANCH  19  27
ENDBRANCH   1  22
BRANCH   3  28
ATOM     28  N   UNL     1      -6.223  15.522  24.262  0.00  0.00    +0.000 N 
ATOM     29  H   UNL     1      -6.957  16.189  24.036  0.00  0.00    +0.000 HD
ATOM     30  H   UNL     1      -5.575  15.864  24.970  0.00  0.00    +0.000 HD
ENDBRANCH   3  28
BRANCH   6  31
ATOM     31  N   UNL     1      -7.914  11.987  21.665  0.00  0.00    +0.000 N 
ATOM     32  H   UNL     1      -7.787  11.174  22.263  0.00  0.00    +0.000 HD
ATOM     33  H   UNL     1      -8.380  12.755  22.137  0.00  0.00    +0.000 HD
ENDBRANCH   6  31
BRANCH   2  34
ATOM     34  C   UNL     1      -3.683  16.420  23.319  0.00  0.00    +0.000 C 
ATOM     35  N   UNL     1      -3.141  17.312  23.817  0.00  0.00    +0.000 NA
ENDBRANCH   2  34
TORSDOF 5
ENDMDL
