MODEL 1
REMARK VINA RESULT:      -8.1      0.000      0.000
REMARK  Name = 
REMARK  8 active torsions:
REMARK  status: ('A' for Active; 'I' for Inactive)
REMARK    1  A    between atoms: C_1  and  C_2
REMARK    2  A    between atoms: C_2  and  C_3
REMARK    3  A    between atoms: C_3  and  C_4
REMARK    4  A    between atoms: C_4  and  N_5
REMARK    5  A    between atoms: C_11  and  C_12
REMARK    6  A    between atoms: N_15  and  C_16
REMARK    7  A    between atoms: C_16  and  C_17
REMARK    8  A    between atoms: C_21  and  C_22
REMARK                            x       y       z     vdW  Elec       q    Type
REMARK                         _______ _______ _______ _____ _____    ______ ____
ROOT
ATOM      1  N   UNL     1       5.304   5.182  17.478  0.00  0.00    +0.000 N 
ATOM      2  C   UNL     1       4.847   4.490  18.614  0.00  0.00    +0.000 A 
ATOM      3  O   UNL     1       5.253   3.373  18.945  0.00  0.00    +0.000 OA
ATOM      4  N   UNL     1       3.884   5.112  19.384  0.00  0.00    +0.000 N 
ATOM      5  C   UNL     1       3.376   6.314  19.029  0.00  0.00    +0.000 A 
ATOM      6  N   UNL     1       2.435   7.031  19.685  0.00  0.00    +0.000 NA
ATOM      7  C   UNL     1       2.229   8.088  18.913  0.00  0.00    +0.000 A 
ATOM      8  N   UNL     1       3.040   8.063  17.806  0.00  0.00    +0.000 N 
ATOM      9  C   UNL     1       3.778   6.922  17.889  0.00  0.00    +0.000 A 
ATOM     10  C   UNL     1       4.757   6.390  17.010  0.00  0.00    +0.000 A 
ATOM     11  O   UNL     1       5.065   6.948  15.962  0.00  0.00    +0.000 OA
ATOM     12  H   UNL     1       3.534   4.647  20.208  0.00  0.00    +0.000 HD
ATOM     13  H   UNL     1       3.082   8.744  17.062  0.00  0.00    +0.000 HD
ENDROOT
BRANCH   7  14
ATOM     14  C   UNL     1       1.247   9.156  19.197  0.00  0.00    +0.000 A 
ATOM     15  C   UNL     1       0.330   9.275  20.255  0.00  0.00    +0.000 A 
ATOM     16  N   UNL     1      -0.427  10.370  20.147  0.00  0.00    +0.000 NA
ATOM     17  N   UNL     1       0.023  10.957  19.013  0.00  0.00    +0.000 N 
ATOM     18  C   UNL     1       1.050  10.275  18.425  0.00  0.00    +0.000 A 
BRANCH  17  19
ATOM     19  C   UNL     1      -0.697  12.089  18.448  0.00  0.00    +0.000 C 
BRANCH  19  20
ATOM     20  C   UNL     1      -2.126  11.766  18.081  0.00  0.00    +0.000 A 
ATOM     21  C   UNL     1      -2.408  11.025  16.925  0.00  0.00    +0.000 A 
ATOM     22  C   UNL     1      -3.712  10.617  16.645  0.00  0.00    +0.000 A 
ATOM     23  C   UNL     1      -4.747  10.933  17.524  0.00  0.00    +0.000 A 
ATOM     24  C   UNL     1      -4.495  11.678  18.683  0.00  0.00    +0.000 A 
ATOM     25  C   UNL     1      -3.183  12.109  18.941  0.00  0.00    +0.000 A 
BRANCH  24  26
ATOM     26  C   UNL     1      -5.599  11.968  19.671  0.00  0.00    +0.000 C 
ATOM     27  F   UNL     1      -5.144  12.222  20.931  0.00  0.00    +0.000 F 
ATOM     28  F   UNL     1      -6.333  13.061  19.319  0.00  0.00    +0.000 F 
ATOM     29  F   UNL     1      -6.486  10.944  19.796  0.00  0.00    +0.000 F 
ENDBRANCH  24  26
ENDBRANCH  19  20
ENDBRANCH  17  19
ENDBRANCH   7  14
BRANCH   1  30
ATOM     30  C   UNL     1       6.361   4.576  16.675  0.00  0.00    +0.000 C 
BRANCH  30  31
ATOM     31  C   UNL     1       5.804   3.822  15.462  0.00  0.00    +0.000 C 
BRANCH  31  33
ATOM     32  C   UNL     1       5.858   3.592  12.961  0.00  0.00    +0.000 C 
ATOM     33  C   UNL     1       6.513   4.232  14.175  0.00  0.00    +0.000 C 
ENDBRANCH  31  33
ENDBRANCH  30  31
ENDBRANCH   1  30
TORSDOF 7
ENDMDL
MODEL 2
REMARK VINA RESULT:      -8.1      1.903      2.328
REMARK  Name = 
REMARK  8 active torsions:
REMARK  status: ('A' for Active; 'I' for Inactive)
REMARK    1  A    between atoms: C_1  and  C_2
REMARK    2  A    between atoms: C_2  and  C_3
REMARK    3  A    between atoms: C_3  and  C_4
REMARK    4  A    between atoms: C_4  and  N_5
REMARK    5  A    between atoms: C_11  and  C_12
REMARK    6  A    between atoms: N_15  and  C_16
REMARK    7  A    between atoms: C_16  and  C_17
REMARK    8  A    between atoms: C_21  and  C_22
REMARK                            x       y       z     vdW  Elec       q    Type
REMARK                         _______ _______ _______ _____ _____    ______ ____
ROOT
ATOM      1  N   UNL     1       5.013   4.676  16.979  0.00  0.00    +0.000 N 
ATOM      2  C   UNL     1       4.179   3.782  17.676  0.00  0.00    +0.000 A 
ATOM      3  O   UNL     1       4.265   2.554  17.585  0.00  0.00    +0.000 OA
ATOM      4  N   UNL     1       3.213   4.332  18.495  0.00  0.00    +0.000 N 
ATOM      5  C   UNL     1       3.053   5.671  18.584  0.00  0.00    +0.000 A 
ATOM      6  N   UNL     1       2.154   6.340  19.341  0.00  0.00    +0.000 NA
ATOM      7  C   UNL     1       2.347   7.614  19.033  0.00  0.00    +0.000 A 
ATOM      8  N   UNL     1       3.366   7.760  18.125  0.00  0.00    +0.000 N 
ATOM      9  C   UNL     1       3.819   6.507  17.844  0.00  0.00    +0.000 A 
ATOM     10  C   UNL     1       4.843   6.072  16.963  0.00  0.00    +0.000 A 
ATOM     11  O   UNL     1       5.487   6.856  16.274  0.00  0.00    +0.000 OA
ATOM     12  H   UNL     1       2.598   3.721  19.012  0.00  0.00    +0.000 HD
ATOM     13  H   UNL     1       3.713   8.620  17.726  0.00  0.00    +0.000 HD
ENDROOT
BRANCH   7  14
ATOM     14  C   UNL     1       1.564   8.740  19.586  0.00  0.00    +0.000 A 
ATOM     15  C   UNL     1       0.884   8.844  20.812  0.00  0.00    +0.000 A 
ATOM     16  N   UNL     1       0.249  10.012  20.939  0.00  0.00    +0.000 NA
ATOM     17  N   UNL     1       0.538  10.659  19.785  0.00  0.00    +0.000 N 
ATOM     18  C   UNL     1       1.351   9.941  18.956  0.00  0.00    +0.000 A 
BRANCH  17  19
ATOM     19  C   UNL     1      -0.144  11.903  19.462  0.00  0.00    +0.000 C 
BRANCH  19  20
ATOM     20  C   UNL     1      -1.567  11.702  18.999  0.00  0.00    +0.000 A 
ATOM     21  C   UNL     1      -2.634  12.207  19.756  0.00  0.00    +0.000 A 
ATOM     22  C   UNL     1      -3.941  12.134  19.275  0.00  0.00    +0.000 A 
ATOM     23  C   UNL     1      -4.196  11.569  18.027  0.00  0.00    +0.000 A 
ATOM     24  C   UNL     1      -3.150  11.050  17.252  0.00  0.00    +0.000 A 
ATOM     25  C   UNL     1      -1.841  11.102  17.758  0.00  0.00    +0.000 A 
BRANCH  24  26
ATOM     26  C   UNL     1      -3.412  10.495  15.873  0.00  0.00    +0.000 C 
ATOM     27  F   UNL     1      -4.686  10.709  15.437  0.00  0.00    +0.000 F 
ATOM     28  F   UNL     1      -2.604  11.055  14.929  0.00  0.00    +0.000 F 
ATOM     29  F   UNL     1      -3.211   9.152  15.792  0.00  0.00    +0.000 F 
ENDBRANCH  24  26
ENDBRANCH  19  20
ENDBRANCH  17  19
ENDBRANCH   7  14
BRANCH   1  30
ATOM     30  C   UNL     1       6.079   4.127  16.149  0.00  0.00    +0.000 C 
BRANCH  30  31
ATOM     31  C   UNL     1       5.589   3.771  14.741  0.00  0.00    +0.000 C 
BRANCH  31  33
ATOM     32  C   UNL     1       6.360   3.532  12.361  0.00  0.00    +0.000 C 
ATOM     33  C   UNL     1       6.543   4.288  13.669  0.00  0.00    +0.000 C 
ENDBRANCH  31  33
ENDBRANCH  30  31
ENDBRANCH   1  30
TORSDOF 7
ENDMDL
MODEL 3
REMARK VINA RESULT:      -8.1      5.892     10.762
REMARK  Name = 
REMARK  8 active torsions:
REMARK  status: ('A' for Active; 'I' for Inactive)
REMARK    1  A    between atoms: C_1  and  C_2
REMARK    2  A    between atoms: C_2  and  C_3
REMARK    3  A    between atoms: C_3  and  C_4
REMARK    4  A    between atoms: C_4  and  N_5
REMARK    5  A    between atoms: C_11  and  C_12
REMARK    6  A    between atoms: N_15  and  C_16
REMARK    7  A    between atoms: C_16  and  C_17
REMARK    8  A    between atoms: C_21  and  C_22
REMARK                            x       y       z     vdW  Elec       q    Type
REMARK                         _______ _______ _______ _____ _____    ______ ____
ROOT
ATOM      1  N   UNL     1       0.310  11.109  20.921  0.00  0.00    +0.000 N 
ATOM      2  C   UNL     1       0.212  11.344  19.537  0.00  0.00    +0.000 A 
ATOM      3  O   UNL     1      -0.333  12.339  19.049  0.00  0.00    +0.000 OA
ATOM      4  N   UNL     1       0.756  10.393  18.698  0.00  0.00    +0.000 N 
ATOM      5  C   UNL     1       1.317   9.266  19.190  0.00  0.00    +0.000 A 
ATOM      6  N   UNL     1       1.883   8.259  18.488  0.00  0.00    +0.000 NA
ATOM      7  C   UNL     1       2.220   7.365  19.406  0.00  0.00    +0.000 A 
ATOM      8  N   UNL     1       1.905   7.803  20.668  0.00  0.00    +0.000 N 
ATOM      9  C   UNL     1       1.329   9.028  20.522  0.00  0.00    +0.000 A 
ATOM     10  C   UNL     1       0.802   9.921  21.491  0.00  0.00    +0.000 A 
ATOM     11  O   UNL     1       0.790   9.652  22.688  0.00  0.00    +0.000 OA
ATOM     12  H   UNL     1       0.707  10.530  17.699  0.00  0.00    +0.000 HD
ATOM     13  H   UNL     1       2.054   7.317  21.540  0.00  0.00    +0.000 HD
ENDROOT
BRANCH   7  14
ATOM     14  C   UNL     1       2.846   6.058  19.115  0.00  0.00    +0.000 A 
ATOM     15  C   UNL     1       3.593   5.213  19.954  0.00  0.00    +0.000 A 
ATOM     16  N   UNL     1       4.033   4.127  19.315  0.00  0.00    +0.000 NA
ATOM     17  N   UNL     1       3.552   4.280  18.058  0.00  0.00    +0.000 N 
ATOM     18  C   UNL     1       2.807   5.414  17.903  0.00  0.00    +0.000 A 
BRANCH  17  19
ATOM     19  C   UNL     1       3.991   3.382  17.000  0.00  0.00    +0.000 C 
BRANCH  19  20
ATOM     20  C   UNL     1       5.049   3.984  16.107  0.00  0.00    +0.000 A 
ATOM     21  C   UNL     1       6.061   4.787  16.652  0.00  0.00    +0.000 A 
ATOM     22  C   UNL     1       7.109   5.244  15.855  0.00  0.00    +0.000 A 
ATOM     23  C   UNL     1       7.168   4.894  14.507  0.00  0.00    +0.000 A 
ATOM     24  C   UNL     1       6.167   4.099  13.934  0.00  0.00    +0.000 A 
ATOM     25  C   UNL     1       5.099   3.668  14.738  0.00  0.00    +0.000 A 
BRANCH  24  26
ATOM     26  C   UNL     1       6.257   3.663  12.492  0.00  0.00    +0.000 C 
ATOM     27  F   UNL     1       6.693   2.380  12.341  0.00  0.00    +0.000 F 
ATOM     28  F   UNL     1       5.051   3.716  11.859  0.00  0.00    +0.000 F 
ATOM     29  F   UNL     1       7.103   4.432  11.754  0.00  0.00    +0.000 F 
ENDBRANCH  24  26
ENDBRANCH  19  20
ENDBRANCH  17  19
ENDBRANCH   7  14
BRANCH   1  30
ATOM     30  C   UNL     1      -0.206  12.121  21.836  0.00  0.00    +0.000 C 
BRANCH  30  31
ATOM     31  C   UNL     1      -1.671  11.867  22.212  0.00  0.00    +0.000 C 
BRANCH  31  33
ATOM     32  C   UNL     1      -2.317  13.835  23.634  0.00  0.00    +0.000 C 
ATOM     33  C   UNL     1      -2.466  13.167  22.276  0.00  0.00    +0.000 C 
ENDBRANCH  31  33
ENDBRANCH  30  31
ENDBRANCH   1  30
TORSDOF 7
ENDMDL
MODEL 4
REMARK VINA RESULT:      -8.1      2.433      3.530
REMARK  Name = 
REMARK  8 active torsions:
REMARK  status: ('A' for Active; 'I' for Inactive)
REMARK    1  A    between atoms: C_1  and  C_2
REMARK    2  A    between atoms: C_2  and  C_3
REMARK    3  A    between atoms: C_3  and  C_4
REMARK    4  A    between atoms: C_4  and  N_5
REMARK    5  A    between atoms: C_11  and  C_12
REMARK    6  A    between atoms: N_15  and  C_16
REMARK    7  A    between atoms: C_16  and  C_17
REMARK    8  A    between atoms: C_21  and  C_22
REMARK                            x       y       z     vdW  Elec       q    Type
REMARK                         _______ _______ _______ _____ _____    ______ ____
ROOT
ATOM      1  N   UNL     1       3.724   4.177  19.126  0.00  0.00    +0.000 N 
ATOM      2  C   UNL     1       4.117   4.958  18.023  0.00  0.00    +0.000 A 
ATOM      3  O   UNL     1       4.879   4.558  17.138  0.00  0.00    +0.000 OA
ATOM      4  N   UNL     1       3.615   6.242  17.952  0.00  0.00    +0.000 N 
ATOM      5  C   UNL     1       2.818   6.735  18.925  0.00  0.00    +0.000 A 
ATOM      6  N   UNL     1       2.261   7.966  18.983  0.00  0.00    +0.000 NA
ATOM      7  C   UNL     1       1.634   7.990  20.149  0.00  0.00    +0.000 A 
ATOM      8  N   UNL     1       1.760   6.792  20.809  0.00  0.00    +0.000 N 
ATOM      9  C   UNL     1       2.518   5.989  20.014  0.00  0.00    +0.000 A 
ATOM     10  C   UNL     1       2.970   4.658  20.211  0.00  0.00    +0.000 A 
ATOM     11  O   UNL     1       2.715   4.027  21.231  0.00  0.00    +0.000 OA
ATOM     12  H   UNL     1       3.874   6.830  17.174  0.00  0.00    +0.000 HD
ATOM     13  H   UNL     1       1.380   6.547  21.712  0.00  0.00    +0.000 HD
ENDROOT
BRANCH   7  14
ATOM     14  C   UNL     1       0.897   9.156  20.683  0.00  0.00    +0.000 A 
ATOM     15  C   UNL     1       0.292   9.338  21.938  0.00  0.00    +0.000 A 
ATOM     16  N   UNL     1      -0.321  10.520  22.036  0.00  0.00    +0.000 NA
ATOM     17  N   UNL     1      -0.094  11.098  20.833  0.00  0.00    +0.000 N 
ATOM     18  C   UNL     1       0.660  10.323  19.999  0.00  0.00    +0.000 A 
BRANCH  17  19
ATOM     19  C   UNL     1      -0.781  12.332  20.479  0.00  0.00    +0.000 C 
BRANCH  19  20
ATOM     20  C   UNL     1      -2.112  12.103  19.807  0.00  0.00    +0.000 A 
ATOM     21  C   UNL     1      -3.285  12.638  20.360  0.00  0.00    +0.000 A 
ATOM     22  C   UNL     1      -4.499  12.537  19.682  0.00  0.00    +0.000 A 
ATOM     23  C   UNL     1      -4.555  11.913  18.437  0.00  0.00    +0.000 A 
ATOM     24  C   UNL     1      -3.400  11.363  17.863  0.00  0.00    +0.000 A 
ATOM     25  C   UNL     1      -2.188  11.445  18.568  0.00  0.00    +0.000 A 
BRANCH  24  26
ATOM     26  C   UNL     1      -3.441  10.744  16.487  0.00  0.00    +0.000 C 
ATOM     27  F   UNL     1      -3.191   9.403  16.491  0.00  0.00    +0.000 F 
ATOM     28  F   UNL     1      -4.658  10.888  15.891  0.00  0.00    +0.000 F 
ATOM     29  F   UNL     1      -2.536  11.289  15.630  0.00  0.00    +0.000 F 
ENDBRANCH  24  26
ENDBRANCH  19  20
ENDBRANCH  17  19
ENDBRANCH   7  14
BRANCH   1  30
ATOM     30  C   UNL     1       4.193   2.797  19.201  0.00  0.00    +0.000 C 
BRANCH  30  31
ATOM     31  C   UNL     1       3.233   1.823  18.509  0.00  0.00    +0.000 C 
BRANCH  31  33
ATOM     32  C   UNL     1       0.767   2.222  18.779  0.00  0.00    +0.000 C 
ATOM     33  C   UNL     1       2.006   2.543  17.957  0.00  0.00    +0.000 C 
ENDBRANCH  31  33
ENDBRANCH  30  31
ENDBRANCH   1  30
TORSDOF 7
ENDMDL
MODEL 5
REMARK VINA RESULT:      -7.9      5.668     10.602
REMARK  Name = 
REMARK  8 active torsions:
REMARK  status: ('A' for Active; 'I' for Inactive)
REMARK    1  A    between atoms: C_1  and  C_2
REMARK    2  A    between atoms: C_2  and  C_3
REMARK    3  A    between atoms: C_3  and  C_4
REMARK    4  A    between atoms: C_4  and  N_5
REMARK    5  A    between atoms: C_11  and  C_12
REMARK    6  A    between atoms: N_15  and  C_16
REMARK    7  A    between atoms: C_16  and  C_17
REMARK    8  A    between atoms: C_21  and  C_22
REMARK                            x       y       z     vdW  Elec       q    Type
REMARK                         _______ _______ _______ _____ _____    ______ ____
ROOT
ATOM      1  N   UNL     1      -0.061  11.476  21.171  0.00  0.00    +0.000 N 
ATOM      2  C   UNL     1       0.391  11.721  19.861  0.00  0.00    +0.000 A 
ATOM      3  O   UNL     1       0.234  12.794  19.272  0.00  0.00    +0.000 OA
ATOM      4  N   UNL     1       1.038  10.686  19.215  0.00  0.00    +0.000 N 
ATOM      5  C   UNL     1       1.186   9.479  19.806  0.00  0.00    +0.000 A 
ATOM      6  N   UNL     1       1.794   8.385  19.293  0.00  0.00    +0.000 NA
ATOM      7  C   UNL     1       1.620   7.449  20.214  0.00  0.00    +0.000 A 
ATOM      8  N   UNL     1       0.945   7.940  21.304  0.00  0.00    +0.000 N 
ATOM      9  C   UNL     1       0.674   9.247  21.037  0.00  0.00    +0.000 A 
ATOM     10  C   UNL     1      -0.014  10.222  21.806  0.00  0.00    +0.000 A 
ATOM     11  O   UNL     1      -0.504   9.964  22.899  0.00  0.00    +0.000 OA
ATOM     12  H   UNL     1       1.378  10.826  18.276  0.00  0.00    +0.000 HD
ATOM     13  H   UNL     1       0.684   7.438  22.140  0.00  0.00    +0.000 HD
ENDROOT
BRANCH   7  14
ATOM     14  C   UNL     1       2.084   6.051  20.088  0.00  0.00    +0.000 A 
ATOM     15  C   UNL     1       2.164   5.040  21.061  0.00  0.00    +0.000 A 
ATOM     16  N   UNL     1       2.678   3.908  20.572  0.00  0.00    +0.000 NA
ATOM     17  N   UNL     1       2.918   4.203  19.272  0.00  0.00    +0.000 N 
ATOM     18  C   UNL     1       2.546   5.472  18.931  0.00  0.00    +0.000 A 
BRANCH  17  19
ATOM     19  C   UNL     1       3.671   3.271  18.445  0.00  0.00    +0.000 C 
BRANCH  19  20
ATOM     20  C   UNL     1       4.848   3.908  17.748  0.00  0.00    +0.000 A 
ATOM     21  C   UNL     1       5.933   4.392  18.493  0.00  0.00    +0.000 A 
ATOM     22  C   UNL     1       7.077   4.868  17.852  0.00  0.00    +0.000 A 
ATOM     23  C   UNL     1       7.155   4.855  16.461  0.00  0.00    +0.000 A 
ATOM     24  C   UNL     1       6.083   4.385  15.691  0.00  0.00    +0.000 A 
ATOM     25  C   UNL     1       4.924   3.934  16.345  0.00  0.00    +0.000 A 
BRANCH  24  26
ATOM     26  C   UNL     1       6.187   4.308  14.187  0.00  0.00    +0.000 C 
ATOM     27  F   UNL     1       6.544   3.073  13.732  0.00  0.00    +0.000 F 
ATOM     28  F   UNL     1       5.006   4.597  13.572  0.00  0.00    +0.000 F 
ATOM     29  F   UNL     1       7.101   5.173  13.670  0.00  0.00    +0.000 F 
ENDBRANCH  24  26
ENDBRANCH  19  20
ENDBRANCH  17  19
ENDBRANCH   7  14
BRANCH   1  30
ATOM     30  C   UNL     1      -0.699  12.567  21.899  0.00  0.00    +0.000 C 
BRANCH  30  31
ATOM     31  C   UNL     1      -2.196  12.675  21.584  0.00  0.00    +0.000 C 
BRANCH  31  33
ATOM     32  C   UNL     1      -3.423  12.293  23.743  0.00  0.00    +0.000 C 
ATOM     33  C   UNL     1      -2.963  13.329  22.729  0.00  0.00    +0.000 C 
ENDBRANCH  31  33
ENDBRANCH  30  31
ENDBRANCH   1  30
TORSDOF 7
ENDMDL
MODEL 6
REMARK VINA RESULT:      -7.9      1.093      1.572
REMARK  Name = 
REMARK  8 active torsions:
REMARK  status: ('A' for Active; 'I' for Inactive)
REMARK    1  A    between atoms: C_1  and  C_2
REMARK    2  A    between atoms: C_2  and  C_3
REMARK    3  A    between atoms: C_3  and  C_4
REMARK    4  A    between atoms: C_4  and  N_5
REMARK    5  A    between atoms: C_11  and  C_12
REMARK    6  A    between atoms: N_15  and  C_16
REMARK    7  A    between atoms: C_16  and  C_17
REMARK    8  A    between atoms: C_21  and  C_22
REMARK                            x       y       z     vdW  Elec       q    Type
REMARK                         _______ _______ _______ _____ _____    ______ ____
ROOT
ATOM      1  N   UNL     1       4.913   5.168  17.928  0.00  0.00    +0.000 N 
ATOM      2  C   UNL     1       4.490   4.569  19.129  0.00  0.00    +0.000 A 
ATOM      3  O   UNL     1       4.896   3.474  19.528  0.00  0.00    +0.000 OA
ATOM      4  N   UNL     1       3.565   5.261  19.885  0.00  0.00    +0.000 N 
ATOM      5  C   UNL     1       3.058   6.439  19.460  0.00  0.00    +0.000 A 
ATOM      6  N   UNL     1       2.152   7.217  20.094  0.00  0.00    +0.000 NA
ATOM      7  C   UNL     1       1.929   8.216  19.253  0.00  0.00    +0.000 A 
ATOM      8  N   UNL     1       2.696   8.097  18.122  0.00  0.00    +0.000 N 
ATOM      9  C   UNL     1       3.424   6.955  18.263  0.00  0.00    +0.000 A 
ATOM     10  C   UNL     1       4.362   6.345  17.391  0.00  0.00    +0.000 A 
ATOM     11  O   UNL     1       4.637   6.819  16.294  0.00  0.00    +0.000 OA
ATOM     12  H   UNL     1       3.241   4.863  20.754  0.00  0.00    +0.000 HD
ATOM     13  H   UNL     1       2.718   8.721  17.328  0.00  0.00    +0.000 HD
ENDROOT
BRANCH   7  14
ATOM     14  C   UNL     1       0.971   9.317  19.492  0.00  0.00    +0.000 A 
ATOM     15  C   UNL     1       0.082   9.518  20.562  0.00  0.00    +0.000 A 
ATOM     16  N   UNL     1      -0.660  10.617  20.403  0.00  0.00    +0.000 NA
ATOM     17  N   UNL     1      -0.230  11.124  19.223  0.00  0.00    +0.000 N 
ATOM     18  C   UNL     1       0.773  10.389  18.656  0.00  0.00    +0.000 A 
BRANCH  17  19
ATOM     19  C   UNL     1      -0.945  12.230  18.605  0.00  0.00    +0.000 C 
BRANCH  19  20
ATOM     20  C   UNL     1      -2.315  11.847  18.099  0.00  0.00    +0.000 A 
ATOM     21  C   UNL     1      -2.452  11.150  16.891  0.00  0.00    +0.000 A 
ATOM     22  C   UNL     1      -3.701  10.685  16.478  0.00  0.00    +0.000 A 
ATOM     23  C   UNL     1      -4.824  10.900  17.274  0.00  0.00    +0.000 A 
ATOM     24  C   UNL     1      -4.718  11.600  18.483  0.00  0.00    +0.000 A 
ATOM     25  C   UNL     1      -3.461  12.089  18.876  0.00  0.00    +0.000 A 
BRANCH  24  26
ATOM     26  C   UNL     1      -5.918  11.779  19.380  0.00  0.00    +0.000 C 
ATOM     27  F   UNL     1      -5.598  11.846  20.704  0.00  0.00    +0.000 F 
ATOM     28  F   UNL     1      -6.599  12.929  19.110  0.00  0.00    +0.000 F 
ATOM     29  F   UNL     1      -6.825  10.771  19.267  0.00  0.00    +0.000 F 
ENDBRANCH  24  26
ENDBRANCH  19  20
ENDBRANCH  17  19
ENDBRANCH   7  14
BRANCH   1  30
ATOM     30  C   UNL     1       5.931   4.488  17.135  0.00  0.00    +0.000 C 
BRANCH  30  31
ATOM     31  C   UNL     1       7.346   4.756  17.660  0.00  0.00    +0.000 C 
BRANCH  31  33
ATOM     32  C   UNL     1       7.800   7.227  17.685  0.00  0.00    +0.000 C 
ATOM     33  C   UNL     1       7.396   6.019  18.515  0.00  0.00    +0.000 C 
ENDBRANCH  31  33
ENDBRANCH  30  31
ENDBRANCH   1  30
TORSDOF 7
ENDMDL
MODEL 7
REMARK VINA RESULT:      -7.8      5.619     10.452
REMARK  Name = 
REMARK  8 active torsions:
REMARK  status: ('A' for Active; 'I' for Inactive)
REMARK    1  A    between atoms: C_1  and  C_2
REMARK    2  A    between atoms: C_2  and  C_3
REMARK    3  A    between atoms: C_3  and  C_4
REMARK    4  A    between atoms: C_4  and  N_5
REMARK    5  A    between atoms: C_11  and  C_12
REMARK    6  A    between atoms: N_15  and  C_16
REMARK    7  A    between atoms: C_16  and  C_17
REMARK    8  A    between atoms: C_21  and  C_22
REMARK                            x       y       z     vdW  Elec       q    Type
REMARK                         _______ _______ _______ _____ _____    ______ ____
ROOT
ATOM      1  N   UNL     1       0.284  12.055  20.703  0.00  0.00    +0.000 N 
ATOM      2  C   UNL     1       0.433  12.245  19.317  0.00  0.00    +0.000 A 
ATOM      3  O   UNL     1       0.161  13.300  18.737  0.00  0.00    +0.000 OA
ATOM      4  N   UNL     1       0.907  11.176  18.583  0.00  0.00    +0.000 N 
ATOM      5  C   UNL     1       1.170   9.988  19.171  0.00  0.00    +0.000 A 
ATOM      6  N   UNL     1       1.634   8.865  18.577  0.00  0.00    +0.000 NA
ATOM      7  C   UNL     1       1.661   7.965  19.548  0.00  0.00    +0.000 A 
ATOM      8  N   UNL     1       1.254   8.507  20.742  0.00  0.00    +0.000 N 
ATOM      9  C   UNL     1       0.945   9.809  20.493  0.00  0.00    +0.000 A 
ATOM     10  C   UNL     1       0.459  10.823  21.359  0.00  0.00    +0.000 A 
ATOM     11  O   UNL     1       0.224  10.613  22.544  0.00  0.00    +0.000 OA
ATOM     12  H   UNL     1       1.029  11.277  17.586  0.00  0.00    +0.000 HD
ATOM     13  H   UNL     1       1.182   8.039  21.634  0.00  0.00    +0.000 HD
ENDROOT
BRANCH   7  14
ATOM     14  C   UNL     1       2.069   6.554  19.375  0.00  0.00    +0.000 A 
ATOM     15  C   UNL     1       2.233   5.542  20.336  0.00  0.00    +0.000 A 
ATOM     16  N   UNL     1       2.656   4.396  19.796  0.00  0.00    +0.000 NA
ATOM     17  N   UNL     1       2.752   4.683  18.476  0.00  0.00    +0.000 N 
ATOM     18  C   UNL     1       2.379   5.962  18.175  0.00  0.00    +0.000 A 
BRANCH  17  19
ATOM     19  C   UNL     1       3.378   3.730  17.571  0.00  0.00    +0.000 C 
BRANCH  19  20
ATOM     20  C   UNL     1       4.814   4.066  17.250  0.00  0.00    +0.000 A 
ATOM     21  C   UNL     1       5.282   3.978  15.931  0.00  0.00    +0.000 A 
ATOM     22  C   UNL     1       6.570   4.404  15.606  0.00  0.00    +0.000 A 
ATOM     23  C   UNL     1       7.400   4.934  16.592  0.00  0.00    +0.000 A 
ATOM     24  C   UNL     1       6.962   5.027  17.919  0.00  0.00    +0.000 A 
ATOM     25  C   UNL     1       5.673   4.569  18.242  0.00  0.00    +0.000 A 
BRANCH  24  26
ATOM     26  C   UNL     1       7.831   5.659  18.978  0.00  0.00    +0.000 C 
ATOM     27  F   UNL     1       8.900   4.889  19.331  0.00  0.00    +0.000 F 
ATOM     28  F   UNL     1       8.357   6.850  18.573  0.00  0.00    +0.000 F 
ATOM     29  F   UNL     1       7.162   5.918  20.134  0.00  0.00    +0.000 F 
ENDBRANCH  24  26
ENDBRANCH  19  20
ENDBRANCH  17  19
ENDBRANCH   7  14
BRANCH   1  30
ATOM     30  C   UNL     1      -0.160  13.183  21.514  0.00  0.00    +0.000 C 
BRANCH  30  31
ATOM     31  C   UNL     1      -1.688  13.248  21.624  0.00  0.00    +0.000 C 
BRANCH  31  33
ATOM     32  C   UNL     1      -3.600  12.638  23.137  0.00  0.00    +0.000 C 
ATOM     33  C   UNL     1      -2.152  13.101  23.070  0.00  0.00    +0.000 C 
ENDBRANCH  31  33
ENDBRANCH  30  31
ENDBRANCH   1  30
TORSDOF 7
ENDMDL
MODEL 8
REMARK VINA RESULT:      -7.8      2.376      3.648
REMARK  Name = 
REMARK  8 active torsions:
REMARK  status: ('A' for Active; 'I' for Inactive)
REMARK    1  A    between atoms: C_1  and  C_2
REMARK    2  A    between atoms: C_2  and  C_3
REMARK    3  A    between atoms: C_3  and  C_4
REMARK    4  A    between atoms: C_4  and  N_5
REMARK    5  A    between atoms: C_11  and  C_12
REMARK    6  A    between atoms: N_15  and  C_16
REMARK    7  A    between atoms: C_16  and  C_17
REMARK    8  A    between atoms: C_21  and  C_22
REMARK                            x       y       z     vdW  Elec       q    Type
REMARK                         _______ _______ _______ _____ _____    ______ ____
ROOT
ATOM      1  N   UNL     1       3.439   5.172  18.771  0.00  0.00    +0.000 N 
ATOM      2  C   UNL     1       3.652   6.149  17.781  0.00  0.00    +0.000 A 
ATOM      3  O   UNL     1       4.326   5.958  16.765  0.00  0.00    +0.000 OA
ATOM      4  N   UNL     1       3.069   7.385  17.982  0.00  0.00    +0.000 N 
ATOM      5  C   UNL     1       2.365   7.651  19.104  0.00  0.00    +0.000 A 
ATOM      6  N   UNL     1       1.747   8.809  19.428  0.00  0.00    +0.000 NA
ATOM      7  C   UNL     1       1.261   8.595  20.642  0.00  0.00    +0.000 A 
ATOM      8  N   UNL     1       1.535   7.320  21.072  0.00  0.00    +0.000 N 
ATOM      9  C   UNL     1       2.241   6.717  20.077  0.00  0.00    +0.000 A 
ATOM     10  C   UNL     1       2.791   5.411  19.996  0.00  0.00    +0.000 A 
ATOM     11  O   UNL     1       2.696   4.606  20.916  0.00  0.00    +0.000 OA
ATOM     12  H   UNL     1       3.199   8.109  17.291  0.00  0.00    +0.000 HD
ATOM     13  H   UNL     1       1.279   6.903  21.956  0.00  0.00    +0.000 HD
ENDROOT
BRANCH   7  14
ATOM     14  C   UNL     1       0.524   9.598  21.441  0.00  0.00    +0.000 A 
ATOM     15  C   UNL     1      -0.027   9.492  22.729  0.00  0.00    +0.000 A 
ATOM     16  N   UNL     1      -0.660  10.607  23.101  0.00  0.00    +0.000 NA
ATOM     17  N   UNL     1      -0.500  11.433  22.040  0.00  0.00    +0.000 N 
ATOM     18  C   UNL     1       0.233  10.876  21.031  0.00  0.00    +0.000 A 
BRANCH  17  19
ATOM     19  C   UNL     1      -1.227  12.693  21.985  0.00  0.00    +0.000 C 
BRANCH  19  20
ATOM     20  C   UNL     1      -2.651  12.541  21.507  0.00  0.00    +0.000 A 
ATOM     21  C   UNL     1      -3.719  12.893  22.344  0.00  0.00    +0.000 A 
ATOM     22  C   UNL     1      -5.029  12.873  21.868  0.00  0.00    +0.000 A 
ATOM     23  C   UNL     1      -5.287  12.513  20.546  0.00  0.00    +0.000 A 
ATOM     24  C   UNL     1      -4.240  12.149  19.689  0.00  0.00    +0.000 A 
ATOM     25  C   UNL     1      -2.926  12.145  20.187  0.00  0.00    +0.000 A 
BRANCH  24  26
ATOM     26  C   UNL     1      -4.506  11.822  18.240  0.00  0.00    +0.000 C 
ATOM     27  F   UNL     1      -3.377  11.799  17.476  0.00  0.00    +0.000 F 
ATOM     28  F   UNL     1      -5.079  10.595  18.084  0.00  0.00    +0.000 F 
ATOM     29  F   UNL     1      -5.345  12.707  17.638  0.00  0.00    +0.000 F 
ENDBRANCH  24  26
ENDBRANCH  19  20
ENDBRANCH  17  19
ENDBRANCH   7  14
BRANCH   1  30
ATOM     30  C   UNL     1       3.994   3.840  18.562  0.00  0.00    +0.000 C 
BRANCH  30  31
ATOM     31  C   UNL     1       3.193   3.036  17.530  0.00  0.00    +0.000 C 
BRANCH  31  33
ATOM     32  C   UNL     1       1.129   2.337  18.781  0.00  0.00    +0.000 C 
ATOM     33  C   UNL     1       2.448   1.875  18.181  0.00  0.00    +0.000 C 
ENDBRANCH  31  33
ENDBRANCH  30  31
ENDBRANCH   1  30
TORSDOF 7
ENDMDL
MODEL 9
REMARK VINA RESULT:      -7.8      5.268     10.253
REMARK  Name = 
REMARK  8 active torsions:
REMARK  status: ('A' for Active; 'I' for Inactive)
REMARK    1  A    between atoms: C_1  and  C_2
REMARK    2  A    between atoms: C_2  and  C_3
REMARK    3  A    between atoms: C_3  and  C_4
REMARK    4  A    between atoms: C_4  and  N_5
REMARK    5  A    between atoms: C_11  and  C_12
REMARK    6  A    between atoms: N_15  and  C_16
REMARK    7  A    between atoms: C_16  and  C_17
REMARK    8  A    between atoms: C_21  and  C_22
REMARK                            x       y       z     vdW  Elec       q    Type
REMARK                         _______ _______ _______ _____ _____    ______ ____
ROOT
ATOM      1  N   UNL     1       0.274  11.335  21.087  0.00  0.00    +0.000 N 
ATOM      2  C   UNL     1       0.335  11.521  19.694  0.00  0.00    +0.000 A 
ATOM      3  O   UNL     1      -0.053  12.543  19.121  0.00  0.00    +0.000 OA
ATOM      4  N   UNL     1       0.859  10.486  18.944  0.00  0.00    +0.000 N 
ATOM      5  C   UNL     1       1.250   9.331  19.526  0.00  0.00    +0.000 A 
ATOM      6  N   UNL     1       1.776   8.244  18.917  0.00  0.00    +0.000 NA
ATOM      7  C   UNL     1       1.927   7.361  19.893  0.00  0.00    +0.000 A 
ATOM      8  N   UNL     1       1.537   7.880  21.102  0.00  0.00    +0.000 N 
ATOM      9  C   UNL     1       1.108   9.149  20.860  0.00  0.00    +0.000 A 
ATOM     10  C   UNL     1       0.584  10.130  21.742  0.00  0.00    +0.000 A 
ATOM     11  O   UNL     1       0.427   9.914  22.939  0.00  0.00    +0.000 OA
ATOM     12  H   UNL     1       0.921  10.585  17.942  0.00  0.00    +0.000 HD
ATOM     13  H   UNL     1       1.550   7.419  22.000  0.00  0.00    +0.000 HD
ENDROOT
BRANCH   7  14
ATOM     14  C   UNL     1       2.441   5.986  19.709  0.00  0.00    +0.000 A 
ATOM     15  C   UNL     1       2.621   4.961  20.653  0.00  0.00    +0.000 A 
ATOM     16  N   UNL     1       3.154   3.863  20.111  0.00  0.00    +0.000 NA
ATOM     17  N   UNL     1       3.305   4.193  18.806  0.00  0.00    +0.000 N 
ATOM     18  C   UNL     1       2.861   5.452  18.516  0.00  0.00    +0.000 A 
BRANCH  17  19
ATOM     19  C   UNL     1       4.047   3.312  17.916  0.00  0.00    +0.000 C 
BRANCH  19  20
ATOM     20  C   UNL     1       5.146   4.017  17.158  0.00  0.00    +0.000 A 
ATOM     21  C   UNL     1       5.435   3.656  15.834  0.00  0.00    +0.000 A 
ATOM     22  C   UNL     1       6.362   4.382  15.088  0.00  0.00    +0.000 A 
ATOM     23  C   UNL     1       7.002   5.485  15.650  0.00  0.00    +0.000 A 
ATOM     24  C   UNL     1       6.739   5.864  16.973  0.00  0.00    +0.000 A 
ATOM     25  C   UNL     1       5.825   5.109  17.726  0.00  0.00    +0.000 A 
BRANCH  24  26
ATOM     26  C   UNL     1       7.380   7.095  17.566  0.00  0.00    +0.000 C 
ATOM     27  F   UNL     1       8.046   6.849  18.730  0.00  0.00    +0.000 F 
ATOM     28  F   UNL     1       8.299   7.654  16.729  0.00  0.00    +0.000 F 
ATOM     29  F   UNL     1       6.484   8.079  17.851  0.00  0.00    +0.000 F 
ENDBRANCH  24  26
ENDBRANCH  19  20
ENDBRANCH  17  19
ENDBRANCH   7  14
BRANCH   1  30
ATOM     30  C   UNL     1      -0.223  12.431  21.912  0.00  0.00    +0.000 C 
BRANCH  30  31
ATOM     31  C   UNL     1      -1.750  12.409  22.044  0.00  0.00    +0.000 C 
BRANCH  31  33
ATOM     32  C   UNL     1      -1.630  14.210  23.792  0.00  0.00    +0.000 C 
ATOM     33  C   UNL     1      -2.198  12.844  23.436  0.00  0.00    +0.000 C 
ENDBRANCH  31  33
ENDBRANCH  30  31
ENDBRANCH   1  30
TORSDOF 7
ENDMDL
