MODEL 1
REMARK VINA RESULT:      -8.0      0.000      0.000
REMARK  Name = 
REMARK  9 active torsions:
REMARK  status: ('A' for Active; 'I' for Inactive)
REMARK    1  A    between atoms: C_1  and  N_2
REMARK    2  A    between atoms: N_2  and  C_3
REMARK    3  A    between atoms: C_4  and  C_6
REMARK    4  A    between atoms: C_6  and  N_7
REMARK    5  A    between atoms: C_10  and  O_11
REMARK    6  A    between atoms: O_11  and  C_12
REMARK    7  A    between atoms: N_20  and  C_21
REMARK    8  A    between atoms: C_24  and  S_25
REMARK    9  A    between atoms: S_25  and  C_26
REMARK                            x       y       z     vdW  Elec       q    Type
REMARK                         _______ _______ _______ _____ _____    ______ ____
ROOT
ATOM      1  C   UNL     1      -0.526  10.871  21.494  0.00  0.00    +0.000 A 
ATOM      2  N   UNL     1      -0.156  10.492  22.721  0.00  0.00    +0.000 NA
ATOM      3  C   UNL     1       0.819   9.576  22.805  0.00  0.00    +0.000 A 
ATOM      4  N   UNL     1       1.419   8.964  21.781  0.00  0.00    +0.000 NA
ATOM      5  C   UNL     1       0.992   9.330  20.568  0.00  0.00    +0.000 A 
ATOM      6  C   UNL     1       0.023  10.299  20.382  0.00  0.00    +0.000 A 
ATOM      7  C   UNL     1      -0.213  10.549  18.945  0.00  0.00    +0.000 C 
ATOM      8  C   UNL     1       0.591   9.407  18.301  0.00  0.00    +0.000 C 
ATOM      9  N   UNL     1       1.457   8.799  19.328  0.00  0.00    +0.000 N 
ENDROOT
BRANCH   9  10
ATOM     10  C   UNL     1       2.275   7.698  19.042  0.00  0.00    +0.000 A 
ATOM     11  C   UNL     1       3.238   7.724  18.015  0.00  0.00    +0.000 A 
ATOM     12  C   UNL     1       4.066   6.623  17.732  0.00  0.00    +0.000 A 
ATOM     13  C   UNL     1       3.928   5.454  18.475  0.00  0.00    +0.000 A 
ATOM     14  C   UNL     1       2.997   5.382  19.503  0.00  0.00    +0.000 A 
ATOM     15  C   UNL     1       2.187   6.483  19.764  0.00  0.00    +0.000 A 
ATOM     16  F   UNL     1       1.301   6.337  20.765  0.00  0.00    +0.000 F 
BRANCH  13  17
ATOM     17  S   UNL     1       4.959   4.047  18.152  0.00  0.00    +0.000 S 
ATOM     18  C   UNL     1       4.249   2.791  19.185  0.00  0.00    +0.000 C 
ATOM     19  O   UNL     1       4.762   3.663  16.767  0.00  0.00    +0.000 OA
ATOM     20  O   UNL     1       6.279   4.352  18.658  0.00  0.00    +0.000 OA
ENDBRANCH  13  17
ENDBRANCH   9  10
BRANCH   1  21
ATOM     21  O   UNL     1      -1.390  11.930  21.354  0.00  0.00    +0.000 OA
BRANCH  21  25
ATOM     22  N   UNL     1      -4.150  14.056  22.147  0.00  0.00    +0.000 NA
ATOM     23  C   UNL     1      -3.982  12.644  22.536  0.00  0.00    +0.000 C 
ATOM     24  C   UNL     1      -2.674  12.430  23.309  0.00  0.00    +0.000 C 
ATOM     25  C   UNL     1      -1.466  12.859  22.458  0.00  0.00    +0.000 C 
ATOM     26  C   UNL     1      -1.710  14.335  22.093  0.00  0.00    +0.000 C 
ATOM     27  C   UNL     1      -3.015  14.508  21.327  0.00  0.00    +0.000 C 
BRANCH  22  28
ATOM     28  C   UNL     1      -5.433  14.233  21.425  0.00  0.00    +0.000 C 
BRANCH  28  32
ATOM     29  C   UNL     1      -7.302  11.109  20.176  0.00  0.00    +0.000 C 
ATOM     30  N   UNL     1      -6.885  12.205  21.033  0.00  0.00    +0.000 N 
ATOM     31  C   UNL     1      -7.693  12.516  22.202  0.00  0.00    +0.000 C 
ATOM     32  C   UNL     1      -5.831  12.999  20.593  0.00  0.00    +0.000 C 
ATOM     33  O   UNL     1      -5.204  12.727  19.564  0.00  0.00    +0.000 OA
ENDBRANCH  28  32
ENDBRANCH  22  28
ENDBRANCH  21  25
ENDBRANCH   1  21
TORSDOF 6
ENDMDL
MODEL 2
REMARK VINA RESULT:      -7.9      1.316      1.751
REMARK  Name = 
REMARK  9 active torsions:
REMARK  status: ('A' for Active; 'I' for Inactive)
REMARK    1  A    between atoms: C_1  and  N_2
REMARK    2  A    between atoms: N_2  and  C_3
REMARK    3  A    between atoms: C_4  and  C_6
REMARK    4  A    between atoms: C_6  and  N_7
REMARK    5  A    between atoms: C_10  and  O_11
REMARK    6  A    between atoms: O_11  and  C_12
REMARK    7  A    between atoms: N_20  and  C_21
REMARK    8  A    between atoms: C_24  and  S_25
REMARK    9  A    between atoms: S_25  and  C_26
REMARK                            x       y       z     vdW  Elec       q    Type
REMARK                         _______ _______ _______ _____ _____    ______ ____
ROOT
ATOM      1  C   UNL     1      -0.509  11.025  21.776  0.00  0.00    +0.000 A 
ATOM      2  N   UNL     1      -0.306  10.521  22.997  0.00  0.00    +0.000 NA
ATOM      3  C   UNL     1       0.535   9.481  23.093  0.00  0.00    +0.000 A 
ATOM      4  N   UNL     1       1.148   8.865  22.079  0.00  0.00    +0.000 NA
ATOM      5  C   UNL     1       0.887   9.362  20.867  0.00  0.00    +0.000 A 
ATOM      6  C   UNL     1       0.067  10.460  20.674  0.00  0.00    +0.000 A 
ATOM      7  C   UNL     1       0.001  10.832  19.245  0.00  0.00    +0.000 C 
ATOM      8  C   UNL     1       0.713   9.639  18.586  0.00  0.00    +0.000 C 
ATOM      9  N   UNL     1       1.397   8.857  19.634  0.00  0.00    +0.000 N 
ENDROOT
BRANCH   9  10
ATOM     10  C   UNL     1       2.094   7.679  19.334  0.00  0.00    +0.000 A 
ATOM     11  C   UNL     1       2.069   6.555  20.182  0.00  0.00    +0.000 A 
ATOM     12  C   UNL     1       2.762   5.369  19.879  0.00  0.00    +0.000 A 
ATOM     13  C   UNL     1       3.517   5.296  18.711  0.00  0.00    +0.000 A 
ATOM     14  C   UNL     1       3.568   6.377  17.841  0.00  0.00    +0.000 A 
ATOM     15  C   UNL     1       2.876   7.541  18.161  0.00  0.00    +0.000 A 
ATOM     16  F   UNL     1       2.980   8.550  17.279  0.00  0.00    +0.000 F 
BRANCH  13  17
ATOM     17  S   UNL     1       4.398   3.815  18.292  0.00  0.00    +0.000 S 
ATOM     18  C   UNL     1       4.913   4.121  16.621  0.00  0.00    +0.000 C 
ATOM     19  O   UNL     1       5.581   3.753  19.130  0.00  0.00    +0.000 OA
ATOM     20  O   UNL     1       3.441   2.732  18.275  0.00  0.00    +0.000 OA
ENDBRANCH  13  17
ENDBRANCH   9  10
BRANCH   1  21
ATOM     21  O   UNL     1      -1.217  12.195  21.645  0.00  0.00    +0.000 OA
BRANCH  21  25
ATOM     22  N   UNL     1      -4.081  14.207  22.360  0.00  0.00    +0.000 NA
ATOM     23  C   UNL     1      -3.952  12.752  22.558  0.00  0.00    +0.000 C 
ATOM     24  C   UNL     1      -2.758  12.416  23.461  0.00  0.00    +0.000 C 
ATOM     25  C   UNL     1      -1.451  12.954  22.852  0.00  0.00    +0.000 C 
ATOM     26  C   UNL     1      -1.659  14.469  22.676  0.00  0.00    +0.000 C 
ATOM     27  C   UNL     1      -2.851  14.763  21.775  0.00  0.00    +0.000 C 
BRANCH  22  28
ATOM     28  C   UNL     1      -5.257  14.500  21.506  0.00  0.00    +0.000 C 
BRANCH  28  32
ATOM     29  C   UNL     1      -7.857  11.680  21.190  0.00  0.00    +0.000 C 
ATOM     30  N   UNL     1      -6.790  12.604  20.849  0.00  0.00    +0.000 N 
ATOM     31  C   UNL     1      -6.024  12.360  19.637  0.00  0.00    +0.000 C 
ATOM     32  C   UNL     1      -6.454  13.572  21.790  0.00  0.00    +0.000 C 
ATOM     33  O   UNL     1      -7.101  13.711  22.833  0.00  0.00    +0.000 OA
ENDBRANCH  28  32
ENDBRANCH  22  28
ENDBRANCH  21  25
ENDBRANCH   1  21
TORSDOF 6
ENDMDL
MODEL 3
REMARK VINA RESULT:      -7.9      2.346      4.217
REMARK  Name = 
REMARK  9 active torsions:
REMARK  status: ('A' for Active; 'I' for Inactive)
REMARK    1  A    between atoms: C_1  and  N_2
REMARK    2  A    between atoms: N_2  and  C_3
REMARK    3  A    between atoms: C_4  and  C_6
REMARK    4  A    between atoms: C_6  and  N_7
REMARK    5  A    between atoms: C_10  and  O_11
REMARK    6  A    between atoms: O_11  and  C_12
REMARK    7  A    between atoms: N_20  and  C_21
REMARK    8  A    between atoms: C_24  and  S_25
REMARK    9  A    between atoms: S_25  and  C_26
REMARK                            x       y       z     vdW  Elec       q    Type
REMARK                         _______ _______ _______ _____ _____    ______ ____
ROOT
ATOM      1  C   UNL     1      -2.331  12.502  19.810  0.00  0.00    +0.000 A 
ATOM      2  N   UNL     1      -3.073  12.027  18.805  0.00  0.00    +0.000 NA
ATOM      3  C   UNL     1      -2.676  10.874  18.248  0.00  0.00    +0.000 A 
ATOM      4  N   UNL     1      -1.579  10.180  18.566  0.00  0.00    +0.000 NA
ATOM      5  C   UNL     1      -0.834  10.706  19.542  0.00  0.00    +0.000 A 
ATOM      6  C   UNL     1      -1.187  11.868  20.204  0.00  0.00    +0.000 A 
ATOM      7  C   UNL     1      -0.219  12.188  21.273  0.00  0.00    +0.000 C 
ATOM      8  C   UNL     1       0.898  11.171  20.989  0.00  0.00    +0.000 C 
ATOM      9  N   UNL     1       0.393  10.167  20.033  0.00  0.00    +0.000 N 
ENDROOT
BRANCH   9  10
ATOM     10  C   UNL     1       1.209   9.136  19.550  0.00  0.00    +0.000 A 
ATOM     11  C   UNL     1       1.741   9.146  18.247  0.00  0.00    +0.000 A 
ATOM     12  C   UNL     1       2.568   8.116  17.764  0.00  0.00    +0.000 A 
ATOM     13  C   UNL     1       2.864   7.033  18.586  0.00  0.00    +0.000 A 
ATOM     14  C   UNL     1       2.367   6.981  19.882  0.00  0.00    +0.000 A 
ATOM     15  C   UNL     1       1.550   8.010  20.339  0.00  0.00    +0.000 A 
ATOM     16  F   UNL     1       1.097   7.887  21.598  0.00  0.00    +0.000 F 
BRANCH  13  17
ATOM     17  S   UNL     1       3.908   5.718  18.014  0.00  0.00    +0.000 S 
ATOM     18  C   UNL     1       4.792   6.470  16.671  0.00  0.00    +0.000 C 
ATOM     19  O   UNL     1       4.856   5.415  19.070  0.00  0.00    +0.000 OA
ATOM     20  O   UNL     1       3.051   4.690  17.468  0.00  0.00    +0.000 OA
ENDBRANCH  13  17
ENDBRANCH   9  10
BRANCH   1  21
ATOM     21  O   UNL     1      -2.790  13.580  20.528  0.00  0.00    +0.000 OA
BRANCH  21  25
ATOM     22  N   UNL     1      -3.881  14.362  23.839  0.00  0.00    +0.000 NA
ATOM     23  C   UNL     1      -3.680  15.310  22.728  0.00  0.00    +0.000 C 
ATOM     24  C   UNL     1      -4.517  14.918  21.502  0.00  0.00    +0.000 C 
ATOM     25  C   UNL     1      -4.145  13.503  21.024  0.00  0.00    +0.000 C 
ATOM     26  C   UNL     1      -4.379  12.575  22.229  0.00  0.00    +0.000 C 
ATOM     27  C   UNL     1      -3.534  12.994  23.424  0.00  0.00    +0.000 C 
BRANCH  22  28
ATOM     28  C   UNL     1      -3.081  14.782  25.014  0.00  0.00    +0.000 C 
BRANCH  28  32
ATOM     29  C   UNL     1       0.104  16.897  24.569  0.00  0.00    +0.000 C 
ATOM     30  N   UNL     1      -1.280  16.543  24.831  0.00  0.00    +0.000 N 
ATOM     31  C   UNL     1      -2.148  17.541  25.435  0.00  0.00    +0.000 C 
ATOM     32  C   UNL     1      -1.649  15.214  24.644  0.00  0.00    +0.000 C 
ATOM     33  O   UNL     1      -0.862  14.386  24.176  0.00  0.00    +0.000 OA
ENDBRANCH  28  32
ENDBRANCH  22  28
ENDBRANCH  21  25
ENDBRANCH   1  21
TORSDOF 6
ENDMDL
MODEL 4
REMARK VINA RESULT:      -7.9      3.722     10.672
REMARK  Name = 
REMARK  9 active torsions:
REMARK  status: ('A' for Active; 'I' for Inactive)
REMARK    1  A    between atoms: C_1  and  N_2
REMARK    2  A    between atoms: N_2  and  C_3
REMARK    3  A    between atoms: C_4  and  C_6
REMARK    4  A    between atoms: C_6  and  N_7
REMARK    5  A    between atoms: C_10  and  O_11
REMARK    6  A    between atoms: O_11  and  C_12
REMARK    7  A    between atoms: N_20  and  C_21
REMARK    8  A    between atoms: C_24  and  S_25
REMARK    9  A    between atoms: S_25  and  C_26
REMARK                            x       y       z     vdW  Elec       q    Type
REMARK                         _______ _______ _______ _____ _____    ______ ____
ROOT
ATOM      1  C   UNL     1       2.102   7.917  19.385  0.00  0.00    +0.000 A 
ATOM      2  N   UNL     1       2.288   8.439  18.169  0.00  0.00    +0.000 NA
ATOM      3  C   UNL     1       1.682   9.606  17.909  0.00  0.00    +0.000 A 
ATOM      4  N   UNL     1       0.866  10.273  18.730  0.00  0.00    +0.000 NA
ATOM      5  C   UNL     1       0.663   9.701  19.921  0.00  0.00    +0.000 A 
ATOM      6  C   UNL     1       1.279   8.520  20.294  0.00  0.00    +0.000 A 
ATOM      7  C   UNL     1       0.925   8.148  21.679  0.00  0.00    +0.000 C 
ATOM      8  C   UNL     1      -0.190   9.159  21.991  0.00  0.00    +0.000 C 
ATOM      9  N   UNL     1      -0.187  10.205  20.950  0.00  0.00    +0.000 N 
ENDROOT
BRANCH   9  10
ATOM     10  C   UNL     1      -1.129  11.242  20.947  0.00  0.00    +0.000 A 
ATOM     11  C   UNL     1      -1.824  11.622  19.784  0.00  0.00    +0.000 A 
ATOM     12  C   UNL     1      -2.776  12.657  19.780  0.00  0.00    +0.000 A 
ATOM     13  C   UNL     1      -3.038  13.350  20.959  0.00  0.00    +0.000 A 
ATOM     14  C   UNL     1      -2.382  13.007  22.134  0.00  0.00    +0.000 A 
ATOM     15  C   UNL     1      -1.443  11.981  22.114  0.00  0.00    +0.000 A 
ATOM     16  F   UNL     1      -0.839  11.712  23.284  0.00  0.00    +0.000 F 
BRANCH  13  17
ATOM     17  S   UNL     1      -4.237  14.657  20.996  0.00  0.00    +0.000 S 
ATOM     18  C   UNL     1      -4.731  14.693  22.700  0.00  0.00    +0.000 C 
ATOM     19  O   UNL     1      -3.548  15.897  20.694  0.00  0.00    +0.000 OA
ATOM     20  O   UNL     1      -5.372  14.226  20.209  0.00  0.00    +0.000 OA
ENDBRANCH  13  17
ENDBRANCH   9  10
BRANCH   1  21
ATOM     21  O   UNL     1       2.838   6.820  19.762  0.00  0.00    +0.000 OA
BRANCH  21  25
ATOM     22  N   UNL     1       4.651   4.356  17.917  0.00  0.00    +0.000 NA
ATOM     23  C   UNL     1       4.679   4.565  19.376  0.00  0.00    +0.000 C 
ATOM     24  C   UNL     1       3.271   4.478  19.979  0.00  0.00    +0.000 C 
ATOM     25  C   UNL     1       2.344   5.529  19.343  0.00  0.00    +0.000 C 
ATOM     26  C   UNL     1       2.364   5.249  17.829  0.00  0.00    +0.000 C 
ATOM     27  C   UNL     1       3.776   5.345  17.267  0.00  0.00    +0.000 C 
BRANCH  22  28
ATOM     28  C   UNL     1       6.027   4.421  17.369  0.00  0.00    +0.000 C 
BRANCH  28  32
ATOM     29  C   UNL     1       7.813   7.822  17.610  0.00  0.00    +0.000 C 
ATOM     30  N   UNL     1       7.316   6.507  17.974  0.00  0.00    +0.000 N 
ATOM     31  C   UNL     1       7.846   5.873  19.170  0.00  0.00    +0.000 C 
ATOM     32  C   UNL     1       6.486   5.859  17.063  0.00  0.00    +0.000 C 
ATOM     33  O   UNL     1       6.101   6.418  16.031  0.00  0.00    +0.000 OA
ENDBRANCH  28  32
ENDBRANCH  22  28
ENDBRANCH  21  25
ENDBRANCH   1  21
TORSDOF 6
ENDMDL
MODEL 5
REMARK VINA RESULT:      -7.8      4.103     11.105
REMARK  Name = 
REMARK  9 active torsions:
REMARK  status: ('A' for Active; 'I' for Inactive)
REMARK    1  A    between atoms: C_1  and  N_2
REMARK    2  A    between atoms: N_2  and  C_3
REMARK    3  A    between atoms: C_4  and  C_6
REMARK    4  A    between atoms: C_6  and  N_7
REMARK    5  A    between atoms: C_10  and  O_11
REMARK    6  A    between atoms: O_11  and  C_12
REMARK    7  A    between atoms: N_20  and  C_21
REMARK    8  A    between atoms: C_24  and  S_25
REMARK    9  A    between atoms: S_25  and  C_26
REMARK                            x       y       z     vdW  Elec       q    Type
REMARK                         _______ _______ _______ _____ _____    ______ ____
ROOT
ATOM      1  C   UNL     1       2.352   7.572  18.453  0.00  0.00    +0.000 A 
ATOM      2  N   UNL     1       2.477   8.474  17.474  0.00  0.00    +0.000 NA
ATOM      3  C   UNL     1       1.967   9.692  17.702  0.00  0.00    +0.000 A 
ATOM      4  N   UNL     1       1.298  10.078  18.793  0.00  0.00    +0.000 NA
ATOM      5  C   UNL     1       1.149   9.139  19.732  0.00  0.00    +0.000 A 
ATOM      6  C   UNL     1       1.679   7.868  19.604  0.00  0.00    +0.000 A 
ATOM      7  C   UNL     1       1.417   7.057  20.811  0.00  0.00    +0.000 C 
ATOM      8  C   UNL     1       0.439   7.961  21.580  0.00  0.00    +0.000 C 
ATOM      9  N   UNL     1       0.449   9.301  20.965  0.00  0.00    +0.000 N 
ENDROOT
BRANCH   9  10
ATOM     10  C   UNL     1      -0.383  10.329  21.428  0.00  0.00    +0.000 A 
ATOM     11  C   UNL     1      -0.988  11.255  20.558  0.00  0.00    +0.000 A 
ATOM     12  C   UNL     1      -1.831  12.282  21.020  0.00  0.00    +0.000 A 
ATOM     13  C   UNL     1      -2.070  12.409  22.385  0.00  0.00    +0.000 A 
ATOM     14  C   UNL     1      -1.500  11.515  23.283  0.00  0.00    +0.000 A 
ATOM     15  C   UNL     1      -0.669  10.508  22.804  0.00  0.00    +0.000 A 
ATOM     16  F   UNL     1      -0.143   9.688  23.730  0.00  0.00    +0.000 F 
BRANCH  13  17
ATOM     17  S   UNL     1      -3.133  13.687  23.005  0.00  0.00    +0.000 S 
ATOM     18  C   UNL     1      -3.073  14.909  21.720  0.00  0.00    +0.000 C 
ATOM     19  O   UNL     1      -4.480  13.152  23.063  0.00  0.00    +0.000 OA
ATOM     20  O   UNL     1      -2.502  14.242  24.182  0.00  0.00    +0.000 OA
ENDBRANCH  13  17
ENDBRANCH   9  10
BRANCH   1  21
ATOM     21  O   UNL     1       3.009   6.370  18.343  0.00  0.00    +0.000 OA
BRANCH  21  25
ATOM     22  N   UNL     1       5.678   4.804  16.558  0.00  0.00    +0.000 NA
ATOM     23  C   UNL     1       5.121   6.147  16.314  0.00  0.00    +0.000 C 
ATOM     24  C   UNL     1       5.183   7.014  17.579  0.00  0.00    +0.000 C 
ATOM     25  C   UNL     1       4.402   6.352  18.727  0.00  0.00    +0.000 C 
ATOM     26  C   UNL     1       5.037   4.963  18.924  0.00  0.00    +0.000 C 
ATOM     27  C   UNL     1       4.957   4.132  17.650  0.00  0.00    +0.000 C 
BRANCH  22  28
ATOM     28  C   UNL     1       5.627   4.001  15.313  0.00  0.00    +0.000 C 
BRANCH  28  32
ATOM     29  C   UNL     1       7.442   4.560  11.965  0.00  0.00    +0.000 C 
ATOM     30  N   UNL     1       6.504   4.042  12.944  0.00  0.00    +0.000 N 
ATOM     31  C   UNL     1       5.357   3.284  12.471  0.00  0.00    +0.000 C 
ATOM     32  C   UNL     1       6.667   4.446  14.267  0.00  0.00    +0.000 C 
ATOM     33  O   UNL     1       7.631   5.135  14.616  0.00  0.00    +0.000 OA
ENDBRANCH  28  32
ENDBRANCH  22  28
ENDBRANCH  21  25
ENDBRANCH   1  21
TORSDOF 6
ENDMDL
MODEL 6
REMARK VINA RESULT:      -7.8      1.753      2.451
REMARK  Name = 
REMARK  9 active torsions:
REMARK  status: ('A' for Active; 'I' for Inactive)
REMARK    1  A    between atoms: C_1  and  N_2
REMARK    2  A    between atoms: N_2  and  C_3
REMARK    3  A    between atoms: C_4  and  C_6
REMARK    4  A    between atoms: C_6  and  N_7
REMARK    5  A    between atoms: C_10  and  O_11
REMARK    6  A    between atoms: O_11  and  C_12
REMARK    7  A    between atoms: N_20  and  C_21
REMARK    8  A    between atoms: C_24  and  S_25
REMARK    9  A    between atoms: S_25  and  C_26
REMARK                            x       y       z     vdW  Elec       q    Type
REMARK                         _______ _______ _______ _____ _____    ______ ____
ROOT
ATOM      1  C   UNL     1      -0.664  10.918  21.977  0.00  0.00    +0.000 A 
ATOM      2  N   UNL     1      -0.359  10.429  23.183  0.00  0.00    +0.000 NA
ATOM      3  C   UNL     1       0.556   9.450  23.228  0.00  0.00    +0.000 A 
ATOM      4  N   UNL     1       1.153   8.878  22.178  0.00  0.00    +0.000 NA
ATOM      5  C   UNL     1       0.790   9.357  20.985  0.00  0.00    +0.000 A 
ATOM      6  C   UNL     1      -0.113  10.395  20.842  0.00  0.00    +0.000 A 
ATOM      7  C   UNL     1      -0.284  10.761  19.421  0.00  0.00    +0.000 C 
ATOM      8  C   UNL     1       0.471   9.621  18.719  0.00  0.00    +0.000 C 
ATOM      9  N   UNL     1       1.264   8.888  19.723  0.00  0.00    +0.000 N 
ENDROOT
BRANCH   9  10
ATOM     10  C   UNL     1       2.024   7.762  19.380  0.00  0.00    +0.000 A 
ATOM     11  C   UNL     1       2.092   6.622  20.204  0.00  0.00    +0.000 A 
ATOM     12  C   UNL     1       2.847   5.488  19.858  0.00  0.00    +0.000 A 
ATOM     13  C   UNL     1       3.572   5.484  18.670  0.00  0.00    +0.000 A 
ATOM     14  C   UNL     1       3.532   6.583  17.821  0.00  0.00    +0.000 A 
ATOM     15  C   UNL     1       2.779   7.695  18.184  0.00  0.00    +0.000 A 
ATOM     16  F   UNL     1       2.797   8.725  17.321  0.00  0.00    +0.000 F 
BRANCH  13  17
ATOM     17  S   UNL     1       4.530   4.069  18.196  0.00  0.00    +0.000 S 
ATOM     18  C   UNL     1       5.171   4.538  16.608  0.00  0.00    +0.000 C 
ATOM     19  O   UNL     1       5.642   3.958  19.121  0.00  0.00    +0.000 OA
ATOM     20  O   UNL     1       3.612   2.969  18.002  0.00  0.00    +0.000 OA
ENDBRANCH  13  17
ENDBRANCH   9  10
BRANCH   1  21
ATOM     21  O   UNL     1      -1.458  12.036  21.890  0.00  0.00    +0.000 OA
BRANCH  21  25
ATOM     22  N   UNL     1      -4.117  14.364  22.418  0.00  0.00    +0.000 NA
ATOM     23  C   UNL     1      -4.207  12.893  22.470  0.00  0.00    +0.000 C 
ATOM     24  C   UNL     1      -3.218  12.309  23.488  0.00  0.00    +0.000 C 
ATOM     25  C   UNL     1      -1.775  12.708  23.130  0.00  0.00    +0.000 C 
ATOM     26  C   UNL     1      -1.758  14.247  23.096  0.00  0.00    +0.000 C 
ATOM     27  C   UNL     1      -2.750  14.789  22.075  0.00  0.00    +0.000 C 
BRANCH  22  28
ATOM     28  C   UNL     1      -5.100  14.898  21.446  0.00  0.00    +0.000 C 
BRANCH  28  32
ATOM     29  C   UNL     1      -7.806  17.117  23.047  0.00  0.00    +0.000 C 
ATOM     30  N   UNL     1      -6.525  16.686  22.519  0.00  0.00    +0.000 N 
ATOM     31  C   UNL     1      -5.499  17.690  22.284  0.00  0.00    +0.000 C 
ATOM     32  C   UNL     1      -6.411  15.360  22.109  0.00  0.00    +0.000 C 
ATOM     33  O   UNL     1      -7.329  14.552  22.281  0.00  0.00    +0.000 OA
ENDBRANCH  28  32
ENDBRANCH  22  28
ENDBRANCH  21  25
ENDBRANCH   1  21
TORSDOF 6
ENDMDL
MODEL 7
REMARK VINA RESULT:      -7.8      3.869      5.758
REMARK  Name = 
REMARK  9 active torsions:
REMARK  status: ('A' for Active; 'I' for Inactive)
REMARK    1  A    between atoms: C_1  and  N_2
REMARK    2  A    between atoms: N_2  and  C_3
REMARK    3  A    between atoms: C_4  and  C_6
REMARK    4  A    between atoms: C_6  and  N_7
REMARK    5  A    between atoms: C_10  and  O_11
REMARK    6  A    between atoms: O_11  and  C_12
REMARK    7  A    between atoms: N_20  and  C_21
REMARK    8  A    between atoms: C_24  and  S_25
REMARK    9  A    between atoms: S_25  and  C_26
REMARK                            x       y       z     vdW  Elec       q    Type
REMARK                         _______ _______ _______ _____ _____    ______ ____
ROOT
ATOM      1  C   UNL     1      -0.235  11.331  20.327  0.00  0.00    +0.000 A 
ATOM      2  N   UNL     1      -0.736  11.013  21.525  0.00  0.00    +0.000 NA
ATOM      3  C   UNL     1      -0.351   9.842  22.053  0.00  0.00    +0.000 A 
ATOM      4  N   UNL     1       0.444   8.937  21.474  0.00  0.00    +0.000 NA
ATOM      5  C   UNL     1       0.889   9.264  20.257  0.00  0.00    +0.000 A 
ATOM      6  C   UNL     1       0.580  10.468  19.651  0.00  0.00    +0.000 A 
ATOM      7  C   UNL     1       1.251  10.593  18.340  0.00  0.00    +0.000 C 
ATOM      8  C   UNL     1       1.813   9.175  18.149  0.00  0.00    +0.000 C 
ATOM      9  N   UNL     1       1.721   8.451  19.431  0.00  0.00    +0.000 N 
ENDROOT
BRANCH   9  10
ATOM     10  C   UNL     1       2.118   7.113  19.550  0.00  0.00    +0.000 A 
ATOM     11  C   UNL     1       1.645   6.277  20.580  0.00  0.00    +0.000 A 
ATOM     12  C   UNL     1       2.035   4.932  20.696  0.00  0.00    +0.000 A 
ATOM     13  C   UNL     1       2.934   4.397  19.777  0.00  0.00    +0.000 A 
ATOM     14  C   UNL     1       3.424   5.180  18.739  0.00  0.00    +0.000 A 
ATOM     15  C   UNL     1       3.025   6.510  18.645  0.00  0.00    +0.000 A 
ATOM     16  F   UNL     1       3.548   7.210  17.623  0.00  0.00    +0.000 F 
BRANCH  13  17
ATOM     17  S   UNL     1       3.445   2.702  19.886  0.00  0.00    +0.000 S 
ATOM     18  C   UNL     1       2.884   2.224  21.501  0.00  0.00    +0.000 C 
ATOM     19  O   UNL     1       2.692   1.949  18.901  0.00  0.00    +0.000 OA
ATOM     20  O   UNL     1       4.891   2.685  19.890  0.00  0.00    +0.000 OA
ENDBRANCH  13  17
ENDBRANCH   9  10
BRANCH   1  21
ATOM     21  O   UNL     1      -0.455  12.590  19.824  0.00  0.00    +0.000 OA
BRANCH  21  25
ATOM     22  N   UNL     1       1.551  15.523  19.457  0.00  0.00    +0.000 NA
ATOM     23  C   UNL     1       0.208  15.295  18.893  0.00  0.00    +0.000 C 
ATOM     24  C   UNL     1      -0.807  14.950  19.992  0.00  0.00    +0.000 C 
ATOM     25  C   UNL     1      -0.367  13.689  20.757  0.00  0.00    +0.000 C 
ATOM     26  C   UNL     1       1.034  14.000  21.314  0.00  0.00    +0.000 C 
ATOM     27  C   UNL     1       2.012  14.338  20.197  0.00  0.00    +0.000 C 
BRANCH  22  28
ATOM     28  C   UNL     1       2.500  15.879  18.375  0.00  0.00    +0.000 C 
BRANCH  28  32
ATOM     29  C   UNL     1       6.153  16.912  19.008  0.00  0.00    +0.000 C 
ATOM     30  N   UNL     1       5.003  16.125  18.599  0.00  0.00    +0.000 N 
ATOM     31  C   UNL     1       5.226  14.953  17.767  0.00  0.00    +0.000 C 
ATOM     32  C   UNL     1       3.741  16.635  18.888  0.00  0.00    +0.000 C 
ATOM     33  O   UNL     1       3.598  17.664  19.555  0.00  0.00    +0.000 OA
ENDBRANCH  28  32
ENDBRANCH  22  28
ENDBRANCH  21  25
ENDBRANCH   1  21
TORSDOF 6
ENDMDL
MODEL 8
REMARK VINA RESULT:      -7.8      1.298      1.451
REMARK  Name = 
REMARK  9 active torsions:
REMARK  status: ('A' for Active; 'I' for Inactive)
REMARK    1  A    between atoms: C_1  and  N_2
REMARK    2  A    between atoms: N_2  and  C_3
REMARK    3  A    between atoms: C_4  and  C_6
REMARK    4  A    between atoms: C_6  and  N_7
REMARK    5  A    between atoms: C_10  and  O_11
REMARK    6  A    between atoms: O_11  and  C_12
REMARK    7  A    between atoms: N_20  and  C_21
REMARK    8  A    between atoms: C_24  and  S_25
REMARK    9  A    between atoms: S_25  and  C_26
REMARK                            x       y       z     vdW  Elec       q    Type
REMARK                         _______ _______ _______ _____ _____    ______ ____
ROOT
ATOM      1  C   UNL     1      -0.815  10.765  22.036  0.00  0.00    +0.000 A 
ATOM      2  N   UNL     1      -0.317  10.322  23.194  0.00  0.00    +0.000 NA
ATOM      3  C   UNL     1       0.736   9.495  23.125  0.00  0.00    +0.000 A 
ATOM      4  N   UNL     1       1.303   9.028  22.009  0.00  0.00    +0.000 NA
ATOM      5  C   UNL     1       0.751   9.452  20.869  0.00  0.00    +0.000 A 
ATOM      6  C   UNL     1      -0.309  10.340  20.840  0.00  0.00    +0.000 A 
ATOM      7  C   UNL     1      -0.679  10.685  19.452  0.00  0.00    +0.000 C 
ATOM      8  C   UNL     1       0.165   9.678  18.652  0.00  0.00    +0.000 C 
ATOM      9  N   UNL     1       1.159   9.070  19.556  0.00  0.00    +0.000 N 
ENDROOT
BRANCH   9  10
ATOM     10  C   UNL     1       2.043   8.076  19.114  0.00  0.00    +0.000 A 
ATOM     11  C   UNL     1       2.889   8.262  18.005  0.00  0.00    +0.000 A 
ATOM     12  C   UNL     1       3.783   7.270  17.565  0.00  0.00    +0.000 A 
ATOM     13  C   UNL     1       3.831   6.048  18.231  0.00  0.00    +0.000 A 
ATOM     14  C   UNL     1       3.019   5.819  19.335  0.00  0.00    +0.000 A 
ATOM     15  C   UNL     1       2.141   6.815  19.751  0.00  0.00    +0.000 A 
ATOM     16  F   UNL     1       1.379   6.520  20.818  0.00  0.00    +0.000 F 
BRANCH  13  17
ATOM     17  S   UNL     1       4.950   4.774  17.711  0.00  0.00    +0.000 S 
ATOM     18  C   UNL     1       4.542   3.425  18.789  0.00  0.00    +0.000 C 
ATOM     19  O   UNL     1       4.593   4.399  16.355  0.00  0.00    +0.000 OA
ATOM     20  O   UNL     1       6.289   5.216  18.031  0.00  0.00    +0.000 OA
ENDBRANCH  13  17
ENDBRANCH   9  10
BRANCH   1  21
ATOM     21  O   UNL     1      -1.774  11.749  22.053  0.00  0.00    +0.000 OA
BRANCH  21  25
ATOM     22  N   UNL     1      -3.549  14.670  23.093  0.00  0.00    +0.000 NA
ATOM     23  C   UNL     1      -2.718  13.793  23.939  0.00  0.00    +0.000 C 
ATOM     24  C   UNL     1      -1.291  13.675  23.386  0.00  0.00    +0.000 C 
ATOM     25  C   UNL     1      -1.310  13.113  21.954  0.00  0.00    +0.000 C 
ATOM     26  C   UNL     1      -2.190  14.075  21.135  0.00  0.00    +0.000 C 
ATOM     27  C   UNL     1      -3.597  14.166  21.711  0.00  0.00    +0.000 C 
BRANCH  22  28
ATOM     28  C   UNL     1      -4.912  14.783  23.666  0.00  0.00    +0.000 C 
BRANCH  28  32
ATOM     29  C   UNL     1      -7.662  12.600  22.092  0.00  0.00    +0.000 C 
ATOM     30  N   UNL     1      -6.895  13.772  22.475  0.00  0.00    +0.000 N 
ATOM     31  C   UNL     1      -7.188  15.036  21.819  0.00  0.00    +0.000 C 
ATOM     32  C   UNL     1      -5.810  13.579  23.325  0.00  0.00    +0.000 C 
ATOM     33  O   UNL     1      -5.566  12.474  23.820  0.00  0.00    +0.000 OA
ENDBRANCH  28  32
ENDBRANCH  22  28
ENDBRANCH  21  25
ENDBRANCH   1  21
TORSDOF 6
ENDMDL
MODEL 9
REMARK VINA RESULT:      -7.8      1.662      2.082
REMARK  Name = 
REMARK  9 active torsions:
REMARK  status: ('A' for Active; 'I' for Inactive)
REMARK    1  A    between atoms: C_1  and  N_2
REMARK    2  A    between atoms: N_2  and  C_3
REMARK    3  A    between atoms: C_4  and  C_6
REMARK    4  A    between atoms: C_6  and  N_7
REMARK    5  A    between atoms: C_10  and  O_11
REMARK    6  A    between atoms: O_11  and  C_12
REMARK    7  A    between atoms: N_20  and  C_21
REMARK    8  A    between atoms: C_24  and  S_25
REMARK    9  A    between atoms: S_25  and  C_26
REMARK                            x       y       z     vdW  Elec       q    Type
REMARK                         _______ _______ _______ _____ _____    ______ ____
ROOT
ATOM      1  C   UNL     1      -0.599  10.764  21.485  0.00  0.00    +0.000 A 
ATOM      2  N   UNL     1      -0.180  10.365  22.690  0.00  0.00    +0.000 NA
ATOM      3  C   UNL     1       0.843   9.499  22.720  0.00  0.00    +0.000 A 
ATOM      4  N   UNL     1       1.450   8.954  21.662  0.00  0.00    +0.000 NA
ATOM      5  C   UNL     1       0.975   9.338  20.473  0.00  0.00    +0.000 A 
ATOM      6  C   UNL     1      -0.047  10.259  20.342  0.00  0.00    +0.000 A 
ATOM      7  C   UNL     1      -0.330  10.544  18.919  0.00  0.00    +0.000 C 
ATOM      8  C   UNL     1       0.516   9.468  18.219  0.00  0.00    +0.000 C 
ATOM      9  N   UNL     1       1.438   8.873  19.205  0.00  0.00    +0.000 N 
ENDROOT
BRANCH   9  10
ATOM     10  C   UNL     1       2.305   7.827  18.863  0.00  0.00    +0.000 A 
ATOM     11  C   UNL     1       3.228   7.932  17.805  0.00  0.00    +0.000 A 
ATOM     12  C   UNL     1       4.105   6.887  17.466  0.00  0.00    +0.000 A 
ATOM     13  C   UNL     1       4.059   5.694  18.182  0.00  0.00    +0.000 A 
ATOM     14  C   UNL     1       3.170   5.545  19.239  0.00  0.00    +0.000 A 
ATOM     15  C   UNL     1       2.310   6.592  19.556  0.00  0.00    +0.000 A 
ATOM     16  F   UNL     1       1.469   6.373  20.582  0.00  0.00    +0.000 F 
BRANCH  13  17
ATOM     17  S   UNL     1       5.154   4.356  17.788  0.00  0.00    +0.000 S 
ATOM     18  C   UNL     1       6.226   5.068  16.566  0.00  0.00    +0.000 C 
ATOM     19  O   UNL     1       5.941   4.066  18.972  0.00  0.00    +0.000 OA
ATOM     20  O   UNL     1       4.367   3.325  17.149  0.00  0.00    +0.000 OA
ENDBRANCH  13  17
ENDBRANCH   9  10
BRANCH   1  21
ATOM     21  O   UNL     1      -1.520  11.780  21.400  0.00  0.00    +0.000 OA
BRANCH  21  25
ATOM     22  N   UNL     1      -2.475  14.834  22.989  0.00  0.00    +0.000 NA
ATOM     23  C   UNL     1      -1.463  13.872  23.461  0.00  0.00    +0.000 C 
ATOM     24  C   UNL     1      -0.383  13.633  22.398  0.00  0.00    +0.000 C 
ATOM     25  C   UNL     1      -1.011  13.098  21.099  0.00  0.00    +0.000 C 
ATOM     26  C   UNL     1      -2.050  14.149  20.668  0.00  0.00    +0.000 C 
ATOM     27  C   UNL     1      -3.105  14.360  21.747  0.00  0.00    +0.000 C 
BRANCH  22  28
ATOM     28  C   UNL     1      -3.489  15.063  24.046  0.00  0.00    +0.000 C 
BRANCH  28  32
ATOM     29  C   UNL     1      -6.693  12.971  23.640  0.00  0.00    +0.000 C 
ATOM     30  N   UNL     1      -5.322  13.328  23.955  0.00  0.00    +0.000 N 
ATOM     31  C   UNL     1      -4.526  12.397  24.738  0.00  0.00    +0.000 C 
ATOM     32  C   UNL     1      -4.903  14.616  23.631  0.00  0.00    +0.000 C 
ATOM     33  O   UNL     1      -5.633  15.394  23.008  0.00  0.00    +0.000 OA
ENDBRANCH  28  32
ENDBRANCH  22  28
ENDBRANCH  21  25
ENDBRANCH   1  21
TORSDOF 6
ENDMDL
