MODEL 1
REMARK VINA RESULT:      -8.5      0.000      0.000
REMARK  Name = 
REMARK  3 active torsions:
REMARK  status: ('A' for Active; 'I' for Inactive)
REMARK    1  A    between atoms: C_9  and  C_10
REMARK    2  A    between atoms: C_10  and  N_11
REMARK    3  A    between atoms: N_14  and  C_15
REMARK                            x       y       z     vdW  Elec       q    Type
REMARK                         _______ _______ _______ _____ _____    ______ ____
ROOT
ATOM      1  C   UNL     1       7.175   8.099  17.494  0.00  0.00    +0.000 C 
ENDROOT
BRANCH   1  10
ATOM      2  O   UNL     1      10.606  12.334  20.961  0.00  0.00    +0.000 OA
ATOM      3  C   UNL     1      10.070  12.508  19.871  0.00  0.00    +0.000 A 
ATOM      4  C   UNL     1       9.962  13.857  19.233  0.00  0.00    +0.000 A 
ATOM      5 BR   UNL     1      10.687  15.337  20.097  0.00  0.00    +0.000 Br
ATOM      6  C   UNL     1       9.336  13.933  18.049  0.00  0.00    +0.000 A 
ATOM      7  N   UNL     1       8.729  12.885  17.401  0.00  0.00    +0.000 N 
ATOM      8  C   UNL     1       8.799  11.582  17.923  0.00  0.00    +0.000 A 
ATOM      9  C   UNL     1       8.079  10.525  17.339  0.00  0.00    +0.000 A 
ATOM     10  C   UNL     1       8.097   9.238  17.908  0.00  0.00    +0.000 A 
ATOM     11  C   UNL     1       8.888   9.022  19.052  0.00  0.00    +0.000 A 
ATOM     12  C   UNL     1       9.564  10.072  19.670  0.00  0.00    +0.000 A 
ATOM     13  C   UNL     1       9.479  11.356  19.132  0.00  0.00    +0.000 A 
ATOM     14  H   UNL     1       8.485  12.998  16.422  0.00  0.00    +0.000 HD
ENDBRANCH   1  10
BRANCH   1  15
ATOM     15  N   UNL     1       7.724   6.737  17.495  0.00  0.00    +0.000 NA
ATOM     16  C   UNL     1       7.495   6.006  18.758  0.00  0.00    +0.000 C 
ATOM     17  C   UNL     1       6.066   5.469  19.045  0.00  0.00    +0.000 C 
ATOM     18  N   UNL     1       5.402   4.851  17.874  0.00  0.00    +0.000 N 
ATOM     19  C   UNL     1       5.620   5.571  16.601  0.00  0.00    +0.000 C 
ATOM     20  C   UNL     1       7.111   5.935  16.407  0.00  0.00    +0.000 C 
BRANCH  18  21
ATOM     21  C   UNL     1       4.160   4.220  18.074  0.00  0.00    +0.000 A 
ATOM     22  C   UNL     1       4.048   2.871  18.469  0.00  0.00    +0.000 A 
ATOM     23  C   UNL     1       2.807   2.231  18.612  0.00  0.00    +0.000 A 
ATOM     24  C   UNL     1       1.640   2.924  18.346  0.00  0.00    +0.000 A 
ATOM     25  F   UNL     1       0.456   2.309  18.462  0.00  0.00    +0.000 F 
ATOM     26  C   UNL     1       1.694   4.246  17.949  0.00  0.00    +0.000 A 
ATOM     27  C   UNL     1       2.940   4.880  17.815  0.00  0.00    +0.000 A 
ENDBRANCH  18  21
ENDBRANCH   1  15
TORSDOF 3
ENDMDL
MODEL 2
REMARK VINA RESULT:      -8.3      5.949      7.412
REMARK  Name = 
REMARK  3 active torsions:
REMARK  status: ('A' for Active; 'I' for Inactive)
REMARK    1  A    between atoms: C_9  and  C_10
REMARK    2  A    between atoms: C_10  and  N_11
REMARK    3  A    between atoms: N_14  and  C_15
REMARK                            x       y       z     vdW  Elec       q    Type
REMARK                         _______ _______ _______ _____ _____    ______ ____
ROOT
ATOM      1  C   UNL     1       2.849   5.816  18.292  0.00  0.00    +0.000 C 
ENDROOT
BRANCH   1  10
ATOM      2  O   UNL     1      -0.376  10.096  21.900  0.00  0.00    +0.000 OA
ATOM      3  C   UNL     1       0.073  10.248  20.768  0.00  0.00    +0.000 A 
ATOM      4  C   UNL     1      -0.242  11.447  19.932  0.00  0.00    +0.000 A 
ATOM      5 BR   UNL     1      -1.332  12.786  20.627  0.00  0.00    +0.000 Br
ATOM      6  C   UNL     1       0.286  11.498  18.699  0.00  0.00    +0.000 A 
ATOM      7  N   UNL     1       1.041  10.510  18.115  0.00  0.00    +0.000 N 
ATOM      8  C   UNL     1       1.397   9.359  18.838  0.00  0.00    +0.000 A 
ATOM      9  C   UNL     1       2.061   8.287  18.217  0.00  0.00    +0.000 A 
ATOM     10  C   UNL     1       2.352   7.107  18.928  0.00  0.00    +0.000 A 
ATOM     11  C   UNL     1       2.002   7.043  20.290  0.00  0.00    +0.000 A 
ATOM     12  C   UNL     1       1.298   8.077  20.903  0.00  0.00    +0.000 A 
ATOM     13  C   UNL     1       0.956   9.210  20.165  0.00  0.00    +0.000 A 
ATOM     14  H   UNL     1       1.572  10.737  17.281  0.00  0.00    +0.000 HD
ENDBRANCH   1  10
BRANCH   1  15
ATOM     15  N   UNL     1       4.159   5.303  18.713  0.00  0.00    +0.000 NA
ATOM     16  C   UNL     1       4.434   3.929  18.247  0.00  0.00    +0.000 C 
ATOM     17  C   UNL     1       4.794   3.720  16.752  0.00  0.00    +0.000 C 
ATOM     18  N   UNL     1       5.730   4.730  16.204  0.00  0.00    +0.000 N 
ATOM     19  C   UNL     1       5.466   6.112  16.659  0.00  0.00    +0.000 C 
ATOM     20  C   UNL     1       5.243   6.169  18.189  0.00  0.00    +0.000 C 
BRANCH  18  21
ATOM     21  C   UNL     1       6.213   4.544  14.895  0.00  0.00    +0.000 A 
ATOM     22  C   UNL     1       7.338   5.232  14.397  0.00  0.00    +0.000 A 
ATOM     23  C   UNL     1       7.783   5.086  13.074  0.00  0.00    +0.000 A 
ATOM     24  C   UNL     1       7.099   4.253  12.205  0.00  0.00    +0.000 A 
ATOM     25  F   UNL     1       7.509   4.128  10.937  0.00  0.00    +0.000 F 
ATOM     26  C   UNL     1       5.986   3.561  12.642  0.00  0.00    +0.000 A 
ATOM     27  C   UNL     1       5.552   3.709  13.970  0.00  0.00    +0.000 A 
ENDBRANCH  18  21
ENDBRANCH   1  15
TORSDOF 3
ENDMDL
MODEL 3
REMARK VINA RESULT:      -8.0      8.599     10.556
REMARK  Name = 
REMARK  3 active torsions:
REMARK  status: ('A' for Active; 'I' for Inactive)
REMARK    1  A    between atoms: C_9  and  C_10
REMARK    2  A    between atoms: C_10  and  N_11
REMARK    3  A    between atoms: N_14  and  C_15
REMARK                            x       y       z     vdW  Elec       q    Type
REMARK                         _______ _______ _______ _____ _____    ______ ____
ROOT
ATOM      1  C   UNL     1       0.374  10.484  18.922  0.00  0.00    +0.000 C 
ENDROOT
BRANCH   1  10
ATOM      2  O   UNL     1       3.989   5.371  17.331  0.00  0.00    +0.000 OA
ATOM      3  C   UNL     1       3.433   5.601  18.401  0.00  0.00    +0.000 A 
ATOM      4  C   UNL     1       3.344   4.585  19.496  0.00  0.00    +0.000 A 
ATOM      5 BR   UNL     1       4.125   2.913  19.257  0.00  0.00    +0.000 Br
ATOM      6  C   UNL     1       2.693   4.937  20.615  0.00  0.00    +0.000 A 
ATOM      7  N   UNL     1       2.045   6.131  20.817  0.00  0.00    +0.000 N 
ATOM      8  C   UNL     1       2.094   7.146  19.846  0.00  0.00    +0.000 A 
ATOM      9  C   UNL     1       1.335   8.321  19.984  0.00  0.00    +0.000 A 
ATOM     10  C   UNL     1       1.334   9.303  18.975  0.00  0.00    +0.000 A 
ATOM     11  C   UNL     1       2.145   9.101  17.843  0.00  0.00    +0.000 A 
ATOM     12  C   UNL     1       2.861   7.918  17.671  0.00  0.00    +0.000 A 
ATOM     13  C   UNL     1       2.796   6.926  18.648  0.00  0.00    +0.000 A 
ATOM     14  H   UNL     1       1.781   6.384  21.764  0.00  0.00    +0.000 HD
ENDBRANCH   1  10
BRANCH   1  15
ATOM     15  N   UNL     1       0.757  11.712  19.633  0.00  0.00    +0.000 NA
ATOM     16  C   UNL     1      -0.128  12.860  19.352  0.00  0.00    +0.000 C 
ATOM     17  C   UNL     1      -1.535  12.877  20.008  0.00  0.00    +0.000 C 
ATOM     18  N   UNL     1      -1.551  12.450  21.426  0.00  0.00    +0.000 N 
ATOM     19  C   UNL     1      -0.671  11.299  21.724  0.00  0.00    +0.000 C 
ATOM     20  C   UNL     1       0.732  11.486  21.098  0.00  0.00    +0.000 C 
BRANCH  18  21
ATOM     21  C   UNL     1      -2.760  12.560  22.138  0.00  0.00    +0.000 A 
ATOM     22  C   UNL     1      -3.951  13.024  21.544  0.00  0.00    +0.000 A 
ATOM     23  C   UNL     1      -5.140  13.186  22.272  0.00  0.00    +0.000 A 
ATOM     24  C   UNL     1      -5.164  12.900  23.626  0.00  0.00    +0.000 A 
ATOM     25  F   UNL     1      -6.291  13.072  24.326  0.00  0.00    +0.000 F 
ATOM     26  C   UNL     1      -4.021  12.447  24.258  0.00  0.00    +0.000 A 
ATOM     27  C   UNL     1      -2.838  12.283  23.519  0.00  0.00    +0.000 A 
ENDBRANCH  18  21
ENDBRANCH   1  15
TORSDOF 3
ENDMDL
MODEL 4
REMARK VINA RESULT:      -7.9      8.810     10.695
REMARK  Name = 
REMARK  3 active torsions:
REMARK  status: ('A' for Active; 'I' for Inactive)
REMARK    1  A    between atoms: C_9  and  C_10
REMARK    2  A    between atoms: C_10  and  N_11
REMARK    3  A    between atoms: N_14  and  C_15
REMARK                            x       y       z     vdW  Elec       q    Type
REMARK                         _______ _______ _______ _____ _____    ______ ____
ROOT
ATOM      1  C   UNL     1      -0.243  10.047  19.814  0.00  0.00    +0.000 C 
ENDROOT
BRANCH   1  10
ATOM      2  O   UNL     1       4.273   6.811  16.517  0.00  0.00    +0.000 OA
ATOM      3  C   UNL     1       3.861   6.589  17.652  0.00  0.00    +0.000 A 
ATOM      4  C   UNL     1       4.224   5.353  18.413  0.00  0.00    +0.000 A 
ATOM      5 BR   UNL     1       5.366   4.105  17.637  0.00  0.00    +0.000 Br
ATOM      6  C   UNL     1       3.697   5.204  19.637  0.00  0.00    +0.000 A 
ATOM      7  N   UNL     1       2.801   6.060  20.228  0.00  0.00    +0.000 N 
ATOM      8  C   UNL     1       2.421   7.253  19.589  0.00  0.00    +0.000 A 
ATOM      9  C   UNL     1       1.414   8.075  20.123  0.00  0.00    +0.000 A 
ATOM     10  C   UNL     1       0.988   9.231  19.443  0.00  0.00    +0.000 A 
ATOM     11  C   UNL     1       1.626   9.570  18.235  0.00  0.00    +0.000 A 
ATOM     12  C   UNL     1       2.589   8.736  17.669  0.00  0.00    +0.000 A 
ATOM     13  C   UNL     1       2.949   7.558  18.323  0.00  0.00    +0.000 A 
ATOM     14  H   UNL     1       2.641   5.978  21.227  0.00  0.00    +0.000 HD
ENDBRANCH   1  10
BRANCH   1  15
ATOM     15  N   UNL     1      -0.064  11.483  20.066  0.00  0.00    +0.000 NA
ATOM     16  C   UNL     1      -1.142  12.322  19.505  0.00  0.00    +0.000 C 
ATOM     17  C   UNL     1      -2.516  12.330  20.229  0.00  0.00    +0.000 C 
ATOM     18  N   UNL     1      -2.425  12.392  21.706  0.00  0.00    +0.000 N 
ATOM     19  C   UNL     1      -1.351  11.555  22.284  0.00  0.00    +0.000 C 
ATOM     20  C   UNL     1      -0.016  11.747  21.525  0.00  0.00    +0.000 C 
BRANCH  18  21
ATOM     21  C   UNL     1      -3.619  12.536  22.438  0.00  0.00    +0.000 A 
ATOM     22  C   UNL     1      -4.828  12.951  21.844  0.00  0.00    +0.000 A 
ATOM     23  C   UNL     1      -6.002  13.148  22.588  0.00  0.00    +0.000 A 
ATOM     24  C   UNL     1      -5.991  12.948  23.957  0.00  0.00    +0.000 A 
ATOM     25  F   UNL     1      -7.104  13.154  24.672  0.00  0.00    +0.000 F 
ATOM     26  C   UNL     1      -4.830  12.546  24.589  0.00  0.00    +0.000 A 
ATOM     27  C   UNL     1      -3.662  12.346  23.835  0.00  0.00    +0.000 A 
ENDBRANCH  18  21
ENDBRANCH   1  15
TORSDOF 3
ENDMDL
MODEL 5
REMARK VINA RESULT:      -7.9      5.658      7.397
REMARK  Name = 
REMARK  3 active torsions:
REMARK  status: ('A' for Active; 'I' for Inactive)
REMARK    1  A    between atoms: C_9  and  C_10
REMARK    2  A    between atoms: C_10  and  N_11
REMARK    3  A    between atoms: N_14  and  C_15
REMARK                            x       y       z     vdW  Elec       q    Type
REMARK                         _______ _______ _______ _____ _____    ______ ____
ROOT
ATOM      1  C   UNL     1       3.150   5.957  18.306  0.00  0.00    +0.000 C 
ENDROOT
BRANCH   1  10
ATOM      2  O   UNL     1       0.554  11.829  19.031  0.00  0.00    +0.000 OA
ATOM      3  C   UNL     1       0.628  10.927  19.861  0.00  0.00    +0.000 A 
ATOM      4  C   UNL     1       0.282  11.129  21.302  0.00  0.00    +0.000 A 
ATOM      5 BR   UNL     1      -0.313  12.797  21.874  0.00  0.00    +0.000 Br
ATOM      6  C   UNL     1       0.422  10.079  22.125  0.00  0.00    +0.000 A 
ATOM      7  N   UNL     1       0.917   8.849  21.768  0.00  0.00    +0.000 N 
ATOM      8  C   UNL     1       1.250   8.570  20.432  0.00  0.00    +0.000 A 
ATOM      9  C   UNL     1       1.873   7.362  20.074  0.00  0.00    +0.000 A 
ATOM     10  C   UNL     1       2.267   7.118  18.745  0.00  0.00    +0.000 A 
ATOM     11  C   UNL     1       1.984   8.095  17.772  0.00  0.00    +0.000 A 
ATOM     12  C   UNL     1       1.414   9.317  18.123  0.00  0.00    +0.000 A 
ATOM     13  C   UNL     1       1.093   9.570  19.456  0.00  0.00    +0.000 A 
ATOM     14  H   UNL     1       0.773   8.068  22.401  0.00  0.00    +0.000 HD
ENDBRANCH   1  10
BRANCH   1  15
ATOM     15  N   UNL     1       4.598   6.079  18.517  0.00  0.00    +0.000 NA
ATOM     16  C   UNL     1       5.329   4.805  18.366  0.00  0.00    +0.000 C 
ATOM     17  C   UNL     1       5.548   4.251  16.932  0.00  0.00    +0.000 C 
ATOM     18  N   UNL     1       5.936   5.278  15.936  0.00  0.00    +0.000 N 
ATOM     19  C   UNL     1       5.212   6.560  16.073  0.00  0.00    +0.000 C 
ATOM     20  C   UNL     1       5.180   7.037  17.545  0.00  0.00    +0.000 C 
BRANCH  18  21
ATOM     21  C   UNL     1       6.283   4.848  14.642  0.00  0.00    +0.000 A 
ATOM     22  C   UNL     1       5.555   3.859  13.950  0.00  0.00    +0.000 A 
ATOM     23  C   UNL     1       5.938   3.393  12.682  0.00  0.00    +0.000 A 
ATOM     24  C   UNL     1       7.076   3.898  12.078  0.00  0.00    +0.000 A 
ATOM     25  F   UNL     1       7.455   3.441  10.878  0.00  0.00    +0.000 F 
ATOM     26  C   UNL     1       7.828   4.865  12.717  0.00  0.00    +0.000 A 
ATOM     27  C   UNL     1       7.433   5.329  13.982  0.00  0.00    +0.000 A 
ENDBRANCH  18  21
ENDBRANCH   1  15
TORSDOF 3
ENDMDL
MODEL 6
REMARK VINA RESULT:      -7.6      8.530     10.340
REMARK  Name = 
REMARK  3 active torsions:
REMARK  status: ('A' for Active; 'I' for Inactive)
REMARK    1  A    between atoms: C_9  and  C_10
REMARK    2  A    between atoms: C_10  and  N_11
REMARK    3  A    between atoms: N_14  and  C_15
REMARK                            x       y       z     vdW  Elec       q    Type
REMARK                         _______ _______ _______ _____ _____    ______ ____
ROOT
ATOM      1  C   UNL     1      -0.467  10.050  17.848  0.00  0.00    +0.000 C 
ENDROOT
BRANCH   1  10
ATOM      2  O   UNL     1      -6.677  11.828  17.949  0.00  0.00    +0.000 OA
ATOM      3  C   UNL     1      -5.756  12.258  18.637  0.00  0.00    +0.000 A 
ATOM      4  C   UNL     1      -5.902  13.459  19.518  0.00  0.00    +0.000 A 
ATOM      5 BR   UNL     1      -7.543  14.331  19.609  0.00  0.00    +0.000 Br
ATOM      6  C   UNL     1      -4.823  13.854  20.209  0.00  0.00    +0.000 A 
ATOM      7  N   UNL     1      -3.575  13.287  20.129  0.00  0.00    +0.000 N 
ATOM      8  C   UNL     1      -3.356  12.145  19.339  0.00  0.00    +0.000 A 
ATOM      9  C   UNL     1      -2.062  11.629  19.149  0.00  0.00    +0.000 A 
ATOM     10  C   UNL     1      -1.840  10.528  18.300  0.00  0.00    +0.000 A 
ATOM     11  C   UNL     1      -2.951   9.927  17.679  0.00  0.00    +0.000 A 
ATOM     12  C   UNL     1      -4.231  10.461  17.818  0.00  0.00    +0.000 A 
ATOM     13  C   UNL     1      -4.423  11.594  18.607  0.00  0.00    +0.000 A 
ATOM     14  H   UNL     1      -2.894  13.511  20.848  0.00  0.00    +0.000 HD
ENDBRANCH   1  10
BRANCH   1  15
ATOM     15  N   UNL     1       0.694  10.425  18.666  0.00  0.00    +0.000 NA
ATOM     16  C   UNL     1       0.646   9.890  20.042  0.00  0.00    +0.000 C 
ATOM     17  C   UNL     1       0.940   8.380  20.252  0.00  0.00    +0.000 C 
ATOM     18  N   UNL     1       2.079   7.866  19.456  0.00  0.00    +0.000 N 
ATOM     19  C   UNL     1       2.139   8.390  18.074  0.00  0.00    +0.000 C 
ATOM     20  C   UNL     1       1.944   9.925  18.044  0.00  0.00    +0.000 C 
BRANCH  18  21
ATOM     21  C   UNL     1       2.500   6.542  19.681  0.00  0.00    +0.000 A 
ATOM     22  C   UNL     1       3.578   5.959  18.983  0.00  0.00    +0.000 A 
ATOM     23  C   UNL     1       3.958   4.621  19.171  0.00  0.00    +0.000 A 
ATOM     24  C   UNL     1       3.255   3.823  20.056  0.00  0.00    +0.000 A 
ATOM     25  F   UNL     1       3.603   2.541  20.222  0.00  0.00    +0.000 F 
ATOM     26  C   UNL     1       2.187   4.343  20.761  0.00  0.00    +0.000 A 
ATOM     27  C   UNL     1       1.818   5.685  20.571  0.00  0.00    +0.000 A 
ENDBRANCH  18  21
ENDBRANCH   1  15
TORSDOF 3
ENDMDL
MODEL 7
REMARK VINA RESULT:      -7.6      8.596     10.830
REMARK  Name = 
REMARK  3 active torsions:
REMARK  status: ('A' for Active; 'I' for Inactive)
REMARK    1  A    between atoms: C_9  and  C_10
REMARK    2  A    between atoms: C_10  and  N_11
REMARK    3  A    between atoms: N_14  and  C_15
REMARK                            x       y       z     vdW  Elec       q    Type
REMARK                         _______ _______ _______ _____ _____    ______ ____
ROOT
ATOM      1  C   UNL     1       0.629   9.516  20.261  0.00  0.00    +0.000 C 
ENDROOT
BRANCH   1  10
ATOM      2  O   UNL     1       3.523   4.588  17.249  0.00  0.00    +0.000 OA
ATOM      3  C   UNL     1       3.127   4.637  18.409  0.00  0.00    +0.000 A 
ATOM      4  C   UNL     1       3.078   3.432  19.295  0.00  0.00    +0.000 A 
ATOM      5 BR   UNL     1       3.662   1.792  18.639  0.00  0.00    +0.000 Br
ATOM      6  C   UNL     1       2.605   3.597  20.539  0.00  0.00    +0.000 A 
ATOM      7  N   UNL     1       2.102   4.769  21.050  0.00  0.00    +0.000 N 
ATOM      8  C   UNL     1       2.127   5.951  20.291  0.00  0.00    +0.000 A 
ATOM      9  C   UNL     1       1.504   7.124  20.752  0.00  0.00    +0.000 A 
ATOM     10  C   UNL     1       1.471   8.285  19.956  0.00  0.00    +0.000 A 
ATOM     11  C   UNL     1       2.116   8.258  18.705  0.00  0.00    +0.000 A 
ATOM     12  C   UNL     1       2.690   7.087  18.216  0.00  0.00    +0.000 A 
ATOM     13  C   UNL     1       2.653   5.926  18.988  0.00  0.00    +0.000 A 
ATOM     14  H   UNL     1       1.981   4.845  22.055  0.00  0.00    +0.000 HD
ENDBRANCH   1  10
BRANCH   1  15
ATOM     15  N   UNL     1       1.095  10.423  21.318  0.00  0.00    +0.000 NA
ATOM     16  C   UNL     1       0.795  11.844  21.055  0.00  0.00    +0.000 C 
ATOM     17  C   UNL     1      -0.668  12.331  21.234  0.00  0.00    +0.000 C 
ATOM     18  N   UNL     1      -1.344  11.797  22.440  0.00  0.00    +0.000 N 
ATOM     19  C   UNL     1      -1.056  10.373  22.716  0.00  0.00    +0.000 C 
ATOM     20  C   UNL     1       0.458  10.072  22.612  0.00  0.00    +0.000 C 
BRANCH  18  21
ATOM     21  C   UNL     1      -2.626  12.287  22.752  0.00  0.00    +0.000 A 
ATOM     22  C   UNL     1      -3.161  12.235  24.056  0.00  0.00    +0.000 A 
ATOM     23  C   UNL     1      -4.461  12.673  24.352  0.00  0.00    +0.000 A 
ATOM     24  C   UNL     1      -5.270  13.163  23.341  0.00  0.00    +0.000 A 
ATOM     25  F   UNL     1      -6.517  13.563  23.617  0.00  0.00    +0.000 F 
ATOM     26  C   UNL     1      -4.795  13.229  22.045  0.00  0.00    +0.000 A 
ATOM     27  C   UNL     1      -3.491  12.794  21.760  0.00  0.00    +0.000 A 
ENDBRANCH  18  21
ENDBRANCH   1  15
TORSDOF 3
ENDMDL
MODEL 8
REMARK VINA RESULT:      -7.6      7.809     10.008
REMARK  Name = 
REMARK  3 active torsions:
REMARK  status: ('A' for Active; 'I' for Inactive)
REMARK    1  A    between atoms: C_9  and  C_10
REMARK    2  A    between atoms: C_10  and  N_11
REMARK    3  A    between atoms: N_14  and  C_15
REMARK                            x       y       z     vdW  Elec       q    Type
REMARK                         _______ _______ _______ _____ _____    ______ ____
ROOT
ATOM      1  C   UNL     1       1.320   9.916  18.196  0.00  0.00    +0.000 C 
ENDROOT
BRANCH   1  10
ATOM      2  O   UNL     1       4.584   4.363  17.706  0.00  0.00    +0.000 OA
ATOM      3  C   UNL     1       3.890   4.752  18.641  0.00  0.00    +0.000 A 
ATOM      4  C   UNL     1       3.520   3.870  19.791  0.00  0.00    +0.000 A 
ATOM      5 BR   UNL     1       4.149   2.119  19.838  0.00  0.00    +0.000 Br
ATOM      6  C   UNL     1       2.738   4.394  20.747  0.00  0.00    +0.000 A 
ATOM      7  N   UNL     1       2.196   5.655  20.728  0.00  0.00    +0.000 N 
ATOM      8  C   UNL     1       2.507   6.554  19.693  0.00  0.00    +0.000 A 
ATOM      9  C   UNL     1       1.864   7.800  19.594  0.00  0.00    +0.000 A 
ATOM     10  C   UNL     1       2.128   8.667  18.517  0.00  0.00    +0.000 A 
ATOM     11  C   UNL     1       3.085   8.275  17.562  0.00  0.00    +0.000 A 
ATOM     12  C   UNL     1       3.691   7.021  17.621  0.00  0.00    +0.000 A 
ATOM     13  C   UNL     1       3.365   6.147  18.657  0.00  0.00    +0.000 A 
ATOM     14  H   UNL     1       1.811   6.029  21.590  0.00  0.00    +0.000 HD
ENDBRANCH   1  10
BRANCH   1  15
ATOM     15  N   UNL     1       0.992  10.824  19.303  0.00  0.00    +0.000 NA
ATOM     16  C   UNL     1       0.577  12.171  18.862  0.00  0.00    +0.000 C 
ATOM     17  C   UNL     1      -0.843  12.339  18.258  0.00  0.00    +0.000 C 
ATOM     18  N   UNL     1      -1.904  11.599  18.982  0.00  0.00    +0.000 N 
ATOM     19  C   UNL     1      -1.504  10.247  19.428  0.00  0.00    +0.000 C 
ATOM     20  C   UNL     1      -0.117  10.266  20.114  0.00  0.00    +0.000 C 
BRANCH  18  21
ATOM     21  C   UNL     1      -3.239  11.798  18.584  0.00  0.00    +0.000 A 
ATOM     22  C   UNL     1      -4.229  12.284  19.463  0.00  0.00    +0.000 A 
ATOM     23  C   UNL     1      -5.571  12.427  19.078  0.00  0.00    +0.000 A 
ATOM     24  C   UNL     1      -5.963  12.070  17.800  0.00  0.00    +0.000 A 
ATOM     25  F   UNL     1      -7.246  12.187  17.437  0.00  0.00    +0.000 F 
ATOM     26  C   UNL     1      -5.033  11.582  16.902  0.00  0.00    +0.000 A 
ATOM     27  C   UNL     1      -3.691  11.448  17.294  0.00  0.00    +0.000 A 
ENDBRANCH  18  21
ENDBRANCH   1  15
TORSDOF 3
ENDMDL
MODEL 9
REMARK VINA RESULT:      -7.6      7.948     10.442
REMARK  Name = 
REMARK  3 active torsions:
REMARK  status: ('A' for Active; 'I' for Inactive)
REMARK    1  A    between atoms: C_9  and  C_10
REMARK    2  A    between atoms: C_10  and  N_11
REMARK    3  A    between atoms: N_14  and  C_15
REMARK                            x       y       z     vdW  Elec       q    Type
REMARK                         _______ _______ _______ _____ _____    ______ ____
ROOT
ATOM      1  C   UNL     1       0.697   9.406  20.381  0.00  0.00    +0.000 C 
ENDROOT
BRANCH   1  10
ATOM      2  O   UNL     1       3.500   4.523  17.214  0.00  0.00    +0.000 OA
ATOM      3  C   UNL     1       3.081   4.534  18.367  0.00  0.00    +0.000 A 
ATOM      4  C   UNL     1       2.975   3.294  19.197  0.00  0.00    +0.000 A 
ATOM      5 BR   UNL     1       3.523   1.666  18.481  0.00  0.00    +0.000 Br
ATOM      6  C   UNL     1       2.481   3.421  20.438  0.00  0.00    +0.000 A 
ATOM      7  N   UNL     1       2.004   4.584  20.990  0.00  0.00    +0.000 N 
ATOM      8  C   UNL     1       2.083   5.797  20.284  0.00  0.00    +0.000 A 
ATOM      9  C   UNL     1       1.487   6.968  20.784  0.00  0.00    +0.000 A 
ATOM     10  C   UNL     1       1.508   8.163  20.040  0.00  0.00    +0.000 A 
ATOM     11  C   UNL     1       2.177   8.169  18.802  0.00  0.00    +0.000 A 
ATOM     12  C   UNL     1       2.725   7.003  18.273  0.00  0.00    +0.000 A 
ATOM     13  C   UNL     1       2.635   5.812  18.992  0.00  0.00    +0.000 A 
ATOM     14  H   UNL     1       1.865   4.621  21.995  0.00  0.00    +0.000 HD
ENDBRANCH   1  10
BRANCH   1  15
ATOM     15  N   UNL     1       0.799  10.561  19.480  0.00  0.00    +0.000 NA
ATOM     16  C   UNL     1       0.131  10.359  18.179  0.00  0.00    +0.000 C 
ATOM     17  C   UNL     1      -1.420  10.416  18.135  0.00  0.00    +0.000 C 
ATOM     18  N   UNL     1      -2.011  11.510  18.940  0.00  0.00    +0.000 N 
ATOM     19  C   UNL     1      -1.354  11.725  20.248  0.00  0.00    +0.000 C 
ATOM     20  C   UNL     1       0.186  11.758  20.107  0.00  0.00    +0.000 C 
BRANCH  18  21
ATOM     21  C   UNL     1      -3.400  11.720  18.854  0.00  0.00    +0.000 A 
ATOM     22  C   UNL     1      -4.112  12.488  19.799  0.00  0.00    +0.000 A 
ATOM     23  C   UNL     1      -5.505  12.647  19.741  0.00  0.00    +0.000 A 
ATOM     24  C   UNL     1      -6.228  12.025  18.738  0.00  0.00    +0.000 A 
ATOM     25  F   UNL     1      -7.559  12.160  18.692  0.00  0.00    +0.000 F 
ATOM     26  C   UNL     1      -5.580  11.257  17.791  0.00  0.00    +0.000 A 
ATOM     27  C   UNL     1      -4.184  11.108  17.854  0.00  0.00    +0.000 A 
ENDBRANCH  18  21
ENDBRANCH   1  15
TORSDOF 3
ENDMDL
