MODEL 1
REMARK VINA RESULT:      -6.8      0.000      0.000
REMARK  Name = 
REMARK  21 active torsions:
REMARK  status: ('A' for Active; 'I' for Inactive)
REMARK    1  A    between atoms: C_1  and  C_2
REMARK    2  A    between atoms: C_2  and  C_3
REMARK    3  A    between atoms: C_3  and  C_4
REMARK    4  A    between atoms: C_4  and  C_5
REMARK    5  A    between atoms: C_5  and  C_6
REMARK    6  A    between atoms: C_6  and  C_7
REMARK    7  A    between atoms: C_7  and  C_8
REMARK    8  A    between atoms: C_8  and  C_9
REMARK    9  A    between atoms: C_12  and  C_13
REMARK   10  A    between atoms: C_17  and  C_18
REMARK   11  A    between atoms: C_18  and  O_19
REMARK   12  A    between atoms: O_19  and  C_20
REMARK   13  A    between atoms: C_20  and  C_21
REMARK   14  A    between atoms: C_21  and  C_22
REMARK   15  A    between atoms: C_22  and  C_23
REMARK   16  A    between atoms: C_23  and  O_24
REMARK   17  A    between atoms: C_23  and  C_25
REMARK   18  A    between atoms: C_28  and  O_29
REMARK   19  A    between atoms: O_29  and  C_30
REMARK   20  A    between atoms: C_32  and  O_33
REMARK   21  A    between atoms: O_33  and  C_34
REMARK                            x       y       z     vdW  Elec       q    Type
REMARK                         _______ _______ _______ _____ _____    ______ ____
ROOT
ATOM      1  C   UNL     1       2.049   4.567  19.948  0.00  0.00    +0.000 C 
ATOM      2  C   UNL     1       2.901   4.348  21.197  0.00  0.00    +0.000 C 
ATOM      3  C   UNL     1       2.487   2.961  21.631  0.00  0.00    +0.000 C 
ATOM      4  N   UNL     1       1.037   2.940  21.435  0.00  0.00    +0.000 NA
ATOM      5  C   UNL     1       0.750   3.783  20.241  0.00  0.00    +0.000 C 
ATOM      6  H   UNL     1       0.589   3.378  22.240  0.00  0.00    +0.000 HD
ENDROOT
BRANCH   1  10
ATOM      7  C   UNL     1       1.787   8.777  18.957  0.00  0.00    +0.000 A 
ATOM      8  C   UNL     1       2.175   7.835  18.002  0.00  0.00    +0.000 A 
ATOM      9  C   UNL     1       2.218   6.478  18.316  0.00  0.00    +0.000 A 
ATOM     10  C   UNL     1       1.881   6.030  19.603  0.00  0.00    +0.000 A 
ATOM     11  C   UNL     1       1.458   6.972  20.549  0.00  0.00    +0.000 A 
ATOM     12  C   UNL     1       1.415   8.334  20.231  0.00  0.00    +0.000 A 
BRANCH   7  13
ATOM     13  C   UNL     1       1.801  10.251  18.634  0.00  0.00    +0.000 C 
BRANCH  13  14
ATOM     14  C   UNL     1       0.962  11.063  19.619  0.00  0.00    +0.000 C 
BRANCH  14  15
ATOM     15  C   UNL     1       1.246  12.558  19.489  0.00  0.00    +0.000 C 
BRANCH  15  16
ATOM     16  C   UNL     1       2.167  12.819  18.302  0.00  0.00    +0.000 C 
BRANCH  16  17
ATOM     17  C   UNL     1       3.250  13.834  18.653  0.00  0.00    +0.000 C 
BRANCH  17  18
ATOM     18  C   UNL     1       3.275  14.971  17.635  0.00  0.00    +0.000 C 
BRANCH  18  20
ATOM     19  C   UNL     1       2.594  16.135  19.753  0.00  0.00    +0.000 C 
ATOM     20  C   UNL     1       2.784  16.277  18.253  0.00  0.00    +0.000 C 
ENDBRANCH  18  20
ENDBRANCH  17  18
ENDBRANCH  16  17
ENDBRANCH  15  16
ENDBRANCH  14  15
ENDBRANCH  13  14
ENDBRANCH   7  13
ENDBRANCH   1  10
BRANCH   5  21
ATOM     21  C   UNL     1       0.339   2.920  19.029  0.00  0.00    +0.000 C 
BRANCH  21  22
ATOM     22  O   UNL     1       1.400   2.870  18.069  0.00  0.00    +0.000 OA
BRANCH  22  23
ATOM     23  C   UNL     1       2.290   1.782  18.315  0.00  0.00    +0.000 C 
BRANCH  23  24
ATOM     24  C   UNL     1       3.695   2.160  17.841  0.00  0.00    +0.000 C 
BRANCH  24  25
ATOM     25  C   UNL     1       3.712   3.563  17.225  0.00  0.00    +0.000 C 
BRANCH  25  26
ATOM     26  C   UNL     1       5.041   4.322  17.422  0.00  0.00    +0.000 C 
BRANCH  26  27
ATOM     27  C   UNL     1       5.810   4.531  16.142  0.00  0.00    +0.000 A 
ATOM     28  C   UNL     1       5.389   4.014  14.930  0.00  0.00    +0.000 A 
ATOM     29  N   UNL     1       6.038   4.167  13.763  0.00  0.00    +0.000 NA
ATOM     30  C   UNL     1       7.170   4.867  13.812  0.00  0.00    +0.000 A 
ATOM     31  N   UNL     1       7.692   5.409  14.916  0.00  0.00    +0.000 NA
ATOM     32  C   UNL     1       7.007   5.223  16.063  0.00  0.00    +0.000 A 
BRANCH  32  33
ATOM     33  O   UNL     1       7.529   5.774  17.219  0.00  0.00    +0.000 OA
ATOM     34  C   UNL     1       7.197   7.157  17.381  0.00  0.00    +0.000 C 
ENDBRANCH  32  33
BRANCH  30  35
ATOM     35  O   UNL     1       7.809   5.014  12.602  0.00  0.00    +0.000 OA
ATOM     36  C   UNL     1       8.819   6.010  12.628  0.00  0.00    +0.000 C 
ENDBRANCH  30  35
ENDBRANCH  26  27
BRANCH  26  37
ATOM     37  O   UNL     1       5.862   3.597  18.336  0.00  0.00    +0.000 OA
ATOM     38  H   UNL     1       6.753   3.988  18.317  0.00  0.00    +0.000 HD
ENDBRANCH  26  37
ENDBRANCH  25  26
ENDBRANCH  24  25
ENDBRANCH  23  24
ENDBRANCH  22  23
ENDBRANCH  21  22
ENDBRANCH   5  21
TORSDOF 18
ENDMDL
MODEL 2
REMARK VINA RESULT:      -6.8      4.666     10.272
REMARK  Name = 
REMARK  21 active torsions:
REMARK  status: ('A' for Active; 'I' for Inactive)
REMARK    1  A    between atoms: C_1  and  C_2
REMARK    2  A    between atoms: C_2  and  C_3
REMARK    3  A    between atoms: C_3  and  C_4
REMARK    4  A    between atoms: C_4  and  C_5
REMARK    5  A    between atoms: C_5  and  C_6
REMARK    6  A    between atoms: C_6  and  C_7
REMARK    7  A    between atoms: C_7  and  C_8
REMARK    8  A    between atoms: C_8  and  C_9
REMARK    9  A    between atoms: C_12  and  C_13
REMARK   10  A    between atoms: C_17  and  C_18
REMARK   11  A    between atoms: C_18  and  O_19
REMARK   12  A    between atoms: O_19  and  C_20
REMARK   13  A    between atoms: C_20  and  C_21
REMARK   14  A    between atoms: C_21  and  C_22
REMARK   15  A    between atoms: C_22  and  C_23
REMARK   16  A    between atoms: C_23  and  O_24
REMARK   17  A    between atoms: C_23  and  C_25
REMARK   18  A    between atoms: C_28  and  O_29
REMARK   19  A    between atoms: O_29  and  C_30
REMARK   20  A    between atoms: C_32  and  O_33
REMARK   21  A    between atoms: O_33  and  C_34
REMARK                            x       y       z     vdW  Elec       q    Type
REMARK                         _______ _______ _______ _____ _____    ______ ____
ROOT
ATOM      1  C   UNL     1       2.623   3.780  19.474  0.00  0.00    +0.000 C 
ATOM      2  C   UNL     1       2.697   2.372  20.063  0.00  0.00    +0.000 C 
ATOM      3  C   UNL     1       1.861   2.502  21.316  0.00  0.00    +0.000 C 
ATOM      4  N   UNL     1       2.242   3.802  21.870  0.00  0.00    +0.000 NA
ATOM      5  C   UNL     1       2.526   4.698  20.714  0.00  0.00    +0.000 C 
ATOM      6  H   UNL     1       3.107   3.695  22.400  0.00  0.00    +0.000 HD
ENDROOT
BRANCH   1  10
ATOM      7  C   UNL     1       5.892   4.402  16.699  0.00  0.00    +0.000 A 
ATOM      8  C   UNL     1       4.641   3.968  16.253  0.00  0.00    +0.000 A 
ATOM      9  C   UNL     1       3.583   3.809  17.146  0.00  0.00    +0.000 A 
ATOM     10  C   UNL     1       3.754   4.072  18.515  0.00  0.00    +0.000 A 
ATOM     11  C   UNL     1       4.998   4.542  18.953  0.00  0.00    +0.000 A 
ATOM     12  C   UNL     1       6.059   4.702  18.056  0.00  0.00    +0.000 A 
BRANCH   7  13
ATOM     13  C   UNL     1       7.053   4.515  15.742  0.00  0.00    +0.000 C 
BRANCH  13  14
ATOM     14  C   UNL     1       6.638   5.124  14.404  0.00  0.00    +0.000 C 
BRANCH  14  15
ATOM     15  C   UNL     1       7.603   4.725  13.290  0.00  0.00    +0.000 C 
BRANCH  15  16
ATOM     16  C   UNL     1       6.835   4.137  12.111  0.00  0.00    +0.000 C 
BRANCH  16  17
ATOM     17  C   UNL     1       5.863   3.054  12.568  0.00  0.00    +0.000 C 
BRANCH  17  18
ATOM     18  C   UNL     1       5.493   2.136  11.405  0.00  0.00    +0.000 C 
BRANCH  18  20
ATOM     19  C   UNL     1       6.163  -0.281  11.281  0.00  0.00    +0.000 C 
ATOM     20  C   UNL     1       6.620   1.155  11.094  0.00  0.00    +0.000 C 
ENDBRANCH  18  20
ENDBRANCH  17  18
ENDBRANCH  16  17
ENDBRANCH  15  16
ENDBRANCH  14  15
ENDBRANCH  13  14
ENDBRANCH   7  13
ENDBRANCH   1  10
BRANCH   5  21
ATOM     21  C   UNL     1       1.414   5.753  20.535  0.00  0.00    +0.000 C 
BRANCH  21  22
ATOM     22  O   UNL     1       1.978   7.068  20.479  0.00  0.00    +0.000 OA
BRANCH  22  23
ATOM     23  C   UNL     1       1.111   8.043  21.057  0.00  0.00    +0.000 C 
BRANCH  23  24
ATOM     24  C   UNL     1       1.065   9.277  20.153  0.00  0.00    +0.000 C 
BRANCH  24  25
ATOM     25  C   UNL     1      -0.060  10.229  20.573  0.00  0.00    +0.000 C 
BRANCH  25  26
ATOM     26  C   UNL     1      -0.340  11.360  19.562  0.00  0.00    +0.000 C 
BRANCH  26  27
ATOM     27  C   UNL     1      -1.809  11.617  19.338  0.00  0.00    +0.000 A 
ATOM     28  C   UNL     1      -2.577  12.357  20.220  0.00  0.00    +0.000 A 
ATOM     29  N   UNL     1      -3.888  12.612  20.070  0.00  0.00    +0.000 NA
ATOM     30  C   UNL     1      -4.462  12.094  18.985  0.00  0.00    +0.000 A 
ATOM     31  N   UNL     1      -3.840  11.354  18.064  0.00  0.00    +0.000 NA
ATOM     32  C   UNL     1      -2.526  11.121  18.262  0.00  0.00    +0.000 A 
BRANCH  32  33
ATOM     33  O   UNL     1      -1.861  10.356  17.322  0.00  0.00    +0.000 OA
ATOM     34  C   UNL     1      -2.716   9.886  16.275  0.00  0.00    +0.000 C 
ENDBRANCH  32  33
BRANCH  30  35
ATOM     35  O   UNL     1      -5.803  12.378  18.853  0.00  0.00    +0.000 OA
ATOM     36  C   UNL     1      -6.435  11.601  17.848  0.00  0.00    +0.000 C 
ENDBRANCH  30  35
ENDBRANCH  26  27
BRANCH  26  37
ATOM     37  O   UNL     1       0.261  11.028  18.312  0.00  0.00    +0.000 OA
ATOM     38  H   UNL     1      -0.357  11.279  17.603  0.00  0.00    +0.000 HD
ENDBRANCH  26  37
ENDBRANCH  25  26
ENDBRANCH  24  25
ENDBRANCH  23  24
ENDBRANCH  22  23
ENDBRANCH  21  22
ENDBRANCH   5  21
TORSDOF 18
ENDMDL
MODEL 3
REMARK VINA RESULT:      -6.7      5.920     10.658
REMARK  Name = 
REMARK  21 active torsions:
REMARK  status: ('A' for Active; 'I' for Inactive)
REMARK    1  A    between atoms: C_1  and  C_2
REMARK    2  A    between atoms: C_2  and  C_3
REMARK    3  A    between atoms: C_3  and  C_4
REMARK    4  A    between atoms: C_4  and  C_5
REMARK    5  A    between atoms: C_5  and  C_6
REMARK    6  A    between atoms: C_6  and  C_7
REMARK    7  A    between atoms: C_7  and  C_8
REMARK    8  A    between atoms: C_8  and  C_9
REMARK    9  A    between atoms: C_12  and  C_13
REMARK   10  A    between atoms: C_17  and  C_18
REMARK   11  A    between atoms: C_18  and  O_19
REMARK   12  A    between atoms: O_19  and  C_20
REMARK   13  A    between atoms: C_20  and  C_21
REMARK   14  A    between atoms: C_21  and  C_22
REMARK   15  A    between atoms: C_22  and  C_23
REMARK   16  A    between atoms: C_23  and  O_24
REMARK   17  A    between atoms: C_23  and  C_25
REMARK   18  A    between atoms: C_28  and  O_29
REMARK   19  A    between atoms: O_29  and  C_30
REMARK   20  A    between atoms: C_32  and  O_33
REMARK   21  A    between atoms: O_33  and  C_34
REMARK                            x       y       z     vdW  Elec       q    Type
REMARK                         _______ _______ _______ _____ _____    ______ ____
ROOT
ATOM      1  C   UNL     1       1.357   9.430  18.972  0.00  0.00    +0.000 C 
ATOM      2  C   UNL     1       0.406   9.686  17.803  0.00  0.00    +0.000 C 
ATOM      3  C   UNL     1      -0.612  10.622  18.416  0.00  0.00    +0.000 C 
ATOM      4  N   UNL     1      -0.848  10.072  19.752  0.00  0.00    +0.000 NA
ATOM      5  C   UNL     1       0.445   9.496  20.217  0.00  0.00    +0.000 C 
ATOM      6  H   UNL     1      -1.520   9.309  19.681  0.00  0.00    +0.000 HD
ENDROOT
BRANCH   1  10
ATOM      7  C   UNL     1       3.800   5.867  18.641  0.00  0.00    +0.000 A 
ATOM      8  C   UNL     1       2.953   6.060  19.734  0.00  0.00    +0.000 A 
ATOM      9  C   UNL     1       2.140   7.189  19.814  0.00  0.00    +0.000 A 
ATOM     10  C   UNL     1       2.163   8.162  18.801  0.00  0.00    +0.000 A 
ATOM     11  C   UNL     1       2.986   7.948  17.690  0.00  0.00    +0.000 A 
ATOM     12  C   UNL     1       3.801   6.814  17.610  0.00  0.00    +0.000 A 
BRANCH   7  13
ATOM     13  C   UNL     1       4.724   4.676  18.585  0.00  0.00    +0.000 C 
BRANCH  13  14
ATOM     14  C   UNL     1       6.161   5.046  18.949  0.00  0.00    +0.000 C 
BRANCH  14  15
ATOM     15  C   UNL     1       7.079   4.968  17.731  0.00  0.00    +0.000 C 
BRANCH  15  16
ATOM     16  C   UNL     1       7.371   6.367  17.199  0.00  0.00    +0.000 C 
BRANCH  16  17
ATOM     17  C   UNL     1       7.897   7.280  18.302  0.00  0.00    +0.000 C 
BRANCH  17  18
ATOM     18  C   UNL     1       8.138   8.690  17.765  0.00  0.00    +0.000 C 
BRANCH  18  20
ATOM     19  C   UNL     1       9.111  10.953  18.252  0.00  0.00    +0.000 C 
ATOM     20  C   UNL     1       8.881   9.549  18.784  0.00  0.00    +0.000 C 
ENDBRANCH  18  20
ENDBRANCH  17  18
ENDBRANCH  16  17
ENDBRANCH  15  16
ENDBRANCH  14  15
ENDBRANCH  13  14
ENDBRANCH   7  13
ENDBRANCH   1  10
BRANCH   5  21
ATOM     21  C   UNL     1       1.081  10.365  21.323  0.00  0.00    +0.000 C 
BRANCH  21  22
ATOM     22  O   UNL     1       0.655   9.918  22.615  0.00  0.00    +0.000 OA
BRANCH  22  23
ATOM     23  C   UNL     1      -0.736  10.154  22.827  0.00  0.00    +0.000 C 
BRANCH  23  24
ATOM     24  C   UNL     1      -0.988  11.661  22.903  0.00  0.00    +0.000 C 
BRANCH  24  25
ATOM     25  C   UNL     1      -2.434  11.961  23.313  0.00  0.00    +0.000 C 
BRANCH  25  26
ATOM     26  C   UNL     1      -3.069  13.150  22.562  0.00  0.00    +0.000 C 
BRANCH  26  27
ATOM     27  C   UNL     1      -3.855  12.742  21.342  0.00  0.00    +0.000 A 
ATOM     28  C   UNL     1      -3.271  12.599  20.096  0.00  0.00    +0.000 A 
ATOM     29  N   UNL     1      -3.925  12.241  18.978  0.00  0.00    +0.000 NA
ATOM     30  C   UNL     1      -5.233  12.023  19.111  0.00  0.00    +0.000 A 
ATOM     31  N   UNL     1      -5.919  12.136  20.252  0.00  0.00    +0.000 NA
ATOM     32  C   UNL     1      -5.219  12.503  21.345  0.00  0.00    +0.000 A 
BRANCH  32  33
ATOM     33  O   UNL     1      -5.909  12.629  22.536  0.00  0.00    +0.000 OA
ATOM     34  C   UNL     1      -7.268  12.189  22.446  0.00  0.00    +0.000 C 
ENDBRANCH  32  33
BRANCH  30  35
ATOM     35  O   UNL     1      -5.875  11.651  17.952  0.00  0.00    +0.000 OA
ATOM     36  C   UNL     1      -7.163  12.231  17.824  0.00  0.00    +0.000 C 
ENDBRANCH  30  35
ENDBRANCH  26  27
BRANCH  26  37
ATOM     37  O   UNL     1      -2.039  14.052  22.161  0.00  0.00    +0.000 OA
ATOM     38  H   UNL     1      -1.280  13.527  21.854  0.00  0.00    +0.000 HD
ENDBRANCH  26  37
ENDBRANCH  25  26
ENDBRANCH  24  25
ENDBRANCH  23  24
ENDBRANCH  22  23
ENDBRANCH  21  22
ENDBRANCH   5  21
TORSDOF 18
ENDMDL
MODEL 4
REMARK VINA RESULT:      -6.7      4.946      8.672
REMARK  Name = 
REMARK  21 active torsions:
REMARK  status: ('A' for Active; 'I' for Inactive)
REMARK    1  A    between atoms: C_1  and  C_2
REMARK    2  A    between atoms: C_2  and  C_3
REMARK    3  A    between atoms: C_3  and  C_4
REMARK    4  A    between atoms: C_4  and  C_5
REMARK    5  A    between atoms: C_5  and  C_6
REMARK    6  A    between atoms: C_6  and  C_7
REMARK    7  A    between atoms: C_7  and  C_8
REMARK    8  A    between atoms: C_8  and  C_9
REMARK    9  A    between atoms: C_12  and  C_13
REMARK   10  A    between atoms: C_17  and  C_18
REMARK   11  A    between atoms: C_18  and  O_19
REMARK   12  A    between atoms: O_19  and  C_20
REMARK   13  A    between atoms: C_20  and  C_21
REMARK   14  A    between atoms: C_21  and  C_22
REMARK   15  A    between atoms: C_22  and  C_23
REMARK   16  A    between atoms: C_23  and  O_24
REMARK   17  A    between atoms: C_23  and  C_25
REMARK   18  A    between atoms: C_28  and  O_29
REMARK   19  A    between atoms: O_29  and  C_30
REMARK   20  A    between atoms: C_32  and  O_33
REMARK   21  A    between atoms: O_33  and  C_34
REMARK                            x       y       z     vdW  Elec       q    Type
REMARK                         _______ _______ _______ _____ _____    ______ ____
ROOT
ATOM      1  C   UNL     1       2.366   4.900  18.736  0.00  0.00    +0.000 C 
ATOM      2  C   UNL     1       2.105   3.596  17.984  0.00  0.00    +0.000 C 
ATOM      3  C   UNL     1       1.011   2.960  18.811  0.00  0.00    +0.000 C 
ATOM      4  N   UNL     1       1.411   3.214  20.196  0.00  0.00    +0.000 NA
ATOM      5  C   UNL     1       2.089   4.541  20.213  0.00  0.00    +0.000 C 
ATOM      6  H   UNL     1       2.097   2.512  20.475  0.00  0.00    +0.000 HD
ENDROOT
BRANCH   1  10
ATOM      7  C   UNL     1       6.265   6.471  17.686  0.00  0.00    +0.000 A 
ATOM      8  C   UNL     1       5.106   6.947  17.068  0.00  0.00    +0.000 A 
ATOM      9  C   UNL     1       3.852   6.466  17.439  0.00  0.00    +0.000 A 
ATOM     10  C   UNL     1       3.727   5.485  18.436  0.00  0.00    +0.000 A 
ATOM     11  C   UNL     1       4.887   5.036  19.079  0.00  0.00    +0.000 A 
ATOM     12  C   UNL     1       6.146   5.520  18.705  0.00  0.00    +0.000 A 
BRANCH   7  13
ATOM     13  C   UNL     1       7.625   6.947  17.240  0.00  0.00    +0.000 C 
BRANCH  13  14
ATOM     14  C   UNL     1       8.276   7.871  18.267  0.00  0.00    +0.000 C 
BRANCH  14  15
ATOM     15  C   UNL     1       8.006   9.338  17.943  0.00  0.00    +0.000 C 
BRANCH  15  16
ATOM     16  C   UNL     1       9.077  10.225  18.571  0.00  0.00    +0.000 C 
BRANCH  16  17
ATOM     17  C   UNL     1       9.153  11.579  17.874  0.00  0.00    +0.000 C 
BRANCH  17  18
ATOM     18  C   UNL     1       9.867  12.600  18.757  0.00  0.00    +0.000 C 
BRANCH  18  20
ATOM     19  C   UNL     1      11.346  13.216  16.824  0.00  0.00    +0.000 C 
ATOM     20  C   UNL     1      10.443  13.742  17.926  0.00  0.00    +0.000 C 
ENDBRANCH  18  20
ENDBRANCH  17  18
ENDBRANCH  16  17
ENDBRANCH  15  16
ENDBRANCH  14  15
ENDBRANCH  13  14
ENDBRANCH   7  13
ENDBRANCH   1  10
BRANCH   5  21
ATOM     21  C   UNL     1       1.205   5.613  20.887  0.00  0.00    +0.000 C 
BRANCH  21  22
ATOM     22  O   UNL     1       1.769   6.915  20.698  0.00  0.00    +0.000 OA
BRANCH  22  23
ATOM     23  C   UNL     1       0.835   7.949  21.009  0.00  0.00    +0.000 C 
BRANCH  23  24
ATOM     24  C   UNL     1       1.080   9.146  20.088  0.00  0.00    +0.000 C 
BRANCH  24  25
ATOM     25  C   UNL     1      -0.031  10.191  20.232  0.00  0.00    +0.000 C 
BRANCH  25  26
ATOM     26  C   UNL     1      -0.368  10.939  18.925  0.00  0.00    +0.000 C 
BRANCH  26  27
ATOM     27  C   UNL     1      -1.839  11.226  18.758  0.00  0.00    +0.000 A 
ATOM     28  C   UNL     1      -2.522  12.105  19.578  0.00  0.00    +0.000 A 
ATOM     29  N   UNL     1      -3.830  12.394  19.475  0.00  0.00    +0.000 NA
ATOM     30  C   UNL     1      -4.491  11.764  18.504  0.00  0.00    +0.000 A 
ATOM     31  N   UNL     1      -3.955  10.886  17.652  0.00  0.00    +0.000 NA
ATOM     32  C   UNL     1      -2.639  10.626  17.801  0.00  0.00    +0.000 A 
BRANCH  32  33
ATOM     33  O   UNL     1      -2.063   9.718  16.932  0.00  0.00    +0.000 OA
ATOM     34  C   UNL     1      -2.663   9.728  15.632  0.00  0.00    +0.000 C 
ENDBRANCH  32  33
BRANCH  30  35
ATOM     35  O   UNL     1      -5.827  12.085  18.417  0.00  0.00    +0.000 OA
ATOM     36  C   UNL     1      -6.678  10.969  18.631  0.00  0.00    +0.000 C 
ENDBRANCH  30  35
ENDBRANCH  26  27
BRANCH  26  37
ATOM     37  O   UNL     1       0.075  10.160  17.815  0.00  0.00    +0.000 OA
ATOM     38  H   UNL     1      -0.668   9.607  17.518  0.00  0.00    +0.000 HD
ENDBRANCH  26  37
ENDBRANCH  25  26
ENDBRANCH  24  25
ENDBRANCH  23  24
ENDBRANCH  22  23
ENDBRANCH  21  22
ENDBRANCH   5  21
TORSDOF 18
ENDMDL
MODEL 5
REMARK VINA RESULT:      -6.7      4.901     10.621
REMARK  Name = 
REMARK  21 active torsions:
REMARK  status: ('A' for Active; 'I' for Inactive)
REMARK    1  A    between atoms: C_1  and  C_2
REMARK    2  A    between atoms: C_2  and  C_3
REMARK    3  A    between atoms: C_3  and  C_4
REMARK    4  A    between atoms: C_4  and  C_5
REMARK    5  A    between atoms: C_5  and  C_6
REMARK    6  A    between atoms: C_6  and  C_7
REMARK    7  A    between atoms: C_7  and  C_8
REMARK    8  A    between atoms: C_8  and  C_9
REMARK    9  A    between atoms: C_12  and  C_13
REMARK   10  A    between atoms: C_17  and  C_18
REMARK   11  A    between atoms: C_18  and  O_19
REMARK   12  A    between atoms: O_19  and  C_20
REMARK   13  A    between atoms: C_20  and  C_21
REMARK   14  A    between atoms: C_21  and  C_22
REMARK   15  A    between atoms: C_22  and  C_23
REMARK   16  A    between atoms: C_23  and  O_24
REMARK   17  A    between atoms: C_23  and  C_25
REMARK   18  A    between atoms: C_28  and  O_29
REMARK   19  A    between atoms: O_29  and  C_30
REMARK   20  A    between atoms: C_32  and  O_33
REMARK   21  A    between atoms: O_33  and  C_34
REMARK                            x       y       z     vdW  Elec       q    Type
REMARK                         _______ _______ _______ _____ _____    ______ ____
ROOT
ATOM      1  C   UNL     1       2.472   3.704  19.593  0.00  0.00    +0.000 C 
ATOM      2  C   UNL     1       2.490   2.252  20.070  0.00  0.00    +0.000 C 
ATOM      3  C   UNL     1       1.695   2.325  21.354  0.00  0.00    +0.000 C 
ATOM      4  N   UNL     1       2.156   3.558  21.994  0.00  0.00    +0.000 NA
ATOM      5  C   UNL     1       2.455   4.526  20.901  0.00  0.00    +0.000 C 
ATOM      6  H   UNL     1       3.028   3.368  22.487  0.00  0.00    +0.000 HD
ENDROOT
BRANCH   1  10
ATOM      7  C   UNL     1       5.694   4.382  16.777  0.00  0.00    +0.000 A 
ATOM      8  C   UNL     1       4.413   4.041  16.337  0.00  0.00    +0.000 A 
ATOM      9  C   UNL     1       3.372   3.864  17.246  0.00  0.00    +0.000 A 
ATOM     10  C   UNL     1       3.591   4.015  18.625  0.00  0.00    +0.000 A 
ATOM     11  C   UNL     1       4.867   4.391  19.060  0.00  0.00    +0.000 A 
ATOM     12  C   UNL     1       5.912   4.569  18.146  0.00  0.00    +0.000 A 
BRANCH   7  13
ATOM     13  C   UNL     1       6.834   4.512  15.797  0.00  0.00    +0.000 C 
BRANCH  13  14
ATOM     14  C   UNL     1       6.354   4.933  14.409  0.00  0.00    +0.000 C 
BRANCH  14  15
ATOM     15  C   UNL     1       7.486   4.868  13.387  0.00  0.00    +0.000 C 
BRANCH  15  16
ATOM     16  C   UNL     1       7.073   4.013  12.193  0.00  0.00    +0.000 C 
BRANCH  16  17
ATOM     17  C   UNL     1       5.935   3.066  12.558  0.00  0.00    +0.000 C 
BRANCH  17  18
ATOM     18  C   UNL     1       5.517   2.234  11.348  0.00  0.00    +0.000 C 
BRANCH  18  20
ATOM     19  C   UNL     1       6.134  -0.201  11.336  0.00  0.00    +0.000 C 
ATOM     20  C   UNL     1       6.587   1.207  10.987  0.00  0.00    +0.000 C 
ENDBRANCH  18  20
ENDBRANCH  17  18
ENDBRANCH  16  17
ENDBRANCH  15  16
ENDBRANCH  14  15
ENDBRANCH  13  14
ENDBRANCH   7  13
ENDBRANCH   1  10
BRANCH   5  21
ATOM     21  C   UNL     1       1.393   5.645  20.838  0.00  0.00    +0.000 C 
BRANCH  21  22
ATOM     22  O   UNL     1       1.934   6.811  20.206  0.00  0.00    +0.000 OA
BRANCH  22  23
ATOM     23  C   UNL     1       1.544   8.008  20.878  0.00  0.00    +0.000 C 
BRANCH  23  24
ATOM     24  C   UNL     1       1.120   9.053  19.843  0.00  0.00    +0.000 C 
BRANCH  24  25
ATOM     25  C   UNL     1      -0.046   9.902  20.360  0.00  0.00    +0.000 C 
BRANCH  25  26
ATOM     26  C   UNL     1       0.291  10.743  21.609  0.00  0.00    +0.000 C 
BRANCH  26  27
ATOM     27  C   UNL     1      -0.818  11.677  22.023  0.00  0.00    +0.000 A 
ATOM     28  C   UNL     1      -1.704  11.373  23.041  0.00  0.00    +0.000 A 
ATOM     29  N   UNL     1      -2.710  12.167  23.446  0.00  0.00    +0.000 NA
ATOM     30  C   UNL     1      -2.841  13.321  22.794  0.00  0.00    +0.000 A 
ATOM     31  N   UNL     1      -2.062  13.730  21.789  0.00  0.00    +0.000 NA
ATOM     32  C   UNL     1      -1.070  12.896  21.415  0.00  0.00    +0.000 A 
BRANCH  32  33
ATOM     33  O   UNL     1      -0.252  13.297  20.376  0.00  0.00    +0.000 OA
ATOM     34  C   UNL     1      -0.940  13.386  19.123  0.00  0.00    +0.000 C 
ENDBRANCH  32  33
BRANCH  30  35
ATOM     35  O   UNL     1      -3.874  14.116  23.236  0.00  0.00    +0.000 OA
ATOM     36  C   UNL     1      -3.643  14.655  24.528  0.00  0.00    +0.000 C 
ENDBRANCH  30  35
ENDBRANCH  26  27
BRANCH  26  37
ATOM     37  O   UNL     1       1.464  11.513  21.350  0.00  0.00    +0.000 OA
ATOM     38  H   UNL     1       1.302  12.423  21.656  0.00  0.00    +0.000 HD
ENDBRANCH  26  37
ENDBRANCH  25  26
ENDBRANCH  24  25
ENDBRANCH  23  24
ENDBRANCH  22  23
ENDBRANCH  21  22
ENDBRANCH   5  21
TORSDOF 18
ENDMDL
MODEL 6
REMARK VINA RESULT:      -6.6      5.059      8.553
REMARK  Name = 
REMARK  21 active torsions:
REMARK  status: ('A' for Active; 'I' for Inactive)
REMARK    1  A    between atoms: C_1  and  C_2
REMARK    2  A    between atoms: C_2  and  C_3
REMARK    3  A    between atoms: C_3  and  C_4
REMARK    4  A    between atoms: C_4  and  C_5
REMARK    5  A    between atoms: C_5  and  C_6
REMARK    6  A    between atoms: C_6  and  C_7
REMARK    7  A    between atoms: C_7  and  C_8
REMARK    8  A    between atoms: C_8  and  C_9
REMARK    9  A    between atoms: C_12  and  C_13
REMARK   10  A    between atoms: C_17  and  C_18
REMARK   11  A    between atoms: C_18  and  O_19
REMARK   12  A    between atoms: O_19  and  C_20
REMARK   13  A    between atoms: C_20  and  C_21
REMARK   14  A    between atoms: C_21  and  C_22
REMARK   15  A    between atoms: C_22  and  C_23
REMARK   16  A    between atoms: C_23  and  O_24
REMARK   17  A    between atoms: C_23  and  C_25
REMARK   18  A    between atoms: C_28  and  O_29
REMARK   19  A    between atoms: O_29  and  C_30
REMARK   20  A    between atoms: C_32  and  O_33
REMARK   21  A    between atoms: O_33  and  C_34
REMARK                            x       y       z     vdW  Elec       q    Type
REMARK                         _______ _______ _______ _____ _____    ______ ____
ROOT
ATOM      1  C   UNL     1       2.513   4.718  19.186  0.00  0.00    +0.000 C 
ATOM      2  C   UNL     1       2.430   3.193  19.125  0.00  0.00    +0.000 C 
ATOM      3  C   UNL     1       1.407   2.882  20.194  0.00  0.00    +0.000 C 
ATOM      4  N   UNL     1       1.747   3.789  21.292  0.00  0.00    +0.000 NA
ATOM      5  C   UNL     1       2.254   5.046  20.673  0.00  0.00    +0.000 C 
ATOM      6  H   UNL     1       2.509   3.380  21.833  0.00  0.00    +0.000 HD
ENDROOT
BRANCH   1  10
ATOM      7  C   UNL     1       6.228   6.368  17.687  0.00  0.00    +0.000 A 
ATOM      8  C   UNL     1       6.226   5.342  18.635  0.00  0.00    +0.000 A 
ATOM      9  C   UNL     1       5.028   4.788  19.082  0.00  0.00    +0.000 A 
ATOM     10  C   UNL     1       3.797   5.257  18.597  0.00  0.00    +0.000 A 
ATOM     11  C   UNL     1       3.803   6.261  17.621  0.00  0.00    +0.000 A 
ATOM     12  C   UNL     1       5.006   6.816  17.173  0.00  0.00    +0.000 A 
BRANCH   7  13
ATOM     13  C   UNL     1       7.522   7.009  17.250  0.00  0.00    +0.000 C 
BRANCH  13  14
ATOM     14  C   UNL     1       8.195   7.779  18.385  0.00  0.00    +0.000 C 
BRANCH  14  15
ATOM     15  C   UNL     1       8.319   9.263  18.051  0.00  0.00    +0.000 C 
BRANCH  15  16
ATOM     16  C   UNL     1       9.164   9.973  19.103  0.00  0.00    +0.000 C 
BRANCH  16  17
ATOM     17  C   UNL     1       9.427  11.425  18.716  0.00  0.00    +0.000 C 
BRANCH  17  18
ATOM     18  C   UNL     1      10.559  11.514  17.696  0.00  0.00    +0.000 C 
BRANCH  18  20
ATOM     19  C   UNL     1      12.168  13.226  18.583  0.00  0.00    +0.000 C 
ATOM     20  C   UNL     1      11.075  12.944  17.566  0.00  0.00    +0.000 C 
ENDBRANCH  18  20
ENDBRANCH  17  18
ENDBRANCH  16  17
ENDBRANCH  15  16
ENDBRANCH  14  15
ENDBRANCH  13  14
ENDBRANCH   7  13
ENDBRANCH   1  10
BRANCH   5  21
ATOM     21  C   UNL     1       1.232   6.194  20.817  0.00  0.00    +0.000 C 
BRANCH  21  22
ATOM     22  O   UNL     1       1.873   7.460  20.626  0.00  0.00    +0.000 OA
BRANCH  22  23
ATOM     23  C   UNL     1       1.200   8.507  21.325  0.00  0.00    +0.000 C 
BRANCH  23  24
ATOM     24  C   UNL     1       0.439   9.376  20.323  0.00  0.00    +0.000 C 
BRANCH  24  25
ATOM     25  C   UNL     1       1.000  10.802  20.289  0.00  0.00    +0.000 C 
BRANCH  25  26
ATOM     26  C   UNL     1       1.086  11.413  18.875  0.00  0.00    +0.000 C 
BRANCH  26  27
ATOM     27  C   UNL     1       0.889  12.908  18.853  0.00  0.00    +0.000 A 
ATOM     28  C   UNL     1       1.943  13.795  18.729  0.00  0.00    +0.000 A 
ATOM     29  N   UNL     1       1.823  15.133  18.708  0.00  0.00    +0.000 NA
ATOM     30  C   UNL     1       0.584  15.610  18.823  0.00  0.00    +0.000 A 
ATOM     31  N   UNL     1      -0.517  14.865  18.959  0.00  0.00    +0.000 NA
ATOM     32  C   UNL     1      -0.344  13.528  18.981  0.00  0.00    +0.000 A 
BRANCH  32  33
ATOM     33  O   UNL     1      -1.469  12.737  19.123  0.00  0.00    +0.000 OA
ATOM     34  C   UNL     1      -2.265  13.094  20.258  0.00  0.00    +0.000 C 
ENDBRANCH  32  33
BRANCH  30  35
ATOM     35  O   UNL     1       0.491  16.982  18.790  0.00  0.00    +0.000 OA
ATOM     36  C   UNL     1       1.738  17.626  18.998  0.00  0.00    +0.000 C 
ENDBRANCH  30  35
ENDBRANCH  26  27
BRANCH  26  37
ATOM     37  O   UNL     1       0.095  10.809  18.045  0.00  0.00    +0.000 OA
ATOM     38  H   UNL     1      -0.013  11.363  17.252  0.00  0.00    +0.000 HD
ENDBRANCH  26  37
ENDBRANCH  25  26
ENDBRANCH  24  25
ENDBRANCH  23  24
ENDBRANCH  22  23
ENDBRANCH  21  22
ENDBRANCH   5  21
TORSDOF 18
ENDMDL
MODEL 7
REMARK VINA RESULT:      -6.6      4.845      8.893
REMARK  Name = 
REMARK  21 active torsions:
REMARK  status: ('A' for Active; 'I' for Inactive)
REMARK    1  A    between atoms: C_1  and  C_2
REMARK    2  A    between atoms: C_2  and  C_3
REMARK    3  A    between atoms: C_3  and  C_4
REMARK    4  A    between atoms: C_4  and  C_5
REMARK    5  A    between atoms: C_5  and  C_6
REMARK    6  A    between atoms: C_6  and  C_7
REMARK    7  A    between atoms: C_7  and  C_8
REMARK    8  A    between atoms: C_8  and  C_9
REMARK    9  A    between atoms: C_12  and  C_13
REMARK   10  A    between atoms: C_17  and  C_18
REMARK   11  A    between atoms: C_18  and  O_19
REMARK   12  A    between atoms: O_19  and  C_20
REMARK   13  A    between atoms: C_20  and  C_21
REMARK   14  A    between atoms: C_21  and  C_22
REMARK   15  A    between atoms: C_22  and  C_23
REMARK   16  A    between atoms: C_23  and  O_24
REMARK   17  A    between atoms: C_23  and  C_25
REMARK   18  A    between atoms: C_28  and  O_29
REMARK   19  A    between atoms: O_29  and  C_30
REMARK   20  A    between atoms: C_32  and  O_33
REMARK   21  A    between atoms: O_33  and  C_34
REMARK                            x       y       z     vdW  Elec       q    Type
REMARK                         _______ _______ _______ _____ _____    ______ ____
ROOT
ATOM      1  C   UNL     1       2.314   5.084  19.070  0.00  0.00    +0.000 C 
ATOM      2  C   UNL     1       1.895   3.652  18.740  0.00  0.00    +0.000 C 
ATOM      3  C   UNL     1       0.809   3.392  19.759  0.00  0.00    +0.000 C 
ATOM      4  N   UNL     1       1.322   3.989  20.993  0.00  0.00    +0.000 NA
ATOM      5  C   UNL     1       2.108   5.191  20.597  0.00  0.00    +0.000 C 
ATOM      6  H   UNL     1       1.964   3.331  21.436  0.00  0.00    +0.000 HD
ENDROOT
BRANCH   1  10
ATOM      7  C   UNL     1       6.310   6.164  17.786  0.00  0.00    +0.000 A 
ATOM      8  C   UNL     1       6.108   5.232  18.808  0.00  0.00    +0.000 A 
ATOM      9  C   UNL     1       4.820   4.860  19.188  0.00  0.00    +0.000 A 
ATOM     10  C   UNL     1       3.697   5.421  18.559  0.00  0.00    +0.000 A 
ATOM     11  C   UNL     1       3.902   6.327  17.511  0.00  0.00    +0.000 A 
ATOM     12  C   UNL     1       5.196   6.700  17.131  0.00  0.00    +0.000 A 
BRANCH   7  13
ATOM     13  C   UNL     1       7.702   6.612  17.418  0.00  0.00    +0.000 C 
BRANCH  13  14
ATOM     14  C   UNL     1       8.179   7.777  18.284  0.00  0.00    +0.000 C 
BRANCH  14  15
ATOM     15  C   UNL     1       8.097   9.100  17.526  0.00  0.00    +0.000 C 
BRANCH  15  16
ATOM     16  C   UNL     1       8.307  10.270  18.482  0.00  0.00    +0.000 C 
BRANCH  16  17
ATOM     17  C   UNL     1       9.656  10.175  19.186  0.00  0.00    +0.000 C 
BRANCH  17  18
ATOM     18  C   UNL     1      10.388  11.515  19.133  0.00  0.00    +0.000 C 
BRANCH  18  20
ATOM     19  C   UNL     1      12.000  12.900  17.794  0.00  0.00    +0.000 C 
ATOM     20  C   UNL     1      11.004  11.753  17.757  0.00  0.00    +0.000 C 
ENDBRANCH  18  20
ENDBRANCH  17  18
ENDBRANCH  16  17
ENDBRANCH  15  16
ENDBRANCH  14  15
ENDBRANCH  13  14
ENDBRANCH   7  13
ENDBRANCH   1  10
BRANCH   5  21
ATOM     21  C   UNL     1       1.365   6.493  20.966  0.00  0.00    +0.000 C 
BRANCH  21  22
ATOM     22  O   UNL     1       1.967   7.614  20.310  0.00  0.00    +0.000 OA
BRANCH  22  23
ATOM     23  C   UNL     1       1.110   8.755  20.312  0.00  0.00    +0.000 C 
BRANCH  23  24
ATOM     24  C   UNL     1       1.218   9.472  18.965  0.00  0.00    +0.000 C 
BRANCH  24  25
ATOM     25  C   UNL     1      -0.112  10.125  18.577  0.00  0.00    +0.000 C 
BRANCH  25  26
ATOM     26  C   UNL     1      -0.126  11.661  18.717  0.00  0.00    +0.000 C 
BRANCH  26  27
ATOM     27  C   UNL     1      -0.611  12.139  20.063  0.00  0.00    +0.000 A 
ATOM     28  C   UNL     1      -1.948  12.364  20.333  0.00  0.00    +0.000 A 
ATOM     29  N   UNL     1      -2.433  12.792  21.511  0.00  0.00    +0.000 NA
ATOM     30  C   UNL     1      -1.531  13.014  22.467  0.00  0.00    +0.000 A 
ATOM     31  N   UNL     1      -0.212  12.847  22.333  0.00  0.00    +0.000 NA
ATOM     32  C   UNL     1       0.225  12.422  21.130  0.00  0.00    +0.000 A 
BRANCH  32  33
ATOM     33  O   UNL     1       1.587  12.244  20.968  0.00  0.00    +0.000 OA
ATOM     34  C   UNL     1       2.287  13.468  20.722  0.00  0.00    +0.000 C 
ENDBRANCH  32  33
BRANCH  30  35
ATOM     35  O   UNL     1      -2.055  13.444  23.664  0.00  0.00    +0.000 OA
ATOM     36  C   UNL     1      -1.903  14.841  23.864  0.00  0.00    +0.000 C 
ENDBRANCH  30  35
ENDBRANCH  26  27
BRANCH  26  37
ATOM     37  O   UNL     1      -0.966  12.215  17.706  0.00  0.00    +0.000 OA
ATOM     38  H   UNL     1      -0.763  13.164  17.631  0.00  0.00    +0.000 HD
ENDBRANCH  26  37
ENDBRANCH  25  26
ENDBRANCH  24  25
ENDBRANCH  23  24
ENDBRANCH  22  23
ENDBRANCH  21  22
ENDBRANCH   5  21
TORSDOF 18
ENDMDL
MODEL 8
REMARK VINA RESULT:      -6.6      6.065     11.064
REMARK  Name = 
REMARK  21 active torsions:
REMARK  status: ('A' for Active; 'I' for Inactive)
REMARK    1  A    between atoms: C_1  and  C_2
REMARK    2  A    between atoms: C_2  and  C_3
REMARK    3  A    between atoms: C_3  and  C_4
REMARK    4  A    between atoms: C_4  and  C_5
REMARK    5  A    between atoms: C_5  and  C_6
REMARK    6  A    between atoms: C_6  and  C_7
REMARK    7  A    between atoms: C_7  and  C_8
REMARK    8  A    between atoms: C_8  and  C_9
REMARK    9  A    between atoms: C_12  and  C_13
REMARK   10  A    between atoms: C_17  and  C_18
REMARK   11  A    between atoms: C_18  and  O_19
REMARK   12  A    between atoms: O_19  and  C_20
REMARK   13  A    between atoms: C_20  and  C_21
REMARK   14  A    between atoms: C_21  and  C_22
REMARK   15  A    between atoms: C_22  and  C_23
REMARK   16  A    between atoms: C_23  and  O_24
REMARK   17  A    between atoms: C_23  and  C_25
REMARK   18  A    between atoms: C_28  and  O_29
REMARK   19  A    between atoms: O_29  and  C_30
REMARK   20  A    between atoms: C_32  and  O_33
REMARK   21  A    between atoms: O_33  and  C_34
REMARK                            x       y       z     vdW  Elec       q    Type
REMARK                         _______ _______ _______ _____ _____    ______ ____
ROOT
ATOM      1  C   UNL     1       0.726   8.885  20.571  0.00  0.00    +0.000 C 
ATOM      2  C   UNL     1       1.158   9.437  21.929  0.00  0.00    +0.000 C 
ATOM      3  C   UNL     1       0.725  10.883  21.842  0.00  0.00    +0.000 C 
ATOM      4  N   UNL     1       1.078  11.284  20.480  0.00  0.00    +0.000 NA
ATOM      5  C   UNL     1       0.884  10.087  19.613  0.00  0.00    +0.000 C 
ATOM      6  H   UNL     1       2.068  11.528  20.454  0.00  0.00    +0.000 HD
ENDROOT
BRANCH   1  10
ATOM      7  C   UNL     1       2.992   5.310  19.646  0.00  0.00    +0.000 A 
ATOM      8  C   UNL     1       2.120   5.348  20.737  0.00  0.00    +0.000 A 
ATOM      9  C   UNL     1       1.364   6.488  21.004  0.00  0.00    +0.000 A 
ATOM     10  C   UNL     1       1.470   7.626  20.189  0.00  0.00    +0.000 A 
ATOM     11  C   UNL     1       2.318   7.572  19.075  0.00  0.00    +0.000 A 
ATOM     12  C   UNL     1       3.075   6.427  18.807  0.00  0.00    +0.000 A 
BRANCH   7  13
ATOM     13  C   UNL     1       3.855   4.098  19.393  0.00  0.00    +0.000 C 
BRANCH  13  14
ATOM     14  C   UNL     1       4.095   3.864  17.903  0.00  0.00    +0.000 C 
BRANCH  14  15
ATOM     15  C   UNL     1       5.546   4.150  17.523  0.00  0.00    +0.000 C 
BRANCH  15  16
ATOM     16  C   UNL     1       5.605   5.182  16.402  0.00  0.00    +0.000 C 
BRANCH  16  17
ATOM     17  C   UNL     1       6.797   6.118  16.573  0.00  0.00    +0.000 C 
BRANCH  17  18
ATOM     18  C   UNL     1       7.546   5.807  17.867  0.00  0.00    +0.000 C 
BRANCH  18  20
ATOM     19  C   UNL     1       7.816   8.294  17.647  0.00  0.00    +0.000 C 
ATOM     20  C   UNL     1       8.052   7.083  18.533  0.00  0.00    +0.000 C 
ENDBRANCH  18  20
ENDBRANCH  17  18
ENDBRANCH  16  17
ENDBRANCH  15  16
ENDBRANCH  14  15
ENDBRANCH  13  14
ENDBRANCH   7  13
ENDBRANCH   1  10
BRANCH   5  21
ATOM     21  C   UNL     1      -0.360  10.243  18.712  0.00  0.00    +0.000 C 
BRANCH  21  22
ATOM     22  O   UNL     1      -1.058  11.453  19.030  0.00  0.00    +0.000 OA
BRANCH  22  23
ATOM     23  C   UNL     1      -1.793  11.951  17.912  0.00  0.00    +0.000 C 
BRANCH  23  24
ATOM     24  C   UNL     1      -2.366  10.774  17.119  0.00  0.00    +0.000 C 
BRANCH  24  25
ATOM     25  C   UNL     1      -3.771  10.409  17.609  0.00  0.00    +0.000 C 
BRANCH  25  26
ATOM     26  C   UNL     1      -4.719  11.616  17.768  0.00  0.00    +0.000 C 
BRANCH  26  27
ATOM     27  C   UNL     1      -5.553  11.566  19.024  0.00  0.00    +0.000 A 
ATOM     28  C   UNL     1      -6.703  10.805  19.121  0.00  0.00    +0.000 A 
ATOM     29  N   UNL     1      -7.483  10.728  20.213  0.00  0.00    +0.000 NA
ATOM     30  C   UNL     1      -7.096  11.456  21.259  0.00  0.00    +0.000 A 
ATOM     31  N   UNL     1      -6.015  12.240  21.293  0.00  0.00    +0.000 NA
ATOM     32  C   UNL     1      -5.267  12.288  20.171  0.00  0.00    +0.000 A 
BRANCH  32  33
ATOM     33  O   UNL     1      -4.145  13.094  20.182  0.00  0.00    +0.000 OA
ATOM     34  C   UNL     1      -4.176  14.085  21.214  0.00  0.00    +0.000 C 
ENDBRANCH  32  33
BRANCH  30  35
ATOM     35  O   UNL     1      -7.909  11.352  22.365  0.00  0.00    +0.000 OA
ATOM     36  C   UNL     1      -7.502  12.196  23.431  0.00  0.00    +0.000 C 
ENDBRANCH  30  35
ENDBRANCH  26  27
BRANCH  26  37
ATOM     37  O   UNL     1      -5.592  11.675  16.642  0.00  0.00    +0.000 OA
ATOM     38  H   UNL     1      -5.168  11.200  15.906  0.00  0.00    +0.000 HD
ENDBRANCH  26  37
ENDBRANCH  25  26
ENDBRANCH  24  25
ENDBRANCH  23  24
ENDBRANCH  22  23
ENDBRANCH  21  22
ENDBRANCH   5  21
TORSDOF 18
ENDMDL
MODEL 9
REMARK VINA RESULT:      -6.5      6.130     11.492
REMARK  Name = 
REMARK  21 active torsions:
REMARK  status: ('A' for Active; 'I' for Inactive)
REMARK    1  A    between atoms: C_1  and  C_2
REMARK    2  A    between atoms: C_2  and  C_3
REMARK    3  A    between atoms: C_3  and  C_4
REMARK    4  A    between atoms: C_4  and  C_5
REMARK    5  A    between atoms: C_5  and  C_6
REMARK    6  A    between atoms: C_6  and  C_7
REMARK    7  A    between atoms: C_7  and  C_8
REMARK    8  A    between atoms: C_8  and  C_9
REMARK    9  A    between atoms: C_12  and  C_13
REMARK   10  A    between atoms: C_17  and  C_18
REMARK   11  A    between atoms: C_18  and  O_19
REMARK   12  A    between atoms: O_19  and  C_20
REMARK   13  A    between atoms: C_20  and  C_21
REMARK   14  A    between atoms: C_21  and  C_22
REMARK   15  A    between atoms: C_22  and  C_23
REMARK   16  A    between atoms: C_23  and  O_24
REMARK   17  A    between atoms: C_23  and  C_25
REMARK   18  A    between atoms: C_28  and  O_29
REMARK   19  A    between atoms: O_29  and  C_30
REMARK   20  A    between atoms: C_32  and  O_33
REMARK   21  A    between atoms: O_33  and  C_34
REMARK                            x       y       z     vdW  Elec       q    Type
REMARK                         _______ _______ _______ _____ _____    ______ ____
ROOT
ATOM      1  C   UNL     1       0.262   9.407  20.595  0.00  0.00    +0.000 C 
ATOM      2  C   UNL     1      -0.248   8.663  21.828  0.00  0.00    +0.000 C 
ATOM      3  C   UNL     1      -0.684   9.795  22.731  0.00  0.00    +0.000 C 
ATOM      4  N   UNL     1       0.365  10.804  22.576  0.00  0.00    +0.000 NA
ATOM      5  C   UNL     1       0.837  10.723  21.165  0.00  0.00    +0.000 C 
ATOM      6  H   UNL     1       1.150  10.559  23.180  0.00  0.00    +0.000 HD
ENDROOT
BRANCH   1  10
ATOM      7  C   UNL     1       3.130   7.083  18.327  0.00  0.00    +0.000 A 
ATOM      8  C   UNL     1       2.720   6.678  19.599  0.00  0.00    +0.000 A 
ATOM      9  C   UNL     1       1.767   7.409  20.306  0.00  0.00    +0.000 A 
ATOM     10  C   UNL     1       1.206   8.574  19.758  0.00  0.00    +0.000 A 
ATOM     11  C   UNL     1       1.592   8.958  18.468  0.00  0.00    +0.000 A 
ATOM     12  C   UNL     1       2.549   8.223  17.760  0.00  0.00    +0.000 A 
BRANCH   7  13
ATOM     13  C   UNL     1       4.207   6.327  17.589  0.00  0.00    +0.000 C 
BRANCH  13  14
ATOM     14  C   UNL     1       5.065   5.484  18.530  0.00  0.00    +0.000 C 
BRANCH  14  15
ATOM     15  C   UNL     1       4.828   3.992  18.310  0.00  0.00    +0.000 C 
BRANCH  15  16
ATOM     16  C   UNL     1       3.758   3.778  17.245  0.00  0.00    +0.000 C 
BRANCH  16  17
ATOM     17  C   UNL     1       2.679   2.815  17.728  0.00  0.00    +0.000 C 
BRANCH  17  18
ATOM     18  C   UNL     1       1.380   3.563  18.021  0.00  0.00    +0.000 C 
BRANCH  18  20
ATOM     19  C   UNL     1       1.837   2.512  20.255  0.00  0.00    +0.000 C 
ATOM     20  C   UNL     1       1.100   3.618  19.519  0.00  0.00    +0.000 C 
ENDBRANCH  18  20
ENDBRANCH  17  18
ENDBRANCH  16  17
ENDBRANCH  15  16
ENDBRANCH  14  15
ENDBRANCH  13  14
ENDBRANCH   7  13
ENDBRANCH   1  10
BRANCH   5  21
ATOM     21  C   UNL     1       0.358  11.938  20.342  0.00  0.00    +0.000 C 
BRANCH  21  22
ATOM     22  O   UNL     1      -0.313  11.504  19.155  0.00  0.00    +0.000 OA
BRANCH  22  23
ATOM     23  C   UNL     1      -1.724  11.405  19.347  0.00  0.00    +0.000 C 
BRANCH  23  24
ATOM     24  C   UNL     1      -2.271  12.766  19.785  0.00  0.00    +0.000 C 
BRANCH  24  25
ATOM     25  C   UNL     1      -3.745  12.664  20.193  0.00  0.00    +0.000 C 
BRANCH  25  26
ATOM     26  C   UNL     1      -4.247  13.849  21.043  0.00  0.00    +0.000 C 
BRANCH  26  27
ATOM     27  C   UNL     1      -3.281  14.269  22.123  0.00  0.00    +0.000 A 
ATOM     28  C   UNL     1      -2.509  15.412  22.025  0.00  0.00    +0.000 A 
ATOM     29  N   UNL     1      -1.632  15.829  22.954  0.00  0.00    +0.000 NA
ATOM     30  C   UNL     1      -1.515  15.057  24.033  0.00  0.00    +0.000 A 
ATOM     31  N   UNL     1      -2.191  13.925  24.246  0.00  0.00    +0.000 NA
ATOM     32  C   UNL     1      -3.055  13.546  23.282  0.00  0.00    +0.000 A 
BRANCH  32  33
ATOM     33  O   UNL     1      -3.764  12.376  23.480  0.00  0.00    +0.000 OA
ATOM     34  C   UNL     1      -4.492  12.362  24.713  0.00  0.00    +0.000 C 
ENDBRANCH  32  33
BRANCH  30  35
ATOM     35  O   UNL     1      -0.616  15.512  24.970  0.00  0.00    +0.000 OA
ATOM     36  C   UNL     1      -1.195  15.680  26.255  0.00  0.00    +0.000 C 
ENDBRANCH  30  35
ENDBRANCH  26  27
BRANCH  26  37
ATOM     37  O   UNL     1      -5.487  13.493  21.653  0.00  0.00    +0.000 OA
ATOM     38  H   UNL     1      -5.327  13.351  22.603  0.00  0.00    +0.000 HD
ENDBRANCH  26  37
ENDBRANCH  25  26
ENDBRANCH  24  25
ENDBRANCH  23  24
ENDBRANCH  22  23
ENDBRANCH  21  22
ENDBRANCH   5  21
TORSDOF 18
ENDMDL
