MODEL 1
REMARK VINA RESULT:      -5.3      0.000      0.000
REMARK  Name = 
REMARK  3 active torsions:
REMARK  status: ('A' for Active; 'I' for Inactive)
REMARK    1  A    between atoms: C_1  and  C_2
REMARK    2  A    between atoms: C_2  and  N_3
REMARK    3  A    between atoms: C_4  and  N_5
REMARK                            x       y       z     vdW  Elec       q    Type
REMARK                         _______ _______ _______ _____ _____    ______ ____
ROOT
ATOM      1  N   UNL     1       3.033   3.077  18.711  0.00  0.00    +0.000 N 
ATOM      2  C   UNL     1       3.785   2.727  19.828  0.00  0.00    +0.000 A 
ATOM      3  C   UNL     1       3.163   2.568  21.006  0.00  0.00    +0.000 A 
ATOM      4  C   UNL     1       1.713   2.750  21.130  0.00  0.00    +0.000 A 
ATOM      5  O   UNL     1       1.142   2.577  22.199  0.00  0.00    +0.000 OA
ATOM      6  N   UNL     1       1.071   3.118  19.992  0.00  0.00    +0.000 N 
ATOM      7  C   UNL     1       1.657   3.304  18.776  0.00  0.00    +0.000 A 
ATOM      8  O   UNL     1       0.966   3.646  17.819  0.00  0.00    +0.000 OA
ATOM      9  H   UNL     1       0.072   3.245  20.041  0.00  0.00    +0.000 HD
ENDROOT
BRANCH   2  10
ATOM     10  N   UNL     1       5.151   2.524  19.767  0.00  0.00    +0.000 N 
ATOM     11  H   UNL     1       5.577   2.879  18.917  0.00  0.00    +0.000 HD
ATOM     12  H   UNL     1       5.653   2.836  20.595  0.00  0.00    +0.000 HD
ENDBRANCH   2  10
BRANCH   1  14
ATOM     13  C   UNL     1       4.195   4.579  17.103  0.00  0.00    +0.000 C 
ATOM     14  C   UNL     1       3.651   3.185  17.385  0.00  0.00    +0.000 C 
ENDBRANCH   1  14
TORSDOF 2
ENDMDL
MODEL 2
REMARK VINA RESULT:      -5.3      2.298      4.372
REMARK  Name = 
REMARK  3 active torsions:
REMARK  status: ('A' for Active; 'I' for Inactive)
REMARK    1  A    between atoms: C_1  and  C_2
REMARK    2  A    between atoms: C_2  and  N_3
REMARK    3  A    between atoms: C_4  and  N_5
REMARK                            x       y       z     vdW  Elec       q    Type
REMARK                         _______ _______ _______ _____ _____    ______ ____
ROOT
ATOM      1  N   UNL     1       3.123   3.110  19.146  0.00  0.00    +0.000 N 
ATOM      2  C   UNL     1       2.840   4.008  18.123  0.00  0.00    +0.000 A 
ATOM      3  C   UNL     1       3.857   4.611  17.487  0.00  0.00    +0.000 A 
ATOM      4  C   UNL     1       5.251   4.334  17.851  0.00  0.00    +0.000 A 
ATOM      5  O   UNL     1       6.178   4.862  17.252  0.00  0.00    +0.000 OA
ATOM      6  N   UNL     1       5.425   3.466  18.880  0.00  0.00    +0.000 N 
ATOM      7  C   UNL     1       4.427   2.837  19.564  0.00  0.00    +0.000 A 
ATOM      8  O   UNL     1       4.714   2.077  20.485  0.00  0.00    +0.000 OA
ATOM      9  H   UNL     1       6.370   3.248  19.151  0.00  0.00    +0.000 HD
ENDROOT
BRANCH   2  10
ATOM     10  N   UNL     1       1.548   4.293  17.724  0.00  0.00    +0.000 N 
ATOM     11  H   UNL     1       1.266   5.250  17.913  0.00  0.00    +0.000 HD
ATOM     12  H   UNL     1       1.343   4.027  16.764  0.00  0.00    +0.000 HD
ENDBRANCH   2  10
BRANCH   1  14
ATOM     13  C   UNL     1       1.478   3.113  21.013  0.00  0.00    +0.000 C 
ATOM     14  C   UNL     1       2.053   2.365  19.818  0.00  0.00    +0.000 C 
ENDBRANCH   1  14
TORSDOF 2
ENDMDL
MODEL 3
REMARK VINA RESULT:      -5.3      2.713      4.088
REMARK  Name = 
REMARK  3 active torsions:
REMARK  status: ('A' for Active; 'I' for Inactive)
REMARK    1  A    between atoms: C_1  and  C_2
REMARK    2  A    between atoms: C_2  and  N_3
REMARK    3  A    between atoms: C_4  and  N_5
REMARK                            x       y       z     vdW  Elec       q    Type
REMARK                         _______ _______ _______ _____ _____    ______ ____
ROOT
ATOM      1  N   UNL     1       3.029   3.834  19.479  0.00  0.00    +0.000 N 
ATOM      2  C   UNL     1       3.503   5.128  19.664  0.00  0.00    +0.000 A 
ATOM      3  C   UNL     1       4.787   5.397  19.379  0.00  0.00    +0.000 A 
ATOM      4  C   UNL     1       5.686   4.354  18.873  0.00  0.00    +0.000 A 
ATOM      5  O   UNL     1       6.849   4.605  18.586  0.00  0.00    +0.000 OA
ATOM      6  N   UNL     1       5.139   3.118  18.753  0.00  0.00    +0.000 N 
ATOM      7  C   UNL     1       3.847   2.791  19.040  0.00  0.00    +0.000 A 
ATOM      8  O   UNL     1       3.472   1.630  18.897  0.00  0.00    +0.000 OA
ATOM      9  H   UNL     1       5.728   2.380  18.402  0.00  0.00    +0.000 HD
ENDROOT
BRANCH   2  10
ATOM     10  N   UNL     1       2.697   6.154  20.119  0.00  0.00    +0.000 N 
ATOM     11  H   UNL     1       1.708   6.002  19.949  0.00  0.00    +0.000 HD
ATOM     12  H   UNL     1       2.872   6.420  21.086  0.00  0.00    +0.000 HD
ENDBRANCH   2  10
BRANCH   1  14
ATOM     13  C   UNL     1       1.337   3.039  21.122  0.00  0.00    +0.000 C 
ATOM     14  C   UNL     1       1.616   3.506  19.701  0.00  0.00    +0.000 C 
ENDBRANCH   1  14
TORSDOF 2
ENDMDL
MODEL 4
REMARK VINA RESULT:      -5.1      2.033      2.918
REMARK  Name = 
REMARK  3 active torsions:
REMARK  status: ('A' for Active; 'I' for Inactive)
REMARK    1  A    between atoms: C_1  and  C_2
REMARK    2  A    between atoms: C_2  and  N_3
REMARK    3  A    between atoms: C_4  and  N_5
REMARK                            x       y       z     vdW  Elec       q    Type
REMARK                         _______ _______ _______ _____ _____    ______ ____
ROOT
ATOM      1  N   UNL     1       2.770   3.667  18.831  0.00  0.00    +0.000 N 
ATOM      2  C   UNL     1       2.262   3.241  20.054  0.00  0.00    +0.000 A 
ATOM      3  C   UNL     1       3.052   2.530  20.874  0.00  0.00    +0.000 A 
ATOM      4  C   UNL     1       4.433   2.204  20.503  0.00  0.00    +0.000 A 
ATOM      5  O   UNL     1       5.162   1.580  21.263  0.00  0.00    +0.000 OA
ATOM      6  N   UNL     1       4.828   2.637  19.279  0.00  0.00    +0.000 N 
ATOM      7  C   UNL     1       4.062   3.352  18.406  0.00  0.00    +0.000 A 
ATOM      8  O   UNL     1       4.533   3.681  17.321  0.00  0.00    +0.000 OA
ATOM      9  H   UNL     1       5.773   2.436  18.996  0.00  0.00    +0.000 HD
ENDROOT
BRANCH   2  10
ATOM     10  N   UNL     1       0.976   3.536  20.465  0.00  0.00    +0.000 N 
ATOM     11  H   UNL     1       0.630   2.921  21.194  0.00  0.00    +0.000 HD
ATOM     12  H   UNL     1       0.831   4.515  20.704  0.00  0.00    +0.000 HD
ENDBRANCH   2  10
BRANCH   1  14
ATOM     13  C   UNL     1       2.243   5.997  18.138  0.00  0.00    +0.000 C 
ATOM     14  C   UNL     1       1.976   4.513  17.934  0.00  0.00    +0.000 C 
ENDBRANCH   1  14
TORSDOF 2
ENDMDL
MODEL 5
REMARK VINA RESULT:      -5.1      1.957      3.578
REMARK  Name = 
REMARK  3 active torsions:
REMARK  status: ('A' for Active; 'I' for Inactive)
REMARK    1  A    between atoms: C_1  and  C_2
REMARK    2  A    between atoms: C_2  and  N_3
REMARK    3  A    between atoms: C_4  and  N_5
REMARK                            x       y       z     vdW  Elec       q    Type
REMARK                         _______ _______ _______ _____ _____    ______ ____
ROOT
ATOM      1  N   UNL     1       3.011   3.181  18.776  0.00  0.00    +0.000 N 
ATOM      2  C   UNL     1       4.348   3.177  19.158  0.00  0.00    +0.000 A 
ATOM      3  C   UNL     1       5.158   4.146  18.701  0.00  0.00    +0.000 A 
ATOM      4  C   UNL     1       4.653   5.202  17.818  0.00  0.00    +0.000 A 
ATOM      5  O   UNL     1       5.385   6.101  17.424  0.00  0.00    +0.000 OA
ATOM      6  N   UNL     1       3.343   5.105  17.479  0.00  0.00    +0.000 N 
ATOM      7  C   UNL     1       2.483   4.137  17.906  0.00  0.00    +0.000 A 
ATOM      8  O   UNL     1       1.317   4.153  17.521  0.00  0.00    +0.000 OA
ATOM      9  H   UNL     1       2.963   5.819  16.879  0.00  0.00    +0.000 HD
ENDROOT
BRANCH   2  10
ATOM     10  N   UNL     1       4.874   2.218  20.003  0.00  0.00    +0.000 N 
ATOM     11  H   UNL     1       5.640   2.557  20.577  0.00  0.00    +0.000 HD
ATOM     12  H   UNL     1       4.177   1.732  20.562  0.00  0.00    +0.000 HD
ENDBRANCH   2  10
BRANCH   1  14
ATOM     13  C   UNL     1       1.391   2.659  20.591  0.00  0.00    +0.000 C 
ATOM     14  C   UNL     1       2.068   2.193  19.310  0.00  0.00    +0.000 C 
ENDBRANCH   1  14
TORSDOF 2
ENDMDL
MODEL 6
REMARK VINA RESULT:      -5.1      4.377      6.388
REMARK  Name = 
REMARK  3 active torsions:
REMARK  status: ('A' for Active; 'I' for Inactive)
REMARK    1  A    between atoms: C_1  and  C_2
REMARK    2  A    between atoms: C_2  and  N_3
REMARK    3  A    between atoms: C_4  and  N_5
REMARK                            x       y       z     vdW  Elec       q    Type
REMARK                         _______ _______ _______ _____ _____    ______ ____
ROOT
ATOM      1  N   UNL     1       6.059   5.127  17.742  0.00  0.00    +0.000 N 
ATOM      2  C   UNL     1       5.186   5.634  16.786  0.00  0.00    +0.000 A 
ATOM      3  C   UNL     1       5.572   5.663  15.501  0.00  0.00    +0.000 A 
ATOM      4  C   UNL     1       6.890   5.164  15.094  0.00  0.00    +0.000 A 
ATOM      5  O   UNL     1       7.231   5.164  13.919  0.00  0.00    +0.000 OA
ATOM      6  N   UNL     1       7.682   4.715  16.101  0.00  0.00    +0.000 N 
ATOM      7  C   UNL     1       7.341   4.676  17.420  0.00  0.00    +0.000 A 
ATOM      8  O   UNL     1       8.152   4.252  18.240  0.00  0.00    +0.000 OA
ATOM      9  H   UNL     1       8.591   4.358  15.854  0.00  0.00    +0.000 HD
ENDROOT
BRANCH   2  10
ATOM     10  N   UNL     1       3.925   6.100  17.109  0.00  0.00    +0.000 N 
ATOM     11  H   UNL     1       3.193   5.748  16.501  0.00  0.00    +0.000 HD
ATOM     12  H   UNL     1       3.680   5.986  18.090  0.00  0.00    +0.000 HD
ENDBRANCH   2  10
BRANCH   1  14
ATOM     13  C   UNL     1       4.829   3.750  19.409  0.00  0.00    +0.000 C 
ATOM     14  C   UNL     1       5.656   5.000  19.146  0.00  0.00    +0.000 C 
ENDBRANCH   1  14
TORSDOF 2
ENDMDL
MODEL 7
REMARK VINA RESULT:      -5.1      3.366      5.113
REMARK  Name = 
REMARK  3 active torsions:
REMARK  status: ('A' for Active; 'I' for Inactive)
REMARK    1  A    between atoms: C_1  and  C_2
REMARK    2  A    between atoms: C_2  and  N_3
REMARK    3  A    between atoms: C_4  and  N_5
REMARK                            x       y       z     vdW  Elec       q    Type
REMARK                         _______ _______ _______ _____ _____    ______ ____
ROOT
ATOM      1  N   UNL     1       4.326   5.113  18.632  0.00  0.00    +0.000 N 
ATOM      2  C   UNL     1       4.690   6.102  17.724  0.00  0.00    +0.000 A 
ATOM      3  C   UNL     1       5.853   5.982  17.064  0.00  0.00    +0.000 A 
ATOM      4  C   UNL     1       6.733   4.829  17.280  0.00  0.00    +0.000 A 
ATOM      5  O   UNL     1       7.779   4.705  16.657  0.00  0.00    +0.000 OA
ATOM      6  N   UNL     1       6.306   3.932  18.205  0.00  0.00    +0.000 N 
ATOM      7  C   UNL     1       5.141   4.014  18.910  0.00  0.00    +0.000 A 
ATOM      8  O   UNL     1       4.869   3.140  19.728  0.00  0.00    +0.000 OA
ATOM      9  H   UNL     1       6.884   3.125  18.373  0.00  0.00    +0.000 HD
ENDROOT
BRANCH   2  10
ATOM     10  N   UNL     1       3.892   7.200  17.465  0.00  0.00    +0.000 N 
ATOM     11  H   UNL     1       2.976   7.148  17.899  0.00  0.00    +0.000 HD
ATOM     12  H   UNL     1       4.343   8.093  17.653  0.00  0.00    +0.000 HD
ENDBRANCH   2  10
BRANCH   1  14
ATOM     13  C   UNL     1       1.916   4.506  18.513  0.00  0.00    +0.000 C 
ATOM     14  C   UNL     1       3.031   5.156  19.320  0.00  0.00    +0.000 C 
ENDBRANCH   1  14
TORSDOF 2
ENDMDL
MODEL 8
REMARK VINA RESULT:      -5.1      4.257      5.462
REMARK  Name = 
REMARK  3 active torsions:
REMARK  status: ('A' for Active; 'I' for Inactive)
REMARK    1  A    between atoms: C_1  and  C_2
REMARK    2  A    between atoms: C_2  and  N_3
REMARK    3  A    between atoms: C_4  and  N_5
REMARK                            x       y       z     vdW  Elec       q    Type
REMARK                         _______ _______ _______ _____ _____    ______ ____
ROOT
ATOM      1  N   UNL     1       5.494   4.984  17.134  0.00  0.00    +0.000 N 
ATOM      2  C   UNL     1       6.080   4.733  18.370  0.00  0.00    +0.000 A 
ATOM      3  C   UNL     1       7.033   5.565  18.818  0.00  0.00    +0.000 A 
ATOM      4  C   UNL     1       7.456   6.728  18.031  0.00  0.00    +0.000 A 
ATOM      5  O   UNL     1       8.306   7.502  18.452  0.00  0.00    +0.000 OA
ATOM      6  N   UNL     1       6.847   6.872  16.827  0.00  0.00    +0.000 N 
ATOM      7  C   UNL     1       5.884   6.050  16.322  0.00  0.00    +0.000 A 
ATOM      8  O   UNL     1       5.413   6.284  15.212  0.00  0.00    +0.000 OA
ATOM      9  H   UNL     1       7.110   7.665  16.264  0.00  0.00    +0.000 HD
ENDROOT
BRANCH   2  10
ATOM     10  N   UNL     1       5.707   3.664  19.163  0.00  0.00    +0.000 N 
ATOM     11  H   UNL     1       4.795   3.776  19.595  0.00  0.00    +0.000 HD
ATOM     12  H   UNL     1       5.794   2.759  18.706  0.00  0.00    +0.000 HD
ENDBRANCH   2  10
BRANCH   1  14
ATOM     13  C   UNL     1       3.079   4.424  17.353  0.00  0.00    +0.000 C 
ATOM     14  C   UNL     1       4.393   4.152  16.635  0.00  0.00    +0.000 C 
ENDBRANCH   1  14
TORSDOF 2
ENDMDL
MODEL 9
REMARK VINA RESULT:      -5.1      4.482      6.274
REMARK  Name = 
REMARK  3 active torsions:
REMARK  status: ('A' for Active; 'I' for Inactive)
REMARK    1  A    between atoms: C_1  and  C_2
REMARK    2  A    between atoms: C_2  and  N_3
REMARK    3  A    between atoms: C_4  and  N_5
REMARK                            x       y       z     vdW  Elec       q    Type
REMARK                         _______ _______ _______ _____ _____    ______ ____
ROOT
ATOM      1  N   UNL     1       6.095   4.955  17.651  0.00  0.00    +0.000 N 
ATOM      2  C   UNL     1       5.552   4.063  16.733  0.00  0.00    +0.000 A 
ATOM      3  C   UNL     1       5.947   4.128  15.451  0.00  0.00    +0.000 A 
ATOM      4  C   UNL     1       6.940   5.115  15.012  0.00  0.00    +0.000 A 
ATOM      5  O   UNL     1       7.320   5.155  13.850  0.00  0.00    +0.000 OA
ATOM      6  N   UNL     1       7.390   5.959  15.975  0.00  0.00    +0.000 N 
ATOM      7  C   UNL     1       7.013   5.942  17.285  0.00  0.00    +0.000 A 
ATOM      8  O   UNL     1       7.488   6.767  18.060  0.00  0.00    +0.000 OA
ATOM      9  H   UNL     1       8.078   6.645  15.708  0.00  0.00    +0.000 HD
ENDROOT
BRANCH   2  10
ATOM     10  N   UNL     1       4.628   3.100  17.093  0.00  0.00    +0.000 N 
ATOM     11  H   UNL     1       3.722   3.221  16.652  0.00  0.00    +0.000 HD
ATOM     12  H   UNL     1       4.965   2.145  16.994  0.00  0.00    +0.000 HD
ENDBRANCH   2  10
BRANCH   1  14
ATOM     13  C   UNL     1       4.426   5.536  19.403  0.00  0.00    +0.000 C 
ATOM     14  C   UNL     1       5.757   4.874  19.076  0.00  0.00    +0.000 C 
ENDBRANCH   1  14
TORSDOF 2
ENDMDL
