MODEL 1
REMARK VINA RESULT:      -8.5      0.000      0.000
REMARK  Name = 
REMARK  6 active torsions:
REMARK  status: ('A' for Active; 'I' for Inactive)
REMARK    1  A    between atoms: C_2  and  O_3
REMARK    2  A    between atoms: C_2  and  C_24
REMARK    3  A    between atoms: O_3  and  C_4
REMARK    4  A    between atoms: C_10  and  C_11
REMARK    5  A    between atoms: N_13  and  C_14
REMARK    6  A    between atoms: C_17  and  C_18
REMARK                            x       y       z     vdW  Elec       q    Type
REMARK                         _______ _______ _______ _____ _____    ______ ____
ROOT
ATOM      1  C   UNL     1       5.384   5.603  17.388  0.00  0.00    +0.000 A 
ATOM      2  C   UNL     1       4.646   4.734  16.576  0.00  0.00    +0.000 A 
ATOM      3  C   UNL     1       5.143   4.355  15.327  0.00  0.00    +0.000 A 
ATOM      4  C   UNL     1       6.387   4.816  14.904  0.00  0.00    +0.000 A 
ATOM      5 CL   UNL     1       7.026   4.284  13.398  0.00  0.00    +0.000 Cl
ATOM      6  C   UNL     1       7.129   5.687  15.698  0.00  0.00    +0.000 A 
ATOM      7  C   UNL     1       6.622   6.105  16.938  0.00  0.00    +0.000 A 
ENDROOT
BRANCH   7   8
ATOM      8  C   UNL     1       7.437   7.024  17.779  0.00  0.00    +0.000 C 
ATOM      9  O   UNL     1       8.021   6.555  18.750  0.00  0.00    +0.000 OA
ATOM     10  N   UNL     1       7.446   8.359  17.389  0.00  0.00    +0.000 N 
ATOM     11  H   UNL     1       6.795   8.649  16.668  0.00  0.00    +0.000 HD
BRANCH  10  12
ATOM     12  C   UNL     1       8.195   9.395  17.997  0.00  0.00    +0.000 A 
ATOM     13  C   UNL     1       8.955   9.194  19.149  0.00  0.00    +0.000 A 
ATOM     14  C   UNL     1       9.670  10.243  19.732  0.00  0.00    +0.000 A 
ATOM     15  C   UNL     1       9.649  11.522  19.169  0.00  0.00    +0.000 A 
ATOM     16  C   UNL     1       8.892  11.728  18.004  0.00  0.00    +0.000 A 
ATOM     17  C   UNL     1       8.181  10.668  17.417  0.00  0.00    +0.000 A 
BRANCH  15  18
ATOM     18  C   UNL     1      10.435  12.646  19.797  0.00  0.00    +0.000 C 
ATOM     19  F   UNL     1      10.198  12.795  21.132  0.00  0.00    +0.000 F 
ATOM     20  F   UNL     1      11.780  12.467  19.678  0.00  0.00    +0.000 F 
ATOM     21  F   UNL     1      10.167  13.855  19.234  0.00  0.00    +0.000 F 
ENDBRANCH  15  18
ENDBRANCH  10  12
ENDBRANCH   7   8
BRANCH   1  22
ATOM     22  O   UNL     1       4.958   5.921  18.710  0.00  0.00    +0.000 OA
BRANCH  22  24
ATOM     23  O   UNL     1       3.204   4.726  19.672  0.00  0.00    +0.000 OA
ATOM     24  C   UNL     1       3.670   5.751  19.205  0.00  0.00    +0.000 C 
BRANCH  24  25
ATOM     25  C   UNL     1       2.876   7.013  19.082  0.00  0.00    +0.000 A 
ATOM     26  C   UNL     1       2.106   7.413  20.187  0.00  0.00    +0.000 A 
ATOM     27  C   UNL     1       1.284   8.543  20.112  0.00  0.00    +0.000 A 
ATOM     28  C   UNL     1       1.237   9.284  18.933  0.00  0.00    +0.000 A 
ATOM     29 BR   UNL     1       0.075  10.769  18.806  0.00  0.00    +0.000 Br
ATOM     30  C   UNL     1       2.026   8.922  17.843  0.00  0.00    +0.000 A 
ATOM     31  C   UNL     1       2.847   7.788  17.915  0.00  0.00    +0.000 A 
ENDBRANCH  24  25
ENDBRANCH  22  24
ENDBRANCH   1  22
TORSDOF 6
ENDMDL
MODEL 2
REMARK VINA RESULT:      -8.4      0.362      1.200
REMARK  Name = 
REMARK  6 active torsions:
REMARK  status: ('A' for Active; 'I' for Inactive)
REMARK    1  A    between atoms: C_2  and  O_3
REMARK    2  A    between atoms: C_2  and  C_24
REMARK    3  A    between atoms: O_3  and  C_4
REMARK    4  A    between atoms: C_10  and  C_11
REMARK    5  A    between atoms: N_13  and  C_14
REMARK    6  A    between atoms: C_17  and  C_18
REMARK                            x       y       z     vdW  Elec       q    Type
REMARK                         _______ _______ _______ _____ _____    ______ ____
ROOT
ATOM      1  C   UNL     1       5.231   5.759  17.397  0.00  0.00    +0.000 A 
ATOM      2  C   UNL     1       4.450   4.902  16.613  0.00  0.00    +0.000 A 
ATOM      3  C   UNL     1       4.969   4.370  15.430  0.00  0.00    +0.000 A 
ATOM      4  C   UNL     1       6.275   4.667  15.049  0.00  0.00    +0.000 A 
ATOM      5 CL   UNL     1       6.934   3.948  13.631  0.00  0.00    +0.000 Cl
ATOM      6  C   UNL     1       7.061   5.525  15.815  0.00  0.00    +0.000 A 
ATOM      7  C   UNL     1       6.536   6.096  16.985  0.00  0.00    +0.000 A 
ENDROOT
BRANCH   7   8
ATOM      8  C   UNL     1       7.397   6.997  17.798  0.00  0.00    +0.000 C 
ATOM      9  O   UNL     1       8.022   6.511  18.735  0.00  0.00    +0.000 OA
ATOM     10  N   UNL     1       7.397   8.338  17.426  0.00  0.00    +0.000 N 
ATOM     11  H   UNL     1       6.715   8.641  16.741  0.00  0.00    +0.000 HD
BRANCH  10  12
ATOM     12  C   UNL     1       8.182   9.360  18.012  0.00  0.00    +0.000 A 
ATOM     13  C   UNL     1       8.943   9.155  19.162  0.00  0.00    +0.000 A 
ATOM     14  C   UNL     1       9.693  10.190  19.723  0.00  0.00    +0.000 A 
ATOM     15  C   UNL     1       9.708  11.460  19.138  0.00  0.00    +0.000 A 
ATOM     16  C   UNL     1       8.951  11.670  17.975  0.00  0.00    +0.000 A 
ATOM     17  C   UNL     1       8.204  10.622  17.410  0.00  0.00    +0.000 A 
BRANCH  15  18
ATOM     18  C   UNL     1      10.533  12.569  19.742  0.00  0.00    +0.000 C 
ATOM     19  F   UNL     1      11.036  13.438  18.819  0.00  0.00    +0.000 F 
ATOM     20  F   UNL     1       9.818  13.331  20.616  0.00  0.00    +0.000 F 
ATOM     21  F   UNL     1      11.606  12.107  20.440  0.00  0.00    +0.000 F 
ENDBRANCH  15  18
ENDBRANCH  10  12
ENDBRANCH   7   8
BRANCH   1  22
ATOM     22  O   UNL     1       4.770   6.229  18.661  0.00  0.00    +0.000 OA
BRANCH  22  24
ATOM     23  O   UNL     1       3.207   4.843  19.692  0.00  0.00    +0.000 OA
ATOM     24  C   UNL     1       3.543   5.923  19.238  0.00  0.00    +0.000 C 
BRANCH  24  25
ATOM     25  C   UNL     1       2.632   7.109  19.224  0.00  0.00    +0.000 A 
ATOM     26  C   UNL     1       2.484   7.807  18.012  0.00  0.00    +0.000 A 
ATOM     27  C   UNL     1       1.705   8.967  17.949  0.00  0.00    +0.000 A 
ATOM     28  C   UNL     1       1.061   9.429  19.095  0.00  0.00    +0.000 A 
ATOM     29 BR   UNL     1       0.066  11.034  19.027  0.00  0.00    +0.000 Br
ATOM     30  C   UNL     1       1.167   8.725  20.293  0.00  0.00    +0.000 A 
ATOM     31  C   UNL     1       1.950   7.565  20.359  0.00  0.00    +0.000 A 
ENDBRANCH  24  25
ENDBRANCH  22  24
ENDBRANCH   1  22
TORSDOF 6
ENDMDL
MODEL 3
REMARK VINA RESULT:      -8.3      0.172      1.256
REMARK  Name = 
REMARK  6 active torsions:
REMARK  status: ('A' for Active; 'I' for Inactive)
REMARK    1  A    between atoms: C_2  and  O_3
REMARK    2  A    between atoms: C_2  and  C_24
REMARK    3  A    between atoms: O_3  and  C_4
REMARK    4  A    between atoms: C_10  and  C_11
REMARK    5  A    between atoms: N_13  and  C_14
REMARK    6  A    between atoms: C_17  and  C_18
REMARK                            x       y       z     vdW  Elec       q    Type
REMARK                         _______ _______ _______ _____ _____    ______ ____
ROOT
ATOM      1  C   UNL     1       5.283   5.725  17.431  0.00  0.00    +0.000 A 
ATOM      2  C   UNL     1       4.514   4.847  16.658  0.00  0.00    +0.000 A 
ATOM      3  C   UNL     1       5.010   4.374  15.441  0.00  0.00    +0.000 A 
ATOM      4  C   UNL     1       6.281   4.749  15.013  0.00  0.00    +0.000 A 
ATOM      5 CL   UNL     1       6.914   4.101  13.550  0.00  0.00    +0.000 Cl
ATOM      6  C   UNL     1       7.053   5.628  15.768  0.00  0.00    +0.000 A 
ATOM      7  C   UNL     1       6.550   6.141  16.975  0.00  0.00    +0.000 A 
ENDROOT
BRANCH   7   8
ATOM      8  C   UNL     1       7.397   7.066  17.775  0.00  0.00    +0.000 C 
ATOM      9  O   UNL     1       8.029   6.603  18.718  0.00  0.00    +0.000 OA
ATOM     10  N   UNL     1       7.377   8.401  17.384  0.00  0.00    +0.000 N 
ATOM     11  H   UNL     1       6.690   8.685  16.695  0.00  0.00    +0.000 HD
BRANCH  10  12
ATOM     12  C   UNL     1       8.146   9.443  17.956  0.00  0.00    +0.000 A 
ATOM     13  C   UNL     1       8.198  10.725  17.409  0.00  0.00    +0.000 A 
ATOM     14  C   UNL     1       8.980  11.725  17.991  0.00  0.00    +0.000 A 
ATOM     15  C   UNL     1       9.726  11.468  19.145  0.00  0.00    +0.000 A 
ATOM     16  C   UNL     1       9.671  10.182  19.705  0.00  0.00    +0.000 A 
ATOM     17  C   UNL     1       8.876   9.181  19.121  0.00  0.00    +0.000 A 
BRANCH  15  18
ATOM     18  C   UNL     1      10.557  12.558  19.775  0.00  0.00    +0.000 C 
ATOM     19  F   UNL     1      10.475  12.587  21.137  0.00  0.00    +0.000 F 
ATOM     20  F   UNL     1      11.882  12.432  19.488  0.00  0.00    +0.000 F 
ATOM     21  F   UNL     1      10.200  13.802  19.354  0.00  0.00    +0.000 F 
ENDBRANCH  15  18
ENDBRANCH  10  12
ENDBRANCH   7   8
BRANCH   1  22
ATOM     22  O   UNL     1       4.854   6.139  18.726  0.00  0.00    +0.000 OA
BRANCH  22  24
ATOM     23  O   UNL     1       3.265   4.796  19.775  0.00  0.00    +0.000 OA
ATOM     24  C   UNL     1       3.616   5.859  19.294  0.00  0.00    +0.000 C 
BRANCH  24  25
ATOM     25  C   UNL     1       2.715   7.050  19.231  0.00  0.00    +0.000 A 
ATOM     26  C   UNL     1       2.632   7.745  18.011  0.00  0.00    +0.000 A 
ATOM     27  C   UNL     1       1.864   8.910  17.906  0.00  0.00    +0.000 A 
ATOM     28  C   UNL     1       1.167   9.380  19.017  0.00  0.00    +0.000 A 
ATOM     29 BR   UNL     1       0.187  10.991  18.896  0.00  0.00    +0.000 Br
ATOM     30  C   UNL     1       1.208   8.679  20.221  0.00  0.00    +0.000 A 
ATOM     31  C   UNL     1       1.980   7.514  20.329  0.00  0.00    +0.000 A 
ENDBRANCH  24  25
ENDBRANCH  22  24
ENDBRANCH   1  22
TORSDOF 6
ENDMDL
MODEL 4
REMARK VINA RESULT:      -8.3      5.230      7.414
REMARK  Name = 
REMARK  6 active torsions:
REMARK  status: ('A' for Active; 'I' for Inactive)
REMARK    1  A    between atoms: C_2  and  O_3
REMARK    2  A    between atoms: C_2  and  C_24
REMARK    3  A    between atoms: O_3  and  C_4
REMARK    4  A    between atoms: C_10  and  C_11
REMARK    5  A    between atoms: N_13  and  C_14
REMARK    6  A    between atoms: C_17  and  C_18
REMARK                            x       y       z     vdW  Elec       q    Type
REMARK                         _______ _______ _______ _____ _____    ______ ____
ROOT
ATOM      1  C   UNL     1       4.174   4.857  19.420  0.00  0.00    +0.000 A 
ATOM      2  C   UNL     1       4.485   3.495  19.319  0.00  0.00    +0.000 A 
ATOM      3  C   UNL     1       3.464   2.557  19.152  0.00  0.00    +0.000 A 
ATOM      4  C   UNL     1       2.140   2.979  19.052  0.00  0.00    +0.000 A 
ATOM      5 CL   UNL     1       0.896   1.825  18.769  0.00  0.00    +0.000 Cl
ATOM      6  C   UNL     1       1.816   4.330  19.158  0.00  0.00    +0.000 A 
ATOM      7  C   UNL     1       2.830   5.278  19.366  0.00  0.00    +0.000 A 
ENDROOT
BRANCH   7   8
ATOM      8  C   UNL     1       2.464   6.717  19.461  0.00  0.00    +0.000 C 
ATOM      9  O   UNL     1       2.800   7.461  18.546  0.00  0.00    +0.000 OA
ATOM     10  N   UNL     1       1.781   7.097  20.612  0.00  0.00    +0.000 N 
ATOM     11  H   UNL     1       1.707   6.423  21.365  0.00  0.00    +0.000 HD
BRANCH  10  12
ATOM     12  C   UNL     1       1.281   8.392  20.889  0.00  0.00    +0.000 A 
ATOM     13  C   UNL     1       1.044   8.843  22.187  0.00  0.00    +0.000 A 
ATOM     14  C   UNL     1       0.536  10.122  22.423  0.00  0.00    +0.000 A 
ATOM     15  C   UNL     1       0.259  10.989  21.362  0.00  0.00    +0.000 A 
ATOM     16  C   UNL     1       0.504  10.543  20.053  0.00  0.00    +0.000 A 
ATOM     17  C   UNL     1       1.024   9.258  19.821  0.00  0.00    +0.000 A 
BRANCH  15  18
ATOM     18  C   UNL     1      -0.276  12.373  21.627  0.00  0.00    +0.000 C 
ATOM     19  F   UNL     1      -1.313  12.721  20.811  0.00  0.00    +0.000 F 
ATOM     20  F   UNL     1      -0.743  12.514  22.898  0.00  0.00    +0.000 F 
ATOM     21  F   UNL     1       0.666  13.342  21.464  0.00  0.00    +0.000 F 
ENDBRANCH  15  18
ENDBRANCH  10  12
ENDBRANCH   7   8
BRANCH   1  22
ATOM     22  O   UNL     1       5.198   5.846  19.481  0.00  0.00    +0.000 OA
BRANCH  22  24
ATOM     23  O   UNL     1       7.527   5.917  19.501  0.00  0.00    +0.000 OA
ATOM     24  C   UNL     1       6.468   5.728  18.928  0.00  0.00    +0.000 C 
BRANCH  24  25
ATOM     25  C   UNL     1       6.392   5.346  17.484  0.00  0.00    +0.000 A 
ATOM     26  C   UNL     1       5.453   6.014  16.678  0.00  0.00    +0.000 A 
ATOM     27  C   UNL     1       5.280   5.653  15.338  0.00  0.00    +0.000 A 
ATOM     28  C   UNL     1       6.053   4.629  14.794  0.00  0.00    +0.000 A 
ATOM     29 BR   UNL     1       5.771   4.093  13.003  0.00  0.00    +0.000 Br
ATOM     30  C   UNL     1       7.014   3.986  15.570  0.00  0.00    +0.000 A 
ATOM     31  C   UNL     1       7.187   4.343  16.914  0.00  0.00    +0.000 A 
ENDBRANCH  24  25
ENDBRANCH  22  24
ENDBRANCH   1  22
TORSDOF 6
ENDMDL
MODEL 5
REMARK VINA RESULT:      -8.2      5.192      7.461
REMARK  Name = 
REMARK  6 active torsions:
REMARK  status: ('A' for Active; 'I' for Inactive)
REMARK    1  A    between atoms: C_2  and  O_3
REMARK    2  A    between atoms: C_2  and  C_24
REMARK    3  A    between atoms: O_3  and  C_4
REMARK    4  A    between atoms: C_10  and  C_11
REMARK    5  A    between atoms: N_13  and  C_14
REMARK    6  A    between atoms: C_17  and  C_18
REMARK                            x       y       z     vdW  Elec       q    Type
REMARK                         _______ _______ _______ _____ _____    ______ ____
ROOT
ATOM      1  C   UNL     1       4.441   4.919  19.298  0.00  0.00    +0.000 A 
ATOM      2  C   UNL     1       4.826   3.574  19.244  0.00  0.00    +0.000 A 
ATOM      3  C   UNL     1       3.857   2.574  19.131  0.00  0.00    +0.000 A 
ATOM      4  C   UNL     1       2.511   2.918  19.039  0.00  0.00    +0.000 A 
ATOM      5 CL   UNL     1       1.329   1.685  18.823  0.00  0.00    +0.000 Cl
ATOM      6  C   UNL     1       2.112   4.251  19.100  0.00  0.00    +0.000 A 
ATOM      7  C   UNL     1       3.075   5.262  19.252  0.00  0.00    +0.000 A 
ENDROOT
BRANCH   7   8
ATOM      8  C   UNL     1       2.630   6.681  19.298  0.00  0.00    +0.000 C 
ATOM      9  O   UNL     1       2.908   7.406  18.349  0.00  0.00    +0.000 OA
ATOM     10  N   UNL     1       1.944   7.067  20.446  0.00  0.00    +0.000 N 
ATOM     11  H   UNL     1       1.921   6.421  21.226  0.00  0.00    +0.000 HD
BRANCH  10  12
ATOM     12  C   UNL     1       1.376   8.342  20.682  0.00  0.00    +0.000 A 
ATOM     13  C   UNL     1       1.218   9.291  19.673  0.00  0.00    +0.000 A 
ATOM     14  C   UNL     1       0.668  10.546  19.944  0.00  0.00    +0.000 A 
ATOM     15  C   UNL     1       0.253  10.880  21.237  0.00  0.00    +0.000 A 
ATOM     16  C   UNL     1       0.402   9.925  22.255  0.00  0.00    +0.000 A 
ATOM     17  C   UNL     1       0.948   8.660  21.975  0.00  0.00    +0.000 A 
BRANCH  15  18
ATOM     18  C   UNL     1      -0.353  12.232  21.518  0.00  0.00    +0.000 C 
ATOM     19  F   UNL     1       0.417  13.273  21.089  0.00  0.00    +0.000 F 
ATOM     20  F   UNL     1      -1.563  12.394  20.914  0.00  0.00    +0.000 F 
ATOM     21  F   UNL     1      -0.565  12.448  22.845  0.00  0.00    +0.000 F 
ENDBRANCH  15  18
ENDBRANCH  10  12
ENDBRANCH   7   8
BRANCH   1  22
ATOM     22  O   UNL     1       5.408   5.965  19.303  0.00  0.00    +0.000 OA
BRANCH  22  24
ATOM     23  O   UNL     1       7.656   6.411  18.880  0.00  0.00    +0.000 OA
ATOM     24  C   UNL     1       6.563   6.000  18.530  0.00  0.00    +0.000 C 
BRANCH  24  25
ATOM     25  C   UNL     1       6.304   5.474  17.154  0.00  0.00    +0.000 A 
ATOM     26  C   UNL     1       7.014   4.330  16.746  0.00  0.00    +0.000 A 
ATOM     27  C   UNL     1       6.873   3.830  15.447  0.00  0.00    +0.000 A 
ATOM     28  C   UNL     1       6.013   4.464  14.553  0.00  0.00    +0.000 A 
ATOM     29 BR   UNL     1       5.875   3.833  12.777  0.00  0.00    +0.000 Br
ATOM     30  C   UNL     1       5.273   5.575  14.956  0.00  0.00    +0.000 A 
ATOM     31  C   UNL     1       5.416   6.079  16.256  0.00  0.00    +0.000 A 
ENDBRANCH  24  25
ENDBRANCH  22  24
ENDBRANCH   1  22
TORSDOF 6
ENDMDL
MODEL 6
REMARK VINA RESULT:      -8.1      5.332      7.295
REMARK  Name = 
REMARK  6 active torsions:
REMARK  status: ('A' for Active; 'I' for Inactive)
REMARK    1  A    between atoms: C_2  and  O_3
REMARK    2  A    between atoms: C_2  and  C_24
REMARK    3  A    between atoms: O_3  and  C_4
REMARK    4  A    between atoms: C_10  and  C_11
REMARK    5  A    between atoms: N_13  and  C_14
REMARK    6  A    between atoms: C_17  and  C_18
REMARK                            x       y       z     vdW  Elec       q    Type
REMARK                         _______ _______ _______ _____ _____    ______ ____
ROOT
ATOM      1  C   UNL     1       3.862   4.609  19.594  0.00  0.00    +0.000 A 
ATOM      2  C   UNL     1       4.169   3.245  19.671  0.00  0.00    +0.000 A 
ATOM      3  C   UNL     1       3.178   2.293  19.424  0.00  0.00    +0.000 A 
ATOM      4  C   UNL     1       1.894   2.699  19.069  0.00  0.00    +0.000 A 
ATOM      5 CL   UNL     1       0.700   1.519  18.692  0.00  0.00    +0.000 Cl
ATOM      6  C   UNL     1       1.573   4.053  18.997  0.00  0.00    +0.000 A 
ATOM      7  C   UNL     1       2.551   5.019  19.281  0.00  0.00    +0.000 A 
ENDROOT
BRANCH   7   8
ATOM      8  C   UNL     1       2.191   6.460  19.183  0.00  0.00    +0.000 C 
ATOM      9  O   UNL     1       2.237   6.994  18.080  0.00  0.00    +0.000 OA
ATOM     10  N   UNL     1       1.850   7.085  20.378  0.00  0.00    +0.000 N 
ATOM     11  H   UNL     1       2.008   6.579  21.241  0.00  0.00    +0.000 HD
BRANCH  10  12
ATOM     12  C   UNL     1       1.417   8.426  20.517  0.00  0.00    +0.000 A 
ATOM     13  C   UNL     1       1.024   8.964  21.741  0.00  0.00    +0.000 A 
ATOM     14  C   UNL     1       0.588  10.287  21.839  0.00  0.00    +0.000 A 
ATOM     15  C   UNL     1       0.541  11.110  20.710  0.00  0.00    +0.000 A 
ATOM     16  C   UNL     1       0.943  10.575  19.476  0.00  0.00    +0.000 A 
ATOM     17  C   UNL     1       1.390   9.246  19.384  0.00  0.00    +0.000 A 
BRANCH  15  18
ATOM     18  C   UNL     1       0.081  12.542  20.828  0.00  0.00    +0.000 C 
ATOM     19  F   UNL     1       0.416  13.311  19.751  0.00  0.00    +0.000 F 
ATOM     20  F   UNL     1      -1.271  12.644  20.948  0.00  0.00    +0.000 F 
ATOM     21  F   UNL     1       0.603  13.175  21.914  0.00  0.00    +0.000 F 
ENDBRANCH  15  18
ENDBRANCH  10  12
ENDBRANCH   7   8
BRANCH   1  22
ATOM     22  O   UNL     1       4.874   5.603  19.733  0.00  0.00    +0.000 OA
BRANCH  22  24
ATOM     23  O   UNL     1       7.193   5.562  19.959  0.00  0.00    +0.000 OA
ATOM     24  C   UNL     1       6.183   5.491  19.279  0.00  0.00    +0.000 C 
BRANCH  24  25
ATOM     25  C   UNL     1       6.223   5.283  17.799  0.00  0.00    +0.000 A 
ATOM     26  C   UNL     1       7.217   4.433  17.283  0.00  0.00    +0.000 A 
ATOM     27  C   UNL     1       7.356   4.253  15.903  0.00  0.00    +0.000 A 
ATOM     28  C   UNL     1       6.492   4.913  15.031  0.00  0.00    +0.000 A 
ATOM     29 BR   UNL     1       6.722   4.727  13.165  0.00  0.00    +0.000 Br
ATOM     30  C   UNL     1       5.477   5.727  15.530  0.00  0.00    +0.000 A 
ATOM     31  C   UNL     1       5.339   5.912  16.913  0.00  0.00    +0.000 A 
ENDBRANCH  24  25
ENDBRANCH  22  24
ENDBRANCH   1  22
TORSDOF 6
ENDMDL
MODEL 7
REMARK VINA RESULT:      -8.1      5.610      7.859
REMARK  Name = 
REMARK  6 active torsions:
REMARK  status: ('A' for Active; 'I' for Inactive)
REMARK    1  A    between atoms: C_2  and  O_3
REMARK    2  A    between atoms: C_2  and  C_24
REMARK    3  A    between atoms: O_3  and  C_4
REMARK    4  A    between atoms: C_10  and  C_11
REMARK    5  A    between atoms: N_13  and  C_14
REMARK    6  A    between atoms: C_17  and  C_18
REMARK                            x       y       z     vdW  Elec       q    Type
REMARK                         _______ _______ _______ _____ _____    ______ ____
ROOT
ATOM      1  C   UNL     1       3.862   4.952  19.431  0.00  0.00    +0.000 A 
ATOM      2  C   UNL     1       4.249   3.634  19.699  0.00  0.00    +0.000 A 
ATOM      3  C   UNL     1       3.451   2.823  20.510  0.00  0.00    +0.000 A 
ATOM      4  C   UNL     1       2.255   3.316  21.024  0.00  0.00    +0.000 A 
ATOM      5 CL   UNL     1       1.240   2.288  21.958  0.00  0.00    +0.000 Cl
ATOM      6  C   UNL     1       1.861   4.629  20.772  0.00  0.00    +0.000 A 
ATOM      7  C   UNL     1       2.674   5.465  19.991  0.00  0.00    +0.000 A 
ENDROOT
BRANCH   7   8
ATOM      8  C   UNL     1       2.228   6.858  19.721  0.00  0.00    +0.000 C 
ATOM      9  O   UNL     1       2.435   7.326  18.606  0.00  0.00    +0.000 OA
ATOM     10  N   UNL     1       1.624   7.521  20.784  0.00  0.00    +0.000 N 
ATOM     11  H   UNL     1       1.659   7.085  21.698  0.00  0.00    +0.000 HD
BRANCH  10  12
ATOM     12  C   UNL     1       1.070   8.823  20.741  0.00  0.00    +0.000 A 
ATOM     13  C   UNL     1       0.807   9.487  19.544  0.00  0.00    +0.000 A 
ATOM     14  C   UNL     1       0.274  10.778  19.539  0.00  0.00    +0.000 A 
ATOM     15  C   UNL     1      -0.020  11.435  20.737  0.00  0.00    +0.000 A 
ATOM     16  C   UNL     1       0.235  10.768  21.946  0.00  0.00    +0.000 A 
ATOM     17  C   UNL     1       0.763   9.466  21.946  0.00  0.00    +0.000 A 
BRANCH  15  18
ATOM     18  C   UNL     1      -0.609  12.823  20.722  0.00  0.00    +0.000 C 
ATOM     19  F   UNL     1      -1.800  12.916  21.381  0.00  0.00    +0.000 F 
ATOM     20  F   UNL     1       0.210  13.741  21.308  0.00  0.00    +0.000 F 
ATOM     21  F   UNL     1      -0.844  13.282  19.462  0.00  0.00    +0.000 F 
ENDBRANCH  15  18
ENDBRANCH  10  12
ENDBRANCH   7   8
BRANCH   1  22
ATOM     22  O   UNL     1       4.596   5.768  18.522  0.00  0.00    +0.000 OA
BRANCH  22  24
ATOM     23  O   UNL     1       6.907   5.834  18.812  0.00  0.00    +0.000 OA
ATOM     24  C   UNL     1       5.920   5.569  18.148  0.00  0.00    +0.000 C 
BRANCH  24  25
ATOM     25  C   UNL     1       6.007   4.988  16.773  0.00  0.00    +0.000 A 
ATOM     26  C   UNL     1       7.098   5.365  15.969  0.00  0.00    +0.000 A 
ATOM     27  C   UNL     1       7.200   4.915  14.649  0.00  0.00    +0.000 A 
ATOM     28  C   UNL     1       6.217   4.076  14.128  0.00  0.00    +0.000 A 
ATOM     29 BR   UNL     1       6.316   3.524  12.323  0.00  0.00    +0.000 Br
ATOM     30  C   UNL     1       5.152   3.661  14.925  0.00  0.00    +0.000 A 
ATOM     31  C   UNL     1       5.046   4.114  16.248  0.00  0.00    +0.000 A 
ENDBRANCH  24  25
ENDBRANCH  22  24
ENDBRANCH   1  22
TORSDOF 6
ENDMDL
MODEL 8
REMARK VINA RESULT:      -8.1      5.656      7.811
REMARK  Name = 
REMARK  6 active torsions:
REMARK  status: ('A' for Active; 'I' for Inactive)
REMARK    1  A    between atoms: C_2  and  O_3
REMARK    2  A    between atoms: C_2  and  C_24
REMARK    3  A    between atoms: O_3  and  C_4
REMARK    4  A    between atoms: C_10  and  C_11
REMARK    5  A    between atoms: N_13  and  C_14
REMARK    6  A    between atoms: C_17  and  C_18
REMARK                            x       y       z     vdW  Elec       q    Type
REMARK                         _______ _______ _______ _____ _____    ______ ____
ROOT
ATOM      1  C   UNL     1       3.886   4.932  19.459  0.00  0.00    +0.000 A 
ATOM      2  C   UNL     1       4.312   3.615  19.668  0.00  0.00    +0.000 A 
ATOM      3  C   UNL     1       3.556   2.756  20.468  0.00  0.00    +0.000 A 
ATOM      4  C   UNL     1       2.361   3.200  21.030  0.00  0.00    +0.000 A 
ATOM      5 CL   UNL     1       1.397   2.112  21.951  0.00  0.00    +0.000 Cl
ATOM      6  C   UNL     1       1.929   4.510  20.837  0.00  0.00    +0.000 A 
ATOM      7  C   UNL     1       2.702   5.394  20.067  0.00  0.00    +0.000 A 
ENDROOT
BRANCH   7   8
ATOM      8  C   UNL     1       2.215   6.785  19.860  0.00  0.00    +0.000 C 
ATOM      9  O   UNL     1       2.327   7.277  18.742  0.00  0.00    +0.000 OA
ATOM     10  N   UNL     1       1.686   7.418  20.981  0.00  0.00    +0.000 N 
ATOM     11  H   UNL     1       1.800   6.965  21.880  0.00  0.00    +0.000 HD
BRANCH  10  12
ATOM     12  C   UNL     1       1.111   8.711  21.007  0.00  0.00    +0.000 A 
ATOM     13  C   UNL     1       0.607   9.285  22.173  0.00  0.00    +0.000 A 
ATOM     14  C   UNL     1       0.032  10.557  22.160  0.00  0.00    +0.000 A 
ATOM     15  C   UNL     1      -0.046  11.294  20.974  0.00  0.00    +0.000 A 
ATOM     16  C   UNL     1       0.467  10.724  19.798  0.00  0.00    +0.000 A 
ATOM     17  C   UNL     1       1.053   9.447  19.818  0.00  0.00    +0.000 A 
BRANCH  15  18
ATOM     18  C   UNL     1      -0.656  12.673  20.971  0.00  0.00    +0.000 C 
ATOM     19  F   UNL     1      -0.352  13.405  22.082  0.00  0.00    +0.000 F 
ATOM     20  F   UNL     1      -0.243  13.421  19.911  0.00  0.00    +0.000 F 
ATOM     21  F   UNL     1      -2.016  12.647  20.904  0.00  0.00    +0.000 F 
ENDBRANCH  15  18
ENDBRANCH  10  12
ENDBRANCH   7   8
BRANCH   1  22
ATOM     22  O   UNL     1       4.576   5.799  18.562  0.00  0.00    +0.000 OA
BRANCH  22  24
ATOM     23  O   UNL     1       6.885   5.892  18.862  0.00  0.00    +0.000 OA
ATOM     24  C   UNL     1       5.905   5.667  18.174  0.00  0.00    +0.000 C 
BRANCH  24  25
ATOM     25  C   UNL     1       6.006   5.217  16.751  0.00  0.00    +0.000 A 
ATOM     26  C   UNL     1       4.934   4.480  16.219  0.00  0.00    +0.000 A 
ATOM     27  C   UNL     1       4.997   3.966  14.920  0.00  0.00    +0.000 A 
ATOM     28  C   UNL     1       6.129   4.198  14.141  0.00  0.00    +0.000 A 
ATOM     29 BR   UNL     1       6.246   3.446  12.411  0.00  0.00    +0.000 Br
ATOM     30  C   UNL     1       7.182   4.961  14.641  0.00  0.00    +0.000 A 
ATOM     31  C   UNL     1       7.122   5.473  15.945  0.00  0.00    +0.000 A 
ENDBRANCH  24  25
ENDBRANCH  22  24
ENDBRANCH   1  22
TORSDOF 6
ENDMDL
MODEL 9
REMARK VINA RESULT:      -8.0      5.727      7.935
REMARK  Name = 
REMARK  6 active torsions:
REMARK  status: ('A' for Active; 'I' for Inactive)
REMARK    1  A    between atoms: C_2  and  O_3
REMARK    2  A    between atoms: C_2  and  C_24
REMARK    3  A    between atoms: O_3  and  C_4
REMARK    4  A    between atoms: C_10  and  C_11
REMARK    5  A    between atoms: N_13  and  C_14
REMARK    6  A    between atoms: C_17  and  C_18
REMARK                            x       y       z     vdW  Elec       q    Type
REMARK                         _______ _______ _______ _____ _____    ______ ____
ROOT
ATOM      1  C   UNL     1       3.783   4.958  19.329  0.00  0.00    +0.000 A 
ATOM      2  C   UNL     1       4.149   3.615  19.479  0.00  0.00    +0.000 A 
ATOM      3  C   UNL     1       3.426   2.787  20.341  0.00  0.00    +0.000 A 
ATOM      4  C   UNL     1       2.322   3.289  21.025  0.00  0.00    +0.000 A 
ATOM      5 CL   UNL     1       1.391   2.244  22.025  0.00  0.00    +0.000 Cl
ATOM      6  C   UNL     1       1.951   4.625  20.892  0.00  0.00    +0.000 A 
ATOM      7  C   UNL     1       2.694   5.477  20.058  0.00  0.00    +0.000 A 
ENDROOT
BRANCH   7   8
ATOM      8  C   UNL     1       2.272   6.897  19.917  0.00  0.00    +0.000 C 
ATOM      9  O   UNL     1       2.637   7.512  18.921  0.00  0.00    +0.000 OA
ATOM     10  N   UNL     1       1.505   7.410  20.958  0.00  0.00    +0.000 N 
ATOM     11  H   UNL     1       1.409   6.852  21.798  0.00  0.00    +0.000 HD
BRANCH  10  12
ATOM     12  C   UNL     1       0.944   8.709  21.010  0.00  0.00    +0.000 A 
ATOM     13  C   UNL     1       0.462   9.270  22.192  0.00  0.00    +0.000 A 
ATOM     14  C   UNL     1      -0.101  10.549  22.204  0.00  0.00    +0.000 A 
ATOM     15  C   UNL     1      -0.186  11.304  21.030  0.00  0.00    +0.000 A 
ATOM     16  C   UNL     1       0.305  10.746  19.839  0.00  0.00    +0.000 A 
ATOM     17  C   UNL     1       0.878   9.463  19.833  0.00  0.00    +0.000 A 
BRANCH  15  18
ATOM     18  C   UNL     1      -0.782  12.689  21.055  0.00  0.00    +0.000 C 
ATOM     19  F   UNL     1      -0.626  13.370  19.883  0.00  0.00    +0.000 F 
ATOM     20  F   UNL     1      -2.122  12.673  21.297  0.00  0.00    +0.000 F 
ATOM     21  F   UNL     1      -0.237  13.479  22.020  0.00  0.00    +0.000 F 
ENDBRANCH  15  18
ENDBRANCH  10  12
ENDBRANCH   7   8
BRANCH   1  22
ATOM     22  O   UNL     1       4.430   5.799  18.378  0.00  0.00    +0.000 OA
BRANCH  22  24
ATOM     23  O   UNL     1       6.727   6.081  18.654  0.00  0.00    +0.000 OA
ATOM     24  C   UNL     1       5.766   5.712  18.001  0.00  0.00    +0.000 C 
BRANCH  24  25
ATOM     25  C   UNL     1       5.902   5.109  16.640  0.00  0.00    +0.000 A 
ATOM     26  C   UNL     1       7.116   5.299  15.957  0.00  0.00    +0.000 A 
ATOM     27  C   UNL     1       7.282   4.824  14.652  0.00  0.00    +0.000 A 
ATOM     28  C   UNL     1       6.238   4.146  14.027  0.00  0.00    +0.000 A 
ATOM     29 BR   UNL     1       6.434   3.565  12.239  0.00  0.00    +0.000 Br
ATOM     30  C   UNL     1       5.043   3.915  14.706  0.00  0.00    +0.000 A 
ATOM     31  C   UNL     1       4.874   4.393  16.013  0.00  0.00    +0.000 A 
ENDBRANCH  24  25
ENDBRANCH  22  24
ENDBRANCH   1  22
TORSDOF 6
ENDMDL
