MODEL 1
REMARK VINA RESULT:      -7.6      0.000      0.000
REMARK  Name = 
REMARK  3 active torsions:
REMARK  status: ('A' for Active; 'I' for Inactive)
REMARK    1  A    between atoms: C_8  and  C_9
REMARK    2  A    between atoms: C_14  and  N_15
REMARK    3  A    between atoms: C_19  and  C_20
REMARK                            x       y       z     vdW  Elec       q    Type
REMARK                         _______ _______ _______ _____ _____    ______ ____
ROOT
ATOM      1  O   UNL     1       3.034  14.813  18.062  0.00  0.00    +0.000 OA
ATOM      2  C   UNL     1       2.258  14.722  19.005  0.00  0.00    +0.000 C 
ATOM      3  C   UNL     1       2.349  15.640  20.198  0.00  0.00    +0.000 C 
ATOM      4  S   UNL     1       1.063  15.069  21.310  0.00  0.00    +0.000 S 
ATOM      5  C   UNL     1       0.530  13.861  20.133  0.00  0.00    +0.000 C 
ATOM      6  N   UNL     1      -0.559  13.073  20.465  0.00  0.00    +0.000 N 
ATOM      7  N   UNL     1      -1.389  13.339  21.519  0.00  0.00    +0.000 NA
ATOM      8  C   UNL     1      -2.450  12.607  21.398  0.00  0.00    +0.000 C 
ATOM      9  C   UNL     1      -2.493  11.732  20.179  0.00  0.00    +0.000 C 
ATOM     10  C   UNL     1      -1.173  12.124  19.517  0.00  0.00    +0.000 C 
ATOM     11  N   UNL     1       1.219  13.813  19.035  0.00  0.00    +0.000 NA
ENDROOT
BRANCH  10  12
ATOM     12  C   UNL     1      -0.315  10.929  19.214  0.00  0.00    +0.000 A 
ATOM     13  C   UNL     1       0.527  10.404  20.188  0.00  0.00    +0.000 A 
ATOM     14  C   UNL     1       1.141   9.179  19.922  0.00  0.00    +0.000 A 
ATOM     15  C   UNL     1       1.283   8.168  20.876  0.00  0.00    +0.000 A 
ATOM     16  C   UNL     1       1.879   6.975  20.501  0.00  0.00    +0.000 A 
ATOM     17  F   UNL     1       1.776   5.900  21.291  0.00  0.00    +0.000 F 
ATOM     18  C   UNL     1       2.525   6.864  19.277  0.00  0.00    +0.000 A 
ATOM     19  C   UNL     1       2.308   7.848  18.317  0.00  0.00    +0.000 A 
ATOM     20  C   UNL     1       1.417   8.873  18.589  0.00  0.00    +0.000 A 
ATOM     21  N   UNL     1       0.683   9.415  17.616  0.00  0.00    +0.000 NA
ATOM     22  C   UNL     1      -0.308  10.243  18.007  0.00  0.00    +0.000 A 
ATOM     23 CL   UNL     1      -1.699  10.124  16.995  0.00  0.00    +0.000 Cl
ENDBRANCH  10  12
BRANCH   8  24
ATOM     24  C   UNL     1      -3.557  12.630  22.366  0.00  0.00    +0.000 A 
ATOM     25  C   UNL     1      -3.301  12.271  23.702  0.00  0.00    +0.000 A 
ATOM     26  C   UNL     1      -4.320  12.350  24.667  0.00  0.00    +0.000 A 
ATOM     27  C   UNL     1      -5.591  12.787  24.316  0.00  0.00    +0.000 A 
ATOM     28  C   UNL     1      -5.869  13.147  22.999  0.00  0.00    +0.000 A 
ATOM     29  C   UNL     1      -4.850  13.075  22.036  0.00  0.00    +0.000 A 
BRANCH  29  30
ATOM     30  N   UNL     1      -5.206  13.390  20.666  0.00  0.00    +0.000 N 
ATOM     31  O   UNL     1      -5.799  12.509  20.028  0.00  0.00    +0.000 OA
ATOM     32  O   UNL     1      -4.989  14.547  20.280  0.00  0.00    +0.000 OA
ENDBRANCH  29  30
ENDBRANCH   8  24
TORSDOF 3
ENDMDL
MODEL 2
REMARK VINA RESULT:      -7.4      2.285      2.841
REMARK  Name = 
REMARK  3 active torsions:
REMARK  status: ('A' for Active; 'I' for Inactive)
REMARK    1  A    between atoms: C_8  and  C_9
REMARK    2  A    between atoms: C_14  and  N_15
REMARK    3  A    between atoms: C_19  and  C_20
REMARK                            x       y       z     vdW  Elec       q    Type
REMARK                         _______ _______ _______ _____ _____    ______ ____
ROOT
ATOM      1  O   UNL     1       4.285  13.642  17.885  0.00  0.00    +0.000 OA
ATOM      2  C   UNL     1       3.303  13.797  18.601  0.00  0.00    +0.000 C 
ATOM      3  C   UNL     1       3.177  14.979  19.528  0.00  0.00    +0.000 C 
ATOM      4  S   UNL     1       1.626  14.716  20.390  0.00  0.00    +0.000 S 
ATOM      5  C   UNL     1       1.299  13.262  19.437  0.00  0.00    +0.000 C 
ATOM      6  N   UNL     1       0.109  12.594  19.666  0.00  0.00    +0.000 N 
ATOM      7  N   UNL     1      -0.925  13.122  20.389  0.00  0.00    +0.000 NA
ATOM      8  C   UNL     1      -1.978  12.396  20.185  0.00  0.00    +0.000 C 
ATOM      9  C   UNL     1      -1.795  11.248  19.235  0.00  0.00    +0.000 C 
ATOM     10  C   UNL     1      -0.331  11.449  18.846  0.00  0.00    +0.000 C 
ATOM     11  N   UNL     1       2.224  12.936  18.586  0.00  0.00    +0.000 NA
ENDROOT
BRANCH  10  12
ATOM     12  C   UNL     1       0.485  10.205  19.055  0.00  0.00    +0.000 A 
ATOM     13  C   UNL     1       1.012   9.520  17.966  0.00  0.00    +0.000 A 
ATOM     14  C   UNL     1       1.927   8.498  18.224  0.00  0.00    +0.000 A 
ATOM     15  C   UNL     1       3.079   8.290  17.461  0.00  0.00    +0.000 A 
ATOM     16  C   UNL     1       3.943   7.267  17.821  0.00  0.00    +0.000 A 
ATOM     17  F   UNL     1       5.174   7.219  17.301  0.00  0.00    +0.000 F 
ATOM     18  C   UNL     1       3.565   6.329  18.772  0.00  0.00    +0.000 A 
ATOM     19  C   UNL     1       2.456   6.595  19.569  0.00  0.00    +0.000 A 
ATOM     20  C   UNL     1       1.799   7.807  19.429  0.00  0.00    +0.000 A 
ATOM     21  N   UNL     1       1.230   8.399  20.479  0.00  0.00    +0.000 NA
ATOM     22  C   UNL     1       0.811   9.669  20.294  0.00  0.00    +0.000 A 
ATOM     23 CL   UNL     1       1.017  10.639  21.705  0.00  0.00    +0.000 Cl
ENDBRANCH  10  12
BRANCH   8  24
ATOM     24  C   UNL     1      -3.278  12.671  20.816  0.00  0.00    +0.000 A 
ATOM     25  C   UNL     1      -4.397  12.904  19.997  0.00  0.00    +0.000 A 
ATOM     26  C   UNL     1      -5.667  13.101  20.568  0.00  0.00    +0.000 A 
ATOM     27  C   UNL     1      -5.833  13.062  21.947  0.00  0.00    +0.000 A 
ATOM     28  C   UNL     1      -4.739  12.833  22.779  0.00  0.00    +0.000 A 
ATOM     29  C   UNL     1      -3.472  12.631  22.209  0.00  0.00    +0.000 A 
BRANCH  29  30
ATOM     30  N   UNL     1      -2.353  12.469  23.117  0.00  0.00    +0.000 N 
ATOM     31  O   UNL     1      -1.904  13.501  23.638  0.00  0.00    +0.000 OA
ATOM     32  O   UNL     1      -2.008  11.310  23.384  0.00  0.00    +0.000 OA
ENDBRANCH  29  30
ENDBRANCH   8  24
TORSDOF 3
ENDMDL
MODEL 3
REMARK VINA RESULT:      -7.4      4.070      8.208
REMARK  Name = 
REMARK  3 active torsions:
REMARK  status: ('A' for Active; 'I' for Inactive)
REMARK    1  A    between atoms: C_8  and  C_9
REMARK    2  A    between atoms: C_14  and  N_15
REMARK    3  A    between atoms: C_19  and  C_20
REMARK                            x       y       z     vdW  Elec       q    Type
REMARK                         _______ _______ _______ _____ _____    ______ ____
ROOT
ATOM      1  O   UNL     1      -1.800  11.100  23.364  0.00  0.00    +0.000 OA
ATOM      2  C   UNL     1      -0.885  10.412  22.930  0.00  0.00    +0.000 C 
ATOM      3  C   UNL     1      -0.099   9.483  23.821  0.00  0.00    +0.000 C 
ATOM      4  S   UNL     1       1.148   8.770  22.747  0.00  0.00    +0.000 S 
ATOM      5  C   UNL     1       0.483   9.622  21.346  0.00  0.00    +0.000 C 
ATOM      6  N   UNL     1       1.078   9.405  20.116  0.00  0.00    +0.000 N 
ATOM      7  N   UNL     1       1.970   8.396  19.878  0.00  0.00    +0.000 NA
ATOM      8  C   UNL     1       2.122   8.280  18.597  0.00  0.00    +0.000 C 
ATOM      9  C   UNL     1       1.297   9.216  17.762  0.00  0.00    +0.000 C 
ATOM     10  C   UNL     1       0.534   9.956  18.860  0.00  0.00    +0.000 C 
ATOM     11  N   UNL     1      -0.529  10.397  21.596  0.00  0.00    +0.000 NA
ENDROOT
BRANCH  10  12
ATOM     12  C   UNL     1       0.676  11.447  18.742  0.00  0.00    +0.000 A 
ATOM     13  C   UNL     1       1.911  12.054  18.943  0.00  0.00    +0.000 A 
ATOM     14  C   UNL     1       2.029  13.406  18.619  0.00  0.00    +0.000 A 
ATOM     15  C   UNL     1       3.148  13.946  17.980  0.00  0.00    +0.000 A 
ATOM     16  C   UNL     1       3.153  15.298  17.672  0.00  0.00    +0.000 A 
ATOM     17  F   UNL     1       4.063  15.785  16.820  0.00  0.00    +0.000 F 
ATOM     18  C   UNL     1       2.177  16.141  18.185  0.00  0.00    +0.000 A 
ATOM     19  C   UNL     1       1.037  15.576  18.751  0.00  0.00    +0.000 A 
ATOM     20  C   UNL     1       0.888  14.199  18.736  0.00  0.00    +0.000 A 
ATOM     21  N   UNL     1      -0.321  13.646  18.626  0.00  0.00    +0.000 NA
ATOM     22  C   UNL     1      -0.350  12.316  18.396  0.00  0.00    +0.000 A 
ATOM     23 CL   UNL     1      -1.652  11.859  17.363  0.00  0.00    +0.000 Cl
ENDBRANCH  10  12
BRANCH   8  24
ATOM     24  C   UNL     1       3.022   7.293  17.981  0.00  0.00    +0.000 A 
ATOM     25  C   UNL     1       3.933   7.721  16.999  0.00  0.00    +0.000 A 
ATOM     26  C   UNL     1       4.854   6.817  16.441  0.00  0.00    +0.000 A 
ATOM     27  C   UNL     1       4.880   5.491  16.856  0.00  0.00    +0.000 A 
ATOM     28  C   UNL     1       3.987   5.043  17.827  0.00  0.00    +0.000 A 
ATOM     29  C   UNL     1       3.071   5.947  18.389  0.00  0.00    +0.000 A 
BRANCH  29  30
ATOM     30  N   UNL     1       2.115   5.419  19.342  0.00  0.00    +0.000 N 
ATOM     31  O   UNL     1       1.144   4.805  18.875  0.00  0.00    +0.000 OA
ATOM     32  O   UNL     1       2.399   5.525  20.542  0.00  0.00    +0.000 OA
ENDBRANCH  29  30
ENDBRANCH   8  24
TORSDOF 3
ENDMDL
MODEL 4
REMARK VINA RESULT:      -7.1      3.930      5.959
REMARK  Name = 
REMARK  3 active torsions:
REMARK  status: ('A' for Active; 'I' for Inactive)
REMARK    1  A    between atoms: C_8  and  C_9
REMARK    2  A    between atoms: C_14  and  N_15
REMARK    3  A    between atoms: C_19  and  C_20
REMARK                            x       y       z     vdW  Elec       q    Type
REMARK                         _______ _______ _______ _____ _____    ______ ____
ROOT
ATOM      1  O   UNL     1      -3.944   8.636  18.238  0.00  0.00    +0.000 OA
ATOM      2  C   UNL     1      -3.244   9.589  17.921  0.00  0.00    +0.000 C 
ATOM      3  C   UNL     1      -3.630  10.516  16.795  0.00  0.00    +0.000 C 
ATOM      4  S   UNL     1      -2.273  11.683  16.683  0.00  0.00    +0.000 S 
ATOM      5  C   UNL     1      -1.474  10.947  18.079  0.00  0.00    +0.000 C 
ATOM      6  N   UNL     1      -0.286  11.509  18.515  0.00  0.00    +0.000 N 
ATOM      7  N   UNL     1       0.167  12.730  18.098  0.00  0.00    +0.000 NA
ATOM      8  C   UNL     1       1.131  13.096  18.881  0.00  0.00    +0.000 C 
ATOM      9  C   UNL     1       1.454  12.144  19.995  0.00  0.00    +0.000 C 
ATOM     10  C   UNL     1       0.402  11.064  19.741  0.00  0.00    +0.000 C 
ATOM     11  N   UNL     1      -2.081   9.918  18.588  0.00  0.00    +0.000 NA
ENDROOT
BRANCH  10  12
ATOM     12  C   UNL     1       1.012   9.695  19.632  0.00  0.00    +0.000 A 
ATOM     13  C   UNL     1       1.483   9.232  18.408  0.00  0.00    +0.000 A 
ATOM     14  C   UNL     1       2.221   8.048  18.405  0.00  0.00    +0.000 A 
ATOM     15  C   UNL     1       3.365   7.859  17.625  0.00  0.00    +0.000 A 
ATOM     16  C   UNL     1       4.047   6.656  17.719  0.00  0.00    +0.000 A 
ATOM     17  F   UNL     1       5.282   6.547  17.216  0.00  0.00    +0.000 F 
ATOM     18  C   UNL     1       3.486   5.580  18.393  0.00  0.00    +0.000 A 
ATOM     19  C   UNL     1       2.391   5.808  19.222  0.00  0.00    +0.000 A 
ATOM     20  C   UNL     1       1.931   7.104  19.390  0.00  0.00    +0.000 A 
ATOM     21  N   UNL     1       1.405   7.495  20.552  0.00  0.00    +0.000 NA
ATOM     22  C   UNL     1       1.192   8.820  20.694  0.00  0.00    +0.000 A 
ATOM     23 CL   UNL     1       1.469   9.358  22.309  0.00  0.00    +0.000 Cl
ENDBRANCH  10  12
BRANCH   8  24
ATOM     24  C   UNL     1       1.861  14.363  18.718  0.00  0.00    +0.000 A 
ATOM     25  C   UNL     1       3.061  14.369  17.983  0.00  0.00    +0.000 A 
ATOM     26  C   UNL     1       3.746  15.574  17.750  0.00  0.00    +0.000 A 
ATOM     27  C   UNL     1       3.245  16.774  18.237  0.00  0.00    +0.000 A 
ATOM     28  C   UNL     1       2.059  16.794  18.969  0.00  0.00    +0.000 A 
ATOM     29  C   UNL     1       1.371  15.592  19.197  0.00  0.00    +0.000 A 
BRANCH  29  30
ATOM     30  N   UNL     1       0.182  15.653  20.023  0.00  0.00    +0.000 N 
ATOM     31  O   UNL     1       0.347  15.538  21.246  0.00  0.00    +0.000 OA
ATOM     32  O   UNL     1      -0.885  15.924  19.456  0.00  0.00    +0.000 OA
ENDBRANCH  29  30
ENDBRANCH   8  24
TORSDOF 3
ENDMDL
MODEL 5
REMARK VINA RESULT:      -7.0      3.895      7.266
REMARK  Name = 
REMARK  3 active torsions:
REMARK  status: ('A' for Active; 'I' for Inactive)
REMARK    1  A    between atoms: C_8  and  C_9
REMARK    2  A    between atoms: C_14  and  N_15
REMARK    3  A    between atoms: C_19  and  C_20
REMARK                            x       y       z     vdW  Elec       q    Type
REMARK                         _______ _______ _______ _____ _____    ______ ____
ROOT
ATOM      1  O   UNL     1      -1.859  17.193  20.389  0.00  0.00    +0.000 OA
ATOM      2  C   UNL     1      -1.173  16.268  19.972  0.00  0.00    +0.000 C 
ATOM      3  C   UNL     1       0.172  16.503  19.334  0.00  0.00    +0.000 C 
ATOM      4  S   UNL     1       0.731  14.872  18.839  0.00  0.00    +0.000 S 
ATOM      5  C   UNL     1      -0.697  14.122  19.563  0.00  0.00    +0.000 C 
ATOM      6  N   UNL     1      -0.798  12.742  19.511  0.00  0.00    +0.000 N 
ATOM      7  N   UNL     1       0.242  11.923  19.168  0.00  0.00    +0.000 NA
ATOM      8  C   UNL     1      -0.074  10.707  19.485  0.00  0.00    +0.000 C 
ATOM      9  C   UNL     1      -1.416  10.540  20.138  0.00  0.00    +0.000 C 
ATOM     10  C   UNL     1      -1.875  11.997  20.190  0.00  0.00    +0.000 C 
ATOM     11  N   UNL     1      -1.551  14.945  20.091  0.00  0.00    +0.000 NA
ENDROOT
BRANCH  10  12
ATOM     12  C   UNL     1      -3.229  12.186  19.568  0.00  0.00    +0.000 A 
ATOM     13  C   UNL     1      -4.222  12.883  20.246  0.00  0.00    +0.000 A 
ATOM     14  C   UNL     1      -5.383  13.206  19.542  0.00  0.00    +0.000 A 
ATOM     15  C   UNL     1      -6.032  14.439  19.656  0.00  0.00    +0.000 A 
ATOM     16  C   UNL     1      -7.161  14.673  18.887  0.00  0.00    +0.000 A 
ATOM     17  F   UNL     1      -7.633  15.918  18.756  0.00  0.00    +0.000 F 
ATOM     18  C   UNL     1      -7.768  13.635  18.194  0.00  0.00    +0.000 A 
ATOM     19  C   UNL     1      -7.070  12.442  18.031  0.00  0.00    +0.000 A 
ATOM     20  C   UNL     1      -5.776  12.346  18.517  0.00  0.00    +0.000 A 
ATOM     21  N   UNL     1      -4.866  11.600  17.889  0.00  0.00    +0.000 NA
ATOM     22  C   UNL     1      -3.589  11.742  18.302  0.00  0.00    +0.000 A 
ATOM     23 CL   UNL     1      -2.462  11.609  17.005  0.00  0.00    +0.000 Cl
ENDBRANCH  10  12
BRANCH   8  24
ATOM     24  C   UNL     1       0.813   9.559  19.247  0.00  0.00    +0.000 A 
ATOM     25  C   UNL     1       1.319   9.345  17.952  0.00  0.00    +0.000 A 
ATOM     26  C   UNL     1       2.224   8.298  17.707  0.00  0.00    +0.000 A 
ATOM     27  C   UNL     1       2.635   7.464  18.740  0.00  0.00    +0.000 A 
ATOM     28  C   UNL     1       2.147   7.656  20.031  0.00  0.00    +0.000 A 
ATOM     29  C   UNL     1       1.247   8.705  20.278  0.00  0.00    +0.000 A 
BRANCH  29  30
ATOM     30  N   UNL     1       0.712   8.820  21.620  0.00  0.00    +0.000 N 
ATOM     31  O   UNL     1      -0.289   8.138  21.881  0.00  0.00    +0.000 OA
ATOM     32  O   UNL     1       1.359   9.500  22.428  0.00  0.00    +0.000 OA
ENDBRANCH  29  30
ENDBRANCH   8  24
TORSDOF 3
ENDMDL
MODEL 6
REMARK VINA RESULT:      -7.0      3.498      7.425
REMARK  Name = 
REMARK  3 active torsions:
REMARK  status: ('A' for Active; 'I' for Inactive)
REMARK    1  A    between atoms: C_8  and  C_9
REMARK    2  A    between atoms: C_14  and  N_15
REMARK    3  A    between atoms: C_19  and  C_20
REMARK                            x       y       z     vdW  Elec       q    Type
REMARK                         _______ _______ _______ _____ _____    ______ ____
ROOT
ATOM      1  O   UNL     1      -0.726  17.340  24.340  0.00  0.00    +0.000 OA
ATOM      2  C   UNL     1      -0.280  16.495  23.574  0.00  0.00    +0.000 C 
ATOM      3  C   UNL     1       0.867  16.795  22.643  0.00  0.00    +0.000 C 
ATOM      4  S   UNL     1       1.095  15.286  21.701  0.00  0.00    +0.000 S 
ATOM      5  C   UNL     1      -0.167  14.469  22.633  0.00  0.00    +0.000 C 
ATOM      6  N   UNL     1      -0.428  13.141  22.341  0.00  0.00    +0.000 N 
ATOM      7  N   UNL     1       0.389  12.365  21.566  0.00  0.00    +0.000 NA
ATOM      8  C   UNL     1       0.036  11.128  21.713  0.00  0.00    +0.000 C 
ATOM      9  C   UNL     1      -1.097  10.890  22.669  0.00  0.00    +0.000 C 
ATOM     10  C   UNL     1      -1.363  12.322  23.134  0.00  0.00    +0.000 C 
ATOM     11  N   UNL     1      -0.756  15.199  23.531  0.00  0.00    +0.000 NA
ENDROOT
BRANCH  10  12
ATOM     12  C   UNL     1      -2.804  12.712  22.966  0.00  0.00    +0.000 A 
ATOM     13  C   UNL     1      -3.476  13.375  23.987  0.00  0.00    +0.000 A 
ATOM     14  C   UNL     1      -4.739  13.894  23.702  0.00  0.00    +0.000 A 
ATOM     15  C   UNL     1      -5.175  15.143  24.152  0.00  0.00    +0.000 A 
ATOM     16  C   UNL     1      -6.438  15.581  23.785  0.00  0.00    +0.000 A 
ATOM     17  F   UNL     1      -6.773  16.866  23.952  0.00  0.00    +0.000 F 
ATOM     18  C   UNL     1      -7.336  14.714  23.179  0.00  0.00    +0.000 A 
ATOM     19  C   UNL     1      -6.862  13.507  22.673  0.00  0.00    +0.000 A 
ATOM     20  C   UNL     1      -5.505  13.234  22.740  0.00  0.00    +0.000 A 
ATOM     21  N   UNL     1      -4.905  12.522  21.786  0.00  0.00    +0.000 NA
ATOM     22  C   UNL     1      -3.556  12.497  21.819  0.00  0.00    +0.000 A 
ATOM     23 CL   UNL     1      -2.862  12.473  20.241  0.00  0.00    +0.000 Cl
ENDBRANCH  10  12
BRANCH   8  24
ATOM     24  C   UNL     1       0.698  10.016  21.014  0.00  0.00    +0.000 A 
ATOM     25  C   UNL     1       1.036   8.860  21.741  0.00  0.00    +0.000 A 
ATOM     26  C   UNL     1       1.605   7.752  21.090  0.00  0.00    +0.000 A 
ATOM     27  C   UNL     1       1.837   7.782  19.721  0.00  0.00    +0.000 A 
ATOM     28  C   UNL     1       1.511   8.916  18.979  0.00  0.00    +0.000 A 
ATOM     29  C   UNL     1       0.937  10.020  19.628  0.00  0.00    +0.000 A 
BRANCH  29  30
ATOM     30  N   UNL     1       0.683  11.203  18.829  0.00  0.00    +0.000 N 
ATOM     31  O   UNL     1       1.646  11.955  18.624  0.00  0.00    +0.000 OA
ATOM     32  O   UNL     1      -0.444  11.309  18.324  0.00  0.00    +0.000 OA
ENDBRANCH  29  30
ENDBRANCH   8  24
TORSDOF 3
ENDMDL
MODEL 7
REMARK VINA RESULT:      -6.9      3.611      7.031
REMARK  Name = 
REMARK  3 active torsions:
REMARK  status: ('A' for Active; 'I' for Inactive)
REMARK    1  A    between atoms: C_8  and  C_9
REMARK    2  A    between atoms: C_14  and  N_15
REMARK    3  A    between atoms: C_19  and  C_20
REMARK                            x       y       z     vdW  Elec       q    Type
REMARK                         _______ _______ _______ _____ _____    ______ ____
ROOT
ATOM      1  O   UNL     1      -0.395  17.507  20.883  0.00  0.00    +0.000 OA
ATOM      2  C   UNL     1       0.059  16.501  20.353  0.00  0.00    +0.000 C 
ATOM      3  C   UNL     1       1.215  16.566  19.387  0.00  0.00    +0.000 C 
ATOM      4  S   UNL     1       1.452  14.873  18.846  0.00  0.00    +0.000 S 
ATOM      5  C   UNL     1       0.182  14.306  19.939  0.00  0.00    +0.000 C 
ATOM      6  N   UNL     1      -0.076  12.947  19.980  0.00  0.00    +0.000 N 
ATOM      7  N   UNL     1       0.748  12.006  19.427  0.00  0.00    +0.000 NA
ATOM      8  C   UNL     1       0.394  10.842  19.870  0.00  0.00    +0.000 C 
ATOM      9  C   UNL     1      -0.747  10.843  20.845  0.00  0.00    +0.000 C 
ATOM     10  C   UNL     1      -1.019  12.345  20.941  0.00  0.00    +0.000 C 
ATOM     11  N   UNL     1      -0.415  15.233  20.625  0.00  0.00    +0.000 NA
ENDROOT
BRANCH  10  12
ATOM     12  C   UNL     1      -2.458  12.678  20.670  0.00  0.00    +0.000 A 
ATOM     13  C   UNL     1      -3.024  12.389  19.433  0.00  0.00    +0.000 A 
ATOM     14  C   UNL     1      -4.407  12.529  19.305  0.00  0.00    +0.000 A 
ATOM     15  C   UNL     1      -5.208  11.622  18.605  0.00  0.00    +0.000 A 
ATOM     16  C   UNL     1      -6.577  11.833  18.566  0.00  0.00    +0.000 A 
ATOM     17  F   UNL     1      -7.392  10.853  18.159  0.00  0.00    +0.000 F 
ATOM     18  C   UNL     1      -7.118  13.031  19.012  0.00  0.00    +0.000 A 
ATOM     19  C   UNL     1      -6.320  13.883  19.770  0.00  0.00    +0.000 A 
ATOM     20  C   UNL     1      -5.035  13.487  20.101  0.00  0.00    +0.000 A 
ATOM     21  N   UNL     1      -4.487  13.851  21.261  0.00  0.00    +0.000 NA
ATOM     22  C   UNL     1      -3.329  13.240  21.592  0.00  0.00    +0.000 A 
ATOM     23 CL   UNL     1      -3.197  12.964  23.289  0.00  0.00    +0.000 Cl
ENDBRANCH  10  12
BRANCH   8  24
ATOM     24  C   UNL     1       1.063   9.594  19.472  0.00  0.00    +0.000 A 
ATOM     25  C   UNL     1       1.412   9.408  18.122  0.00  0.00    +0.000 A 
ATOM     26  C   UNL     1       2.114   8.258  17.722  0.00  0.00    +0.000 A 
ATOM     27  C   UNL     1       2.477   7.293  18.654  0.00  0.00    +0.000 A 
ATOM     28  C   UNL     1       2.142   7.455  19.997  0.00  0.00    +0.000 A 
ATOM     29  C   UNL     1       1.446   8.606  20.398  0.00  0.00    +0.000 A 
BRANCH  29  30
ATOM     30  N   UNL     1       1.057   8.696  21.792  0.00  0.00    +0.000 N 
ATOM     31  O   UNL     1       0.056   8.050  22.134  0.00  0.00    +0.000 OA
ATOM     32  O   UNL     1       1.815   9.317  22.549  0.00  0.00    +0.000 OA
ENDBRANCH  29  30
ENDBRANCH   8  24
TORSDOF 3
ENDMDL
MODEL 8
REMARK VINA RESULT:      -6.9      3.956      5.461
REMARK  Name = 
REMARK  3 active torsions:
REMARK  status: ('A' for Active; 'I' for Inactive)
REMARK    1  A    between atoms: C_8  and  C_9
REMARK    2  A    between atoms: C_14  and  N_15
REMARK    3  A    between atoms: C_19  and  C_20
REMARK                            x       y       z     vdW  Elec       q    Type
REMARK                         _______ _______ _______ _____ _____    ______ ____
ROOT
ATOM      1  O   UNL     1      -2.237   9.358  16.604  0.00  0.00    +0.000 OA
ATOM      2  C   UNL     1      -2.904  10.217  17.168  0.00  0.00    +0.000 C 
ATOM      3  C   UNL     1      -4.301  10.560  16.715  0.00  0.00    +0.000 C 
ATOM      4  S   UNL     1      -4.813  11.897  17.795  0.00  0.00    +0.000 S 
ATOM      5  C   UNL     1      -3.302  11.789  18.708  0.00  0.00    +0.000 C 
ATOM      6  N   UNL     1      -3.138  12.639  19.788  0.00  0.00    +0.000 N 
ATOM      7  N   UNL     1      -4.158  13.366  20.336  0.00  0.00    +0.000 NA
ATOM      8  C   UNL     1      -3.761  13.828  21.480  0.00  0.00    +0.000 C 
ATOM      9  C   UNL     1      -2.371  13.434  21.886  0.00  0.00    +0.000 C 
ATOM     10  C   UNL     1      -1.981  12.554  20.699  0.00  0.00    +0.000 C 
ATOM     11  N   UNL     1      -2.455  10.904  18.278  0.00  0.00    +0.000 NA
ENDROOT
BRANCH  10  12
ATOM     12  C   UNL     1      -0.685  12.987  20.075  0.00  0.00    +0.000 A 
ATOM     13  C   UNL     1      -0.553  14.266  19.545  0.00  0.00    +0.000 A 
ATOM     14  C   UNL     1       0.724  14.682  19.168  0.00  0.00    +0.000 A 
ATOM     15  C   UNL     1       1.215  15.969  19.412  0.00  0.00    +0.000 A 
ATOM     16  C   UNL     1       2.511  16.273  19.027  0.00  0.00    +0.000 A 
ATOM     17  F   UNL     1       3.103  17.379  19.491  0.00  0.00    +0.000 F 
ATOM     18  C   UNL     1       3.228  15.402  18.218  0.00  0.00    +0.000 A 
ATOM     19  C   UNL     1       2.756  14.103  18.052  0.00  0.00    +0.000 A 
ATOM     20  C   UNL     1       1.621  13.704  18.739  0.00  0.00    +0.000 A 
ATOM     21  N   UNL     1       1.487  12.447  19.161  0.00  0.00    +0.000 NA
ATOM     22  C   UNL     1       0.462  12.207  20.006  0.00  0.00    +0.000 A 
ATOM     23 CL   UNL     1       0.856  11.022  21.194  0.00  0.00    +0.000 Cl
ENDBRANCH  10  12
BRANCH   8  24
ATOM     24  C   UNL     1      -4.606  14.666  22.344  0.00  0.00    +0.000 A 
ATOM     25  C   UNL     1      -4.489  16.066  22.260  0.00  0.00    +0.000 A 
ATOM     26  C   UNL     1      -5.330  16.896  23.022  0.00  0.00    +0.000 A 
ATOM     27  C   UNL     1      -6.290  16.346  23.862  0.00  0.00    +0.000 A 
ATOM     28  C   UNL     1      -6.424  14.963  23.963  0.00  0.00    +0.000 A 
ATOM     29  C   UNL     1      -5.588  14.133  23.198  0.00  0.00    +0.000 A 
BRANCH  29  30
ATOM     30  N   UNL     1      -5.716  12.702  23.391  0.00  0.00    +0.000 N 
ATOM     31  O   UNL     1      -5.067  12.205  24.322  0.00  0.00    +0.000 OA
ATOM     32  O   UNL     1      -6.545  12.111  22.685  0.00  0.00    +0.000 OA
ENDBRANCH  29  30
ENDBRANCH   8  24
TORSDOF 3
ENDMDL
MODEL 9
REMARK VINA RESULT:      -6.8      3.793      5.167
REMARK  Name = 
REMARK  3 active torsions:
REMARK  status: ('A' for Active; 'I' for Inactive)
REMARK    1  A    between atoms: C_8  and  C_9
REMARK    2  A    between atoms: C_14  and  N_15
REMARK    3  A    between atoms: C_19  and  C_20
REMARK                            x       y       z     vdW  Elec       q    Type
REMARK                         _______ _______ _______ _____ _____    ______ ____
ROOT
ATOM      1  O   UNL     1      -2.359   9.440  15.738  0.00  0.00    +0.000 OA
ATOM      2  C   UNL     1      -3.006  10.237  16.407  0.00  0.00    +0.000 C 
ATOM      3  C   UNL     1      -4.361  10.727  15.965  0.00  0.00    +0.000 C 
ATOM      4  S   UNL     1      -4.852  11.905  17.225  0.00  0.00    +0.000 S 
ATOM      5  C   UNL     1      -3.391  11.566  18.163  0.00  0.00    +0.000 C 
ATOM      6  N   UNL     1      -3.232  12.224  19.371  0.00  0.00    +0.000 N 
ATOM      7  N   UNL     1      -4.237  12.914  19.991  0.00  0.00    +0.000 NA
ATOM      8  C   UNL     1      -3.869  13.165  21.208  0.00  0.00    +0.000 C 
ATOM      9  C   UNL     1      -2.520  12.632  21.596  0.00  0.00    +0.000 C 
ATOM     10  C   UNL     1      -2.123  11.929  20.298  0.00  0.00    +0.000 C 
ATOM     11  N   UNL     1      -2.572  10.712  17.629  0.00  0.00    +0.000 NA
ENDROOT
BRANCH  10  12
ATOM     12  C   UNL     1      -0.779  12.379  19.799  0.00  0.00    +0.000 A 
ATOM     13  C   UNL     1      -0.640  13.611  19.171  0.00  0.00    +0.000 A 
ATOM     14  C   UNL     1       0.654  14.066  18.915  0.00  0.00    +0.000 A 
ATOM     15  C   UNL     1       1.050  15.394  19.094  0.00  0.00    +0.000 A 
ATOM     16  C   UNL     1       2.370  15.737  18.844  0.00  0.00    +0.000 A 
ATOM     17  F   UNL     1       2.847  16.912  19.270  0.00  0.00    +0.000 F 
ATOM     18  C   UNL     1       3.223  14.841  18.215  0.00  0.00    +0.000 A 
ATOM     19  C   UNL     1       2.836  13.508  18.115  0.00  0.00    +0.000 A 
ATOM     20  C   UNL     1       1.642  13.107  18.693  0.00  0.00    +0.000 A 
ATOM     21  N   UNL     1       1.513  11.885  19.213  0.00  0.00    +0.000 NA
ATOM     22  C   UNL     1       0.401  11.663  19.945  0.00  0.00    +0.000 A 
ATOM     23 CL   UNL     1       0.695  10.611  21.279  0.00  0.00    +0.000 Cl
ENDBRANCH  10  12
BRANCH   8  24
ATOM     24  C   UNL     1      -4.707  13.904  22.164  0.00  0.00    +0.000 A 
ATOM     25  C   UNL     1      -4.109  14.882  22.980  0.00  0.00    +0.000 A 
ATOM     26  C   UNL     1      -4.893  15.654  23.855  0.00  0.00    +0.000 A 
ATOM     27  C   UNL     1      -6.268  15.466  23.920  0.00  0.00    +0.000 A 
ATOM     28  C   UNL     1      -6.883  14.503  23.122  0.00  0.00    +0.000 A 
ATOM     29  C   UNL     1      -6.101  13.736  22.244  0.00  0.00    +0.000 A 
BRANCH  29  30
ATOM     30  N   UNL     1      -6.774  12.698  21.489  0.00  0.00    +0.000 N 
ATOM     31  O   UNL     1      -6.736  11.552  21.958  0.00  0.00    +0.000 OA
ATOM     32  O   UNL     1      -7.426  13.056  20.498  0.00  0.00    +0.000 OA
ENDBRANCH  29  30
ENDBRANCH   8  24
TORSDOF 3
ENDMDL
