MODEL 1
REMARK VINA RESULT:      -7.6      0.000      0.000
REMARK  Name = 
REMARK  14 active torsions:
REMARK  status: ('A' for Active; 'I' for Inactive)
REMARK    1  A    between atoms: C_1  and  C_2
REMARK    2  A    between atoms: C_2  and  C_3
REMARK    3  A    between atoms: C_3  and  C_4
REMARK    4  A    between atoms: C_4  and  O_5
REMARK    5  A    between atoms: O_5  and  C_6
REMARK    6  A    between atoms: C_9  and  C_10
REMARK    7  A    between atoms: C_11  and  C_12
REMARK    8  A    between atoms: C_12  and  O_13
REMARK    9  A    between atoms: C_14  and  C_15
REMARK   10  A    between atoms: C_15  and  C_17
REMARK   11  A    between atoms: C_18  and  C_19
REMARK   12  A    between atoms: C_22  and  O_23
REMARK   13  A    between atoms: C_24  and  O_25
REMARK   14  A    between atoms: O_25  and  C_26
REMARK                            x       y       z     vdW  Elec       q    Type
REMARK                         _______ _______ _______ _____ _____    ______ ____
ROOT
ATOM      1  C   UNL     1       7.977   7.475  18.019  0.00  0.00    +0.000 C 
ATOM      2  C   UNL     1       7.970   6.275  18.620  0.00  0.00    +0.000 C 
ENDROOT
BRANCH   1   4
ATOM      3  C   UNL     1       8.619   9.866  18.069  0.00  0.00    +0.000 C 
ATOM      4  C   UNL     1       8.627   8.635  18.607  0.00  0.00    +0.000 C 
BRANCH   3   8
ATOM      5  C   UNL     1      10.908  13.139  19.591  0.00  0.00    +0.000 A 
ATOM      6  C   UNL     1      11.128  12.633  18.307  0.00  0.00    +0.000 A 
ATOM      7  C   UNL     1      10.380  11.557  17.829  0.00  0.00    +0.000 A 
ATOM      8  C   UNL     1       9.397  10.969  18.628  0.00  0.00    +0.000 A 
ATOM      9  C   UNL     1       9.176  11.461  19.916  0.00  0.00    +0.000 A 
ATOM     10  C   UNL     1       9.931  12.544  20.393  0.00  0.00    +0.000 A 
BRANCH   5  11
ATOM     11  O   UNL     1      11.589  14.198  20.145  0.00  0.00    +0.000 OA
BRANCH  11  12
ATOM     12  C   UNL     1      10.813  15.388  20.307  0.00  0.00    +0.000 C 
BRANCH  12  13
ATOM     13  C   UNL     1      10.698  16.166  18.999  0.00  0.00    +0.000 C 
BRANCH  13  15
ATOM     14  C   UNL     1       8.844  17.845  18.605  0.00  0.00    +0.000 C 
ATOM     15  C   UNL     1       9.222  16.376  18.656  0.00  0.00    +0.000 C 
ENDBRANCH  13  15
ENDBRANCH  12  13
ENDBRANCH  11  12
ENDBRANCH   5  11
ENDBRANCH   3   8
ENDBRANCH   1   4
BRANCH   1  16
ATOM     16  O   UNL     1       7.410   7.669  16.780  0.00  0.00    +0.000 OA
ATOM     17  H   UNL     1       6.468   7.879  16.895  0.00  0.00    +0.000 HD
ENDBRANCH   1  16
BRANCH   2  18
ATOM     18  C   UNL     1       7.395   5.052  17.992  0.00  0.00    +0.000 C 
ATOM     19  O   UNL     1       7.970   4.391  17.138  0.00  0.00    +0.000 OA
BRANCH  18  20
ATOM     20  C   UNL     1       6.061   4.655  18.526  0.00  0.00    +0.000 C 
ATOM     21  C   UNL     1       5.180   4.036  17.722  0.00  0.00    +0.000 C 
BRANCH  21  22
ATOM     22  C   UNL     1       3.812   3.662  18.113  0.00  0.00    +0.000 A 
ATOM     23  C   UNL     1       2.743   3.975  17.261  0.00  0.00    +0.000 A 
ATOM     24  C   UNL     1       1.428   3.682  17.634  0.00  0.00    +0.000 A 
ATOM     25  C   UNL     1       1.177   3.087  18.869  0.00  0.00    +0.000 A 
ATOM     26  C   UNL     1       2.225   2.785  19.748  0.00  0.00    +0.000 A 
ATOM     27  C   UNL     1       3.536   3.080  19.360  0.00  0.00    +0.000 A 
BRANCH  25  28
ATOM     28  O   UNL     1      -0.110   2.797  19.237  0.00  0.00    +0.000 OA
ATOM     29  H   UNL     1      -0.709   3.028  18.510  0.00  0.00    +0.000 HD
ENDBRANCH  25  28
BRANCH  26  30
ATOM     30  O   UNL     1       1.873   2.221  20.948  0.00  0.00    +0.000 OA
ATOM     31  C   UNL     1       2.104   2.991  22.120  0.00  0.00    +0.000 C 
ENDBRANCH  26  30
ENDBRANCH  21  22
ENDBRANCH  18  20
ENDBRANCH   2  18
TORSDOF 12
ENDMDL
MODEL 2
REMARK VINA RESULT:      -7.6      6.932     10.633
REMARK  Name = 
REMARK  14 active torsions:
REMARK  status: ('A' for Active; 'I' for Inactive)
REMARK    1  A    between atoms: C_1  and  C_2
REMARK    2  A    between atoms: C_2  and  C_3
REMARK    3  A    between atoms: C_3  and  C_4
REMARK    4  A    between atoms: C_4  and  O_5
REMARK    5  A    between atoms: O_5  and  C_6
REMARK    6  A    between atoms: C_9  and  C_10
REMARK    7  A    between atoms: C_11  and  C_12
REMARK    8  A    between atoms: C_12  and  O_13
REMARK    9  A    between atoms: C_14  and  C_15
REMARK   10  A    between atoms: C_15  and  C_17
REMARK   11  A    between atoms: C_18  and  C_19
REMARK   12  A    between atoms: C_22  and  O_23
REMARK   13  A    between atoms: C_24  and  O_25
REMARK   14  A    between atoms: O_25  and  C_26
REMARK                            x       y       z     vdW  Elec       q    Type
REMARK                         _______ _______ _______ _____ _____    ______ ____
ROOT
ATOM      1  C   UNL     1       1.964   8.204  19.453  0.00  0.00    +0.000 C 
ATOM      2  C   UNL     1       1.406   9.405  19.233  0.00  0.00    +0.000 C 
ENDROOT
BRANCH   1   4
ATOM      3  C   UNL     1       2.972   6.184  18.438  0.00  0.00    +0.000 C 
ATOM      4  C   UNL     1       2.731   7.505  18.435  0.00  0.00    +0.000 C 
BRANCH   3   8
ATOM      5  C   UNL     1       5.486   4.234  15.583  0.00  0.00    +0.000 A 
ATOM      6  C   UNL     1       4.645   3.506  16.427  0.00  0.00    +0.000 A 
ATOM      7  C   UNL     1       3.839   4.156  17.363  0.00  0.00    +0.000 A 
ATOM      8  C   UNL     1       3.859   5.549  17.466  0.00  0.00    +0.000 A 
ATOM      9  C   UNL     1       4.703   6.286  16.632  0.00  0.00    +0.000 A 
ATOM     10  C   UNL     1       5.513   5.627  15.694  0.00  0.00    +0.000 A 
BRANCH   5  11
ATOM     11  O   UNL     1       6.309   3.684  14.629  0.00  0.00    +0.000 OA
BRANCH  11  12
ATOM     12  C   UNL     1       6.541   4.514  13.488  0.00  0.00    +0.000 C 
BRANCH  12  13
ATOM     13  C   UNL     1       6.642   3.692  12.206  0.00  0.00    +0.000 C 
BRANCH  13  15
ATOM     14  C   UNL     1       4.333   3.399  11.209  0.00  0.00    +0.000 C 
ATOM     15  C   UNL     1       5.414   2.788  12.080  0.00  0.00    +0.000 C 
ENDBRANCH  13  15
ENDBRANCH  12  13
ENDBRANCH  11  12
ENDBRANCH   5  11
ENDBRANCH   3   8
ENDBRANCH   1   4
BRANCH   1  16
ATOM     16  O   UNL     1       1.885   7.582  20.678  0.00  0.00    +0.000 OA
ATOM     17  H   UNL     1       2.759   7.614  21.104  0.00  0.00    +0.000 HD
ENDBRANCH   1  16
BRANCH   2  18
ATOM     18  C   UNL     1       0.699  10.182  20.290  0.00  0.00    +0.000 C 
ATOM     19  O   UNL     1       1.207  10.498  21.357  0.00  0.00    +0.000 OA
BRANCH  18  20
ATOM     20  C   UNL     1      -0.686  10.597  19.926  0.00  0.00    +0.000 C 
ATOM     21  C   UNL     1      -1.153  10.341  18.692  0.00  0.00    +0.000 C 
BRANCH  21  22
ATOM     22  C   UNL     1      -2.472  10.764  18.194  0.00  0.00    +0.000 A 
ATOM     23  C   UNL     1      -2.825  10.491  16.865  0.00  0.00    +0.000 A 
ATOM     24  C   UNL     1      -4.048  10.932  16.351  0.00  0.00    +0.000 A 
ATOM     25  C   UNL     1      -4.917  11.659  17.162  0.00  0.00    +0.000 A 
ATOM     26  C   UNL     1      -4.578  11.965  18.486  0.00  0.00    +0.000 A 
ATOM     27  C   UNL     1      -3.352  11.514  18.989  0.00  0.00    +0.000 A 
BRANCH  25  28
ATOM     28  O   UNL     1      -6.116  12.091  16.661  0.00  0.00    +0.000 OA
ATOM     29  H   UNL     1      -6.280  11.659  15.809  0.00  0.00    +0.000 HD
ENDBRANCH  25  28
BRANCH  26  30
ATOM     30  O   UNL     1      -5.489  12.705  19.196  0.00  0.00    +0.000 OA
ATOM     31  C   UNL     1      -6.173  12.050  20.255  0.00  0.00    +0.000 C 
ENDBRANCH  26  30
ENDBRANCH  21  22
ENDBRANCH  18  20
ENDBRANCH   2  18
TORSDOF 12
ENDMDL
MODEL 3
REMARK VINA RESULT:      -7.5      1.634      1.928
REMARK  Name = 
REMARK  14 active torsions:
REMARK  status: ('A' for Active; 'I' for Inactive)
REMARK    1  A    between atoms: C_1  and  C_2
REMARK    2  A    between atoms: C_2  and  C_3
REMARK    3  A    between atoms: C_3  and  C_4
REMARK    4  A    between atoms: C_4  and  O_5
REMARK    5  A    between atoms: O_5  and  C_6
REMARK    6  A    between atoms: C_9  and  C_10
REMARK    7  A    between atoms: C_11  and  C_12
REMARK    8  A    between atoms: C_12  and  O_13
REMARK    9  A    between atoms: C_14  and  C_15
REMARK   10  A    between atoms: C_15  and  C_17
REMARK   11  A    between atoms: C_18  and  C_19
REMARK   12  A    between atoms: C_22  and  O_23
REMARK   13  A    between atoms: C_24  and  O_25
REMARK   14  A    between atoms: O_25  and  C_26
REMARK                            x       y       z     vdW  Elec       q    Type
REMARK                         _______ _______ _______ _____ _____    ______ ____
ROOT
ATOM      1  C   UNL     1       8.072   7.678  18.086  0.00  0.00    +0.000 C 
ATOM      2  C   UNL     1       7.396   7.090  17.086  0.00  0.00    +0.000 C 
ENDROOT
BRANCH   1   4
ATOM      3  C   UNL     1       9.176   9.711  18.969  0.00  0.00    +0.000 C 
ATOM      4  C   UNL     1       8.338   9.107  18.110  0.00  0.00    +0.000 C 
BRANCH   3   8
ATOM      5  C   UNL     1       9.664  13.948  19.252  0.00  0.00    +0.000 A 
ATOM      6  C   UNL     1      10.062  13.100  20.288  0.00  0.00    +0.000 A 
ATOM      7  C   UNL     1       9.885  11.719  20.185  0.00  0.00    +0.000 A 
ATOM      8  C   UNL     1       9.308  11.164  19.042  0.00  0.00    +0.000 A 
ATOM      9  C   UNL     1       8.898  12.003  18.004  0.00  0.00    +0.000 A 
ATOM     10  C   UNL     1       9.078  13.392  18.111  0.00  0.00    +0.000 A 
BRANCH   5  11
ATOM     11  O   UNL     1       9.803  15.316  19.258  0.00  0.00    +0.000 OA
BRANCH  11  12
ATOM     12  C   UNL     1       8.694  16.027  19.814  0.00  0.00    +0.000 C 
BRANCH  12  13
ATOM     13  C   UNL     1       8.153  17.072  18.842  0.00  0.00    +0.000 C 
BRANCH  13  15
ATOM     14  C   UNL     1       6.090  15.602  18.811  0.00  0.00    +0.000 C 
ATOM     15  C   UNL     1       6.624  17.022  18.837  0.00  0.00    +0.000 C 
ENDBRANCH  13  15
ENDBRANCH  12  13
ENDBRANCH  11  12
ENDBRANCH   5  11
ENDBRANCH   3   8
ENDBRANCH   1   4
BRANCH   1  16
ATOM     16  O   UNL     1       8.513   6.967  19.178  0.00  0.00    +0.000 OA
ATOM     17  H   UNL     1       9.419   6.658  19.008  0.00  0.00    +0.000 HD
ENDBRANCH   1  16
BRANCH   2  18
ATOM     18  C   UNL     1       7.029   5.646  17.087  0.00  0.00    +0.000 C 
ATOM     19  O   UNL     1       7.700   4.773  16.554  0.00  0.00    +0.000 OA
BRANCH  18  20
ATOM     20  C   UNL     1       5.785   5.329  17.845  0.00  0.00    +0.000 C 
ATOM     21  C   UNL     1       5.075   4.233  17.528  0.00  0.00    +0.000 C 
BRANCH  21  22
ATOM     22  C   UNL     1       3.798   3.856  18.153  0.00  0.00    +0.000 A 
ATOM     23  C   UNL     1       3.067   2.779  17.632  0.00  0.00    +0.000 A 
ATOM     24  C   UNL     1       1.824   2.436  18.171  0.00  0.00    +0.000 A 
ATOM     25  C   UNL     1       1.301   3.179  19.228  0.00  0.00    +0.000 A 
ATOM     26  C   UNL     1       2.000   4.273  19.753  0.00  0.00    +0.000 A 
ATOM     27  C   UNL     1       3.245   4.603  19.205  0.00  0.00    +0.000 A 
BRANCH  25  28
ATOM     28  O   UNL     1       0.084   2.844  19.759  0.00  0.00    +0.000 OA
ATOM     29  H   UNL     1      -0.275   2.083  19.279  0.00  0.00    +0.000 HD
ENDBRANCH  25  28
BRANCH  26  30
ATOM     30  O   UNL     1       1.392   4.954  20.776  0.00  0.00    +0.000 OA
ATOM     31  C   UNL     1       1.424   6.373  20.722  0.00  0.00    +0.000 C 
ENDBRANCH  26  30
ENDBRANCH  21  22
ENDBRANCH  18  20
ENDBRANCH   2  18
TORSDOF 12
ENDMDL
MODEL 4
REMARK VINA RESULT:      -7.4      7.222     10.765
REMARK  Name = 
REMARK  14 active torsions:
REMARK  status: ('A' for Active; 'I' for Inactive)
REMARK    1  A    between atoms: C_1  and  C_2
REMARK    2  A    between atoms: C_2  and  C_3
REMARK    3  A    between atoms: C_3  and  C_4
REMARK    4  A    between atoms: C_4  and  O_5
REMARK    5  A    between atoms: O_5  and  C_6
REMARK    6  A    between atoms: C_9  and  C_10
REMARK    7  A    between atoms: C_11  and  C_12
REMARK    8  A    between atoms: C_12  and  O_13
REMARK    9  A    between atoms: C_14  and  C_15
REMARK   10  A    between atoms: C_15  and  C_17
REMARK   11  A    between atoms: C_18  and  C_19
REMARK   12  A    between atoms: C_22  and  O_23
REMARK   13  A    between atoms: C_24  and  O_25
REMARK   14  A    between atoms: O_25  and  C_26
REMARK                            x       y       z     vdW  Elec       q    Type
REMARK                         _______ _______ _______ _____ _____    ______ ____
ROOT
ATOM      1  C   UNL     1       1.789   8.802  18.787  0.00  0.00    +0.000 C 
ATOM      2  C   UNL     1       1.454  10.047  18.413  0.00  0.00    +0.000 C 
ENDROOT
BRANCH   1   4
ATOM      3  C   UNL     1       3.289   6.908  18.247  0.00  0.00    +0.000 C 
ATOM      4  C   UNL     1       2.415   7.858  17.876  0.00  0.00    +0.000 C 
BRANCH   3   8
ATOM      5  C   UNL     1       5.432   4.544  15.402  0.00  0.00    +0.000 A 
ATOM      6  C   UNL     1       5.495   5.939  15.382  0.00  0.00    +0.000 A 
ATOM      7  C   UNL     1       4.780   6.697  16.310  0.00  0.00    +0.000 A 
ATOM      8  C   UNL     1       3.992   6.070  17.277  0.00  0.00    +0.000 A 
ATOM      9  C   UNL     1       3.915   4.676  17.300  0.00  0.00    +0.000 A 
ATOM     10  C   UNL     1       4.635   3.918  16.364  0.00  0.00    +0.000 A 
BRANCH   5  11
ATOM     11  O   UNL     1       6.104   3.715  14.535  0.00  0.00    +0.000 OA
BRANCH  11  12
ATOM     12  C   UNL     1       6.445   4.310  13.281  0.00  0.00    +0.000 C 
BRANCH  12  13
ATOM     13  C   UNL     1       6.715   3.254  12.213  0.00  0.00    +0.000 C 
BRANCH  13  15
ATOM     14  C   UNL     1       4.305   3.441  11.459  0.00  0.00    +0.000 C 
ATOM     15  C   UNL     1       5.419   2.507  11.892  0.00  0.00    +0.000 C 
ENDBRANCH  13  15
ENDBRANCH  12  13
ENDBRANCH  11  12
ENDBRANCH   5  11
ENDBRANCH   3   8
ENDBRANCH   1   4
BRANCH   1  16
ATOM     16  O   UNL     1       1.604   8.358  20.077  0.00  0.00    +0.000 OA
ATOM     17  H   UNL     1       2.179   7.590  20.231  0.00  0.00    +0.000 HD
ENDBRANCH   1  16
BRANCH   2  18
ATOM     18  C   UNL     1       0.902  11.061  19.355  0.00  0.00    +0.000 C 
ATOM     19  O   UNL     1       1.520  11.512  20.309  0.00  0.00    +0.000 OA
BRANCH  18  20
ATOM     20  C   UNL     1      -0.470  11.533  19.014  0.00  0.00    +0.000 C 
ATOM     21  C   UNL     1      -1.381  10.656  18.559  0.00  0.00    +0.000 C 
BRANCH  21  22
ATOM     22  C   UNL     1      -2.741  11.014  18.123  0.00  0.00    +0.000 A 
ATOM     23  C   UNL     1      -3.094  10.859  16.776  0.00  0.00    +0.000 A 
ATOM     24  C   UNL     1      -4.360  11.245  16.324  0.00  0.00    +0.000 A 
ATOM     25  C   UNL     1      -5.272  11.800  17.219  0.00  0.00    +0.000 A 
ATOM     26  C   UNL     1      -4.936  11.987  18.566  0.00  0.00    +0.000 A 
ATOM     27  C   UNL     1      -3.667  11.593  19.004  0.00  0.00    +0.000 A 
BRANCH  25  28
ATOM     28  O   UNL     1      -6.514  12.177  16.781  0.00  0.00    +0.000 OA
ATOM     29  H   UNL     1      -7.088  12.335  17.546  0.00  0.00    +0.000 HD
ENDBRANCH  25  28
BRANCH  26  30
ATOM     30  O   UNL     1      -5.893  12.563  19.362  0.00  0.00    +0.000 OA
ATOM     31  C   UNL     1      -5.607  13.847  19.898  0.00  0.00    +0.000 C 
ENDBRANCH  26  30
ENDBRANCH  21  22
ENDBRANCH  18  20
ENDBRANCH   2  18
TORSDOF 12
ENDMDL
MODEL 5
REMARK VINA RESULT:      -7.3      4.096     10.392
REMARK  Name = 
REMARK  14 active torsions:
REMARK  status: ('A' for Active; 'I' for Inactive)
REMARK    1  A    between atoms: C_1  and  C_2
REMARK    2  A    between atoms: C_2  and  C_3
REMARK    3  A    between atoms: C_3  and  C_4
REMARK    4  A    between atoms: C_4  and  O_5
REMARK    5  A    between atoms: O_5  and  C_6
REMARK    6  A    between atoms: C_9  and  C_10
REMARK    7  A    between atoms: C_11  and  C_12
REMARK    8  A    between atoms: C_12  and  O_13
REMARK    9  A    between atoms: C_14  and  C_15
REMARK   10  A    between atoms: C_15  and  C_17
REMARK   11  A    between atoms: C_18  and  C_19
REMARK   12  A    between atoms: C_22  and  O_23
REMARK   13  A    between atoms: C_24  and  O_25
REMARK   14  A    between atoms: O_25  and  C_26
REMARK                            x       y       z     vdW  Elec       q    Type
REMARK                         _______ _______ _______ _____ _____    ______ ____
ROOT
ATOM      1  C   UNL     1       9.167  10.674  18.772  0.00  0.00    +0.000 C 
ATOM      2  C   UNL     1       9.725  10.617  19.992  0.00  0.00    +0.000 C 
ENDROOT
BRANCH   1   4
ATOM      3  C   UNL     1       8.367   8.331  18.755  0.00  0.00    +0.000 C 
ATOM      4  C   UNL     1       8.476   9.541  18.180  0.00  0.00    +0.000 C 
BRANCH   3   8
ATOM      5  C   UNL     1       6.634   4.926  16.838  0.00  0.00    +0.000 A 
ATOM      6  C   UNL     1       7.395   4.796  18.002  0.00  0.00    +0.000 A 
ATOM      7  C   UNL     1       7.965   5.916  18.609  0.00  0.00    +0.000 A 
ATOM      8  C   UNL     1       7.778   7.187  18.062  0.00  0.00    +0.000 A 
ATOM      9  C   UNL     1       7.026   7.328  16.895  0.00  0.00    +0.000 A 
ATOM     10  C   UNL     1       6.455   6.198  16.286  0.00  0.00    +0.000 A 
BRANCH   5  11
ATOM     11  O   UNL     1       6.029   3.885  16.174  0.00  0.00    +0.000 OA
BRANCH  11  12
ATOM     12  C   UNL     1       6.425   3.738  14.808  0.00  0.00    +0.000 C 
BRANCH  12  13
ATOM     13  C   UNL     1       5.234   3.869  13.861  0.00  0.00    +0.000 C 
BRANCH  13  15
ATOM     14  C   UNL     1       4.477   3.278  11.518  0.00  0.00    +0.000 C 
ATOM     15  C   UNL     1       5.661   3.481  12.445  0.00  0.00    +0.000 C 
ENDBRANCH  13  15
ENDBRANCH  12  13
ENDBRANCH  11  12
ENDBRANCH   5  11
ENDBRANCH   3   8
ENDBRANCH   1   4
BRANCH   1  16
ATOM     16  O   UNL     1       9.174  11.830  18.025  0.00  0.00    +0.000 OA
ATOM     17  H   UNL     1       9.863  11.759  17.343  0.00  0.00    +0.000 HD
ENDBRANCH   1  16
BRANCH   2  18
ATOM     18  C   UNL     1      10.354  11.794  20.657  0.00  0.00    +0.000 C 
ATOM     19  O   UNL     1      11.456  12.235  20.360  0.00  0.00    +0.000 OA
BRANCH  18  20
ATOM     20  C   UNL     1       9.504  12.438  21.699  0.00  0.00    +0.000 C 
ATOM     21  C   UNL     1       8.615  11.697  22.382  0.00  0.00    +0.000 C 
BRANCH  21  22
ATOM     22  C   UNL     1       7.674  12.232  23.380  0.00  0.00    +0.000 A 
ATOM     23  C   UNL     1       7.791  11.833  24.718  0.00  0.00    +0.000 A 
ATOM     24  C   UNL     1       6.875  12.281  25.675  0.00  0.00    +0.000 A 
ATOM     25  C   UNL     1       5.832  13.122  25.292  0.00  0.00    +0.000 A 
ATOM     26  C   UNL     1       5.680  13.517  23.957  0.00  0.00    +0.000 A 
ATOM     27  C   UNL     1       6.606  13.063  23.011  0.00  0.00    +0.000 A 
BRANCH  25  28
ATOM     28  O   UNL     1       4.934  13.564  26.228  0.00  0.00    +0.000 OA
ATOM     29  H   UNL     1       5.413  14.009  26.943  0.00  0.00    +0.000 HD
ENDBRANCH  25  28
BRANCH  26  30
ATOM     30  O   UNL     1       4.608  14.326  23.676  0.00  0.00    +0.000 OA
ATOM     31  C   UNL     1       4.872  15.708  23.481  0.00  0.00    +0.000 C 
ENDBRANCH  26  30
ENDBRANCH  21  22
ENDBRANCH  18  20
ENDBRANCH   2  18
TORSDOF 12
ENDMDL
MODEL 6
REMARK VINA RESULT:      -7.3      1.248      1.672
REMARK  Name = 
REMARK  14 active torsions:
REMARK  status: ('A' for Active; 'I' for Inactive)
REMARK    1  A    between atoms: C_1  and  C_2
REMARK    2  A    between atoms: C_2  and  C_3
REMARK    3  A    between atoms: C_3  and  C_4
REMARK    4  A    between atoms: C_4  and  O_5
REMARK    5  A    between atoms: O_5  and  C_6
REMARK    6  A    between atoms: C_9  and  C_10
REMARK    7  A    between atoms: C_11  and  C_12
REMARK    8  A    between atoms: C_12  and  O_13
REMARK    9  A    between atoms: C_14  and  C_15
REMARK   10  A    between atoms: C_15  and  C_17
REMARK   11  A    between atoms: C_18  and  C_19
REMARK   12  A    between atoms: C_22  and  O_23
REMARK   13  A    between atoms: C_24  and  O_25
REMARK   14  A    between atoms: O_25  and  C_26
REMARK                            x       y       z     vdW  Elec       q    Type
REMARK                         _______ _______ _______ _____ _____    ______ ____
ROOT
ATOM      1  C   UNL     1       7.976   7.291  18.128  0.00  0.00    +0.000 C 
ATOM      2  C   UNL     1       7.408   6.549  17.165  0.00  0.00    +0.000 C 
ENDROOT
BRANCH   1   4
ATOM      3  C   UNL     1       8.998   9.486  18.646  0.00  0.00    +0.000 C 
ATOM      4  C   UNL     1       8.053   8.741  18.049  0.00  0.00    +0.000 C 
BRANCH   3   8
ATOM      5  C   UNL     1       8.981  13.760  18.713  0.00  0.00    +0.000 A 
ATOM      6  C   UNL     1       9.577  13.020  19.737  0.00  0.00    +0.000 A 
ATOM      7  C   UNL     1       9.564  11.625  19.706  0.00  0.00    +0.000 A 
ATOM      8  C   UNL     1       8.955  10.947  18.648  0.00  0.00    +0.000 A 
ATOM      9  C   UNL     1       8.349  11.678  17.624  0.00  0.00    +0.000 A 
ATOM     10  C   UNL     1       8.364  13.081  17.659  0.00  0.00    +0.000 A 
BRANCH   5  11
ATOM     11  O   UNL     1       8.949  15.134  18.653  0.00  0.00    +0.000 OA
BRANCH  11  12
ATOM     12  C   UNL     1       9.038  15.790  19.921  0.00  0.00    +0.000 C 
BRANCH  12  13
ATOM     13  C   UNL     1       9.664  17.176  19.793  0.00  0.00    +0.000 C 
BRANCH  13  15
ATOM     14  C   UNL     1      11.764  15.962  20.522  0.00  0.00    +0.000 C 
ATOM     15  C   UNL     1      11.179  17.039  19.627  0.00  0.00    +0.000 C 
ENDBRANCH  13  15
ENDBRANCH  12  13
ENDBRANCH  11  12
ENDBRANCH   5  11
ENDBRANCH   3   8
ENDBRANCH   1   4
BRANCH   1  16
ATOM     16  O   UNL     1       8.481   6.725  19.276  0.00  0.00    +0.000 OA
ATOM     17  H   UNL     1       7.820   6.112  19.641  0.00  0.00    +0.000 HD
ENDBRANCH   1  16
BRANCH   2  18
ATOM     18  C   UNL     1       7.233   5.072  17.269  0.00  0.00    +0.000 C 
ATOM     19  O   UNL     1       8.048   4.260  16.855  0.00  0.00    +0.000 OA
BRANCH  18  20
ATOM     20  C   UNL     1       5.989   4.649  17.972  0.00  0.00    +0.000 C 
ATOM     21  C   UNL     1       4.971   4.127  17.267  0.00  0.00    +0.000 C 
BRANCH  21  22
ATOM     22  C   UNL     1       3.670   3.741  17.837  0.00  0.00    +0.000 A 
ATOM     23  C   UNL     1       2.495   4.041  17.135  0.00  0.00    +0.000 A 
ATOM     24  C   UNL     1       1.244   3.736  17.681  0.00  0.00    +0.000 A 
ATOM     25  C   UNL     1       1.166   3.141  18.939  0.00  0.00    +0.000 A 
ATOM     26  C   UNL     1       2.325   2.852  19.671  0.00  0.00    +0.000 A 
ATOM     27  C   UNL     1       3.570   3.159  19.111  0.00  0.00    +0.000 A 
BRANCH  25  28
ATOM     28  O   UNL     1      -0.057   2.840  19.475  0.00  0.00    +0.000 OA
ATOM     29  H   UNL     1      -0.063   3.085  20.413  0.00  0.00    +0.000 HD
ENDBRANCH  25  28
BRANCH  26  30
ATOM     30  O   UNL     1       2.143   2.288  20.908  0.00  0.00    +0.000 OA
ATOM     31  C   UNL     1       2.194   3.156  22.031  0.00  0.00    +0.000 C 
ENDBRANCH  26  30
ENDBRANCH  21  22
ENDBRANCH  18  20
ENDBRANCH   2  18
TORSDOF 12
ENDMDL
MODEL 7
REMARK VINA RESULT:      -7.2      8.091     11.828
REMARK  Name = 
REMARK  14 active torsions:
REMARK  status: ('A' for Active; 'I' for Inactive)
REMARK    1  A    between atoms: C_1  and  C_2
REMARK    2  A    between atoms: C_2  and  C_3
REMARK    3  A    between atoms: C_3  and  C_4
REMARK    4  A    between atoms: C_4  and  O_5
REMARK    5  A    between atoms: O_5  and  C_6
REMARK    6  A    between atoms: C_9  and  C_10
REMARK    7  A    between atoms: C_11  and  C_12
REMARK    8  A    between atoms: C_12  and  O_13
REMARK    9  A    between atoms: C_14  and  C_15
REMARK   10  A    between atoms: C_15  and  C_17
REMARK   11  A    between atoms: C_18  and  C_19
REMARK   12  A    between atoms: C_22  and  O_23
REMARK   13  A    between atoms: C_24  and  O_25
REMARK   14  A    between atoms: O_25  and  C_26
REMARK                            x       y       z     vdW  Elec       q    Type
REMARK                         _______ _______ _______ _____ _____    ______ ____
ROOT
ATOM      1  C   UNL     1       0.781  10.127  18.774  0.00  0.00    +0.000 C 
ATOM      2  C   UNL     1      -0.412  10.336  19.354  0.00  0.00    +0.000 C 
ENDROOT
BRANCH   1   4
ATOM      3  C   UNL     1       2.323   8.295  18.145  0.00  0.00    +0.000 C 
ATOM      4  C   UNL     1       1.587   8.951  19.058  0.00  0.00    +0.000 C 
BRANCH   3   8
ATOM      5  C   UNL     1       4.231   4.589  19.092  0.00  0.00    +0.000 A 
ATOM      6  C   UNL     1       3.254   5.138  19.926  0.00  0.00    +0.000 A 
ATOM      7  C   UNL     1       2.649   6.354  19.610  0.00  0.00    +0.000 A 
ATOM      8  C   UNL     1       3.010   7.041  18.449  0.00  0.00    +0.000 A 
ATOM      9  C   UNL     1       3.991   6.506  17.612  0.00  0.00    +0.000 A 
ATOM     10  C   UNL     1       4.598   5.282  17.935  0.00  0.00    +0.000 A 
BRANCH   5  11
ATOM     11  O   UNL     1       4.876   3.395  19.316  0.00  0.00    +0.000 OA
BRANCH  11  12
ATOM     12  C   UNL     1       4.014   2.299  19.630  0.00  0.00    +0.000 C 
BRANCH  12  13
ATOM     13  C   UNL     1       3.560   1.564  18.372  0.00  0.00    +0.000 C 
BRANCH  13  15
ATOM     14  C   UNL     1       1.179   2.329  18.770  0.00  0.00    +0.000 C 
ATOM     15  C   UNL     1       2.331   2.263  17.786  0.00  0.00    +0.000 C 
ENDBRANCH  13  15
ENDBRANCH  12  13
ENDBRANCH  11  12
ENDBRANCH   5  11
ENDBRANCH   3   8
ENDBRANCH   1   4
BRANCH   1  16
ATOM     16  O   UNL     1       1.292  10.992  17.834  0.00  0.00    +0.000 OA
ATOM     17  H   UNL     1       2.228  11.159  18.036  0.00  0.00    +0.000 HD
ENDBRANCH   1  16
BRANCH   2  18
ATOM     18  C   UNL     1      -1.297  11.484  19.007  0.00  0.00    +0.000 C 
ATOM     19  O   UNL     1      -1.793  11.650  17.901  0.00  0.00    +0.000 OA
BRANCH  18  20
ATOM     20  C   UNL     1      -1.580  12.407  20.142  0.00  0.00    +0.000 C 
ATOM     21  C   UNL     1      -1.782  11.905  21.372  0.00  0.00    +0.000 C 
BRANCH  21  22
ATOM     22  C   UNL     1      -2.139  12.708  22.553  0.00  0.00    +0.000 A 
ATOM     23  C   UNL     1      -3.436  12.619  23.079  0.00  0.00    +0.000 A 
ATOM     24  C   UNL     1      -3.818  13.412  24.164  0.00  0.00    +0.000 A 
ATOM     25  C   UNL     1      -2.907  14.308  24.720  0.00  0.00    +0.000 A 
ATOM     26  C   UNL     1      -1.612  14.433  24.200  0.00  0.00    +0.000 A 
ATOM     27  C   UNL     1      -1.242  13.629  23.115  0.00  0.00    +0.000 A 
BRANCH  25  28
ATOM     28  O   UNL     1      -3.278  15.085  25.785  0.00  0.00    +0.000 OA
ATOM     29  H   UNL     1      -2.940  14.688  26.602  0.00  0.00    +0.000 HD
ENDBRANCH  25  28
BRANCH  26  30
ATOM     30  O   UNL     1      -0.797  15.357  24.801  0.00  0.00    +0.000 OA
ATOM     31  C   UNL     1      -0.507  16.540  24.069  0.00  0.00    +0.000 C 
ENDBRANCH  26  30
ENDBRANCH  21  22
ENDBRANCH  18  20
ENDBRANCH   2  18
TORSDOF 12
ENDMDL
MODEL 8
REMARK VINA RESULT:      -7.1      1.212      1.296
REMARK  Name = 
REMARK  14 active torsions:
REMARK  status: ('A' for Active; 'I' for Inactive)
REMARK    1  A    between atoms: C_1  and  C_2
REMARK    2  A    between atoms: C_2  and  C_3
REMARK    3  A    between atoms: C_3  and  C_4
REMARK    4  A    between atoms: C_4  and  O_5
REMARK    5  A    between atoms: O_5  and  C_6
REMARK    6  A    between atoms: C_9  and  C_10
REMARK    7  A    between atoms: C_11  and  C_12
REMARK    8  A    between atoms: C_12  and  O_13
REMARK    9  A    between atoms: C_14  and  C_15
REMARK   10  A    between atoms: C_15  and  C_17
REMARK   11  A    between atoms: C_18  and  C_19
REMARK   12  A    between atoms: C_22  and  O_23
REMARK   13  A    between atoms: C_24  and  O_25
REMARK   14  A    between atoms: O_25  and  C_26
REMARK                            x       y       z     vdW  Elec       q    Type
REMARK                         _______ _______ _______ _____ _____    ______ ____
ROOT
ATOM      1  C   UNL     1       7.999   7.916  18.081  0.00  0.00    +0.000 C 
ATOM      2  C   UNL     1       7.267   7.341  17.113  0.00  0.00    +0.000 C 
ENDROOT
BRANCH   1   4
ATOM      3  C   UNL     1       9.397   9.943  18.338  0.00  0.00    +0.000 C 
ATOM      4  C   UNL     1       8.205   9.353  18.151  0.00  0.00    +0.000 C 
BRANCH   3   8
ATOM      5  C   UNL     1       9.809  14.173  18.790  0.00  0.00    +0.000 A 
ATOM      6  C   UNL     1      10.425  13.491  17.738  0.00  0.00    +0.000 A 
ATOM      7  C   UNL     1      10.291  12.108  17.611  0.00  0.00    +0.000 A 
ATOM      8  C   UNL     1       9.534  11.384  18.535  0.00  0.00    +0.000 A 
ATOM      9  C   UNL     1       8.922  12.055  19.595  0.00  0.00    +0.000 A 
ATOM     10  C   UNL     1       9.060  13.446  19.720  0.00  0.00    +0.000 A 
BRANCH   5  11
ATOM     11  O   UNL     1       9.878  15.531  18.994  0.00  0.00    +0.000 OA
BRANCH  11  12
ATOM     12  C   UNL     1      10.943  15.954  19.850  0.00  0.00    +0.000 C 
BRANCH  12  13
ATOM     13  C   UNL     1      11.679  17.161  19.275  0.00  0.00    +0.000 C 
BRANCH  13  15
ATOM     14  C   UNL     1      11.023  18.629  17.319  0.00  0.00    +0.000 C 
ATOM     15  C   UNL     1      11.435  17.239  17.767  0.00  0.00    +0.000 C 
ENDBRANCH  13  15
ENDBRANCH  12  13
ENDBRANCH  11  12
ENDBRANCH   5  11
ENDBRANCH   3   8
ENDBRANCH   1   4
BRANCH   1  16
ATOM     16  O   UNL     1       8.561   7.179  19.098  0.00  0.00    +0.000 OA
ATOM     17  H   UNL     1       7.953   6.459  19.338  0.00  0.00    +0.000 HD
ENDBRANCH   1  16
BRANCH   2  18
ATOM     18  C   UNL     1       6.963   5.883  17.077  0.00  0.00    +0.000 C 
ATOM     19  O   UNL     1       7.810   5.015  16.909  0.00  0.00    +0.000 OA
BRANCH  18  20
ATOM     20  C   UNL     1       5.531   5.547  17.314  0.00  0.00    +0.000 C 
ATOM     21  C   UNL     1       5.214   4.511  18.110  0.00  0.00    +0.000 C 
BRANCH  21  22
ATOM     22  C   UNL     1       3.843   4.040  18.361  0.00  0.00    +0.000 A 
ATOM     23  C   UNL     1       2.796   4.505  17.553  0.00  0.00    +0.000 A 
ATOM     24  C   UNL     1       1.477   4.118  17.806  0.00  0.00    +0.000 A 
ATOM     25  C   UNL     1       1.199   3.273  18.879  0.00  0.00    +0.000 A 
ATOM     26  C   UNL     1       2.223   2.813  19.716  0.00  0.00    +0.000 A 
ATOM     27  C   UNL     1       3.540   3.205  19.448  0.00  0.00    +0.000 A 
BRANCH  25  28
ATOM     28  O   UNL     1      -0.092   2.891  19.128  0.00  0.00    +0.000 OA
ATOM     29  H   UNL     1      -0.120   2.381  19.953  0.00  0.00    +0.000 HD
ENDBRANCH  25  28
BRANCH  26  30
ATOM     30  O   UNL     1       1.846   2.005  20.758  0.00  0.00    +0.000 OA
ATOM     31  C   UNL     1       1.635   2.625  22.018  0.00  0.00    +0.000 C 
ENDBRANCH  26  30
ENDBRANCH  21  22
ENDBRANCH  18  20
ENDBRANCH   2  18
TORSDOF 12
ENDMDL
MODEL 9
REMARK VINA RESULT:      -7.1      3.026     10.970
REMARK  Name = 
REMARK  14 active torsions:
REMARK  status: ('A' for Active; 'I' for Inactive)
REMARK    1  A    between atoms: C_1  and  C_2
REMARK    2  A    between atoms: C_2  and  C_3
REMARK    3  A    between atoms: C_3  and  C_4
REMARK    4  A    between atoms: C_4  and  O_5
REMARK    5  A    between atoms: O_5  and  C_6
REMARK    6  A    between atoms: C_9  and  C_10
REMARK    7  A    between atoms: C_11  and  C_12
REMARK    8  A    between atoms: C_12  and  O_13
REMARK    9  A    between atoms: C_14  and  C_15
REMARK   10  A    between atoms: C_15  and  C_17
REMARK   11  A    between atoms: C_18  and  C_19
REMARK   12  A    between atoms: C_22  and  O_23
REMARK   13  A    between atoms: C_24  and  O_25
REMARK   14  A    between atoms: O_25  and  C_26
REMARK                            x       y       z     vdW  Elec       q    Type
REMARK                         _______ _______ _______ _____ _____    ______ ____
ROOT
ATOM      1  C   UNL     1       8.762  10.402  18.224  0.00  0.00    +0.000 C 
ATOM      2  C   UNL     1       9.745  10.355  19.136  0.00  0.00    +0.000 C 
ENDROOT
BRANCH   1   4
ATOM      3  C   UNL     1       8.192   7.993  18.283  0.00  0.00    +0.000 C 
ATOM      4  C   UNL     1       7.905   9.261  17.945  0.00  0.00    +0.000 C 
BRANCH   3   8
ATOM      5  C   UNL     1       5.736   4.758  16.953  0.00  0.00    +0.000 A 
ATOM      6  C   UNL     1       5.424   6.083  16.640  0.00  0.00    +0.000 A 
ATOM      7  C   UNL     1       6.230   7.129  17.091  0.00  0.00    +0.000 A 
ATOM      8  C   UNL     1       7.363   6.865  17.863  0.00  0.00    +0.000 A 
ATOM      9  C   UNL     1       7.679   5.545  18.189  0.00  0.00    +0.000 A 
ATOM     10  C   UNL     1       6.865   4.495  17.733  0.00  0.00    +0.000 A 
BRANCH   5  11
ATOM     11  O   UNL     1       5.008   3.663  16.549  0.00  0.00    +0.000 OA
BRANCH  11  12
ATOM     12  C   UNL     1       4.080   3.171  17.518  0.00  0.00    +0.000 C 
BRANCH  12  13
ATOM     13  C   UNL     1       2.636   3.423  17.092  0.00  0.00    +0.000 C 
BRANCH  13  15
ATOM     14  C   UNL     1       1.483   4.010  19.269  0.00  0.00    +0.000 C 
ATOM     15  C   UNL     1       2.034   4.533  17.956  0.00  0.00    +0.000 C 
ENDBRANCH  13  15
ENDBRANCH  12  13
ENDBRANCH  11  12
ENDBRANCH   5  11
ENDBRANCH   3   8
ENDBRANCH   1   4
BRANCH   1  16
ATOM     16  O   UNL     1       8.472  11.555  17.530  0.00  0.00    +0.000 OA
ATOM     17  H   UNL     1       7.991  12.163  18.117  0.00  0.00    +0.000 HD
ENDBRANCH   1  16
BRANCH   2  18
ATOM     18  C   UNL     1      10.572  11.538  19.507  0.00  0.00    +0.000 C 
ATOM     19  O   UNL     1      11.310  12.124  18.727  0.00  0.00    +0.000 OA
BRANCH  18  20
ATOM     20  C   UNL     1      10.393  11.996  20.914  0.00  0.00    +0.000 C 
ATOM     21  C   UNL     1       9.155  12.220  21.388  0.00  0.00    +0.000 C 
BRANCH  21  22
ATOM     22  C   UNL     1       8.857  12.741  22.732  0.00  0.00    +0.000 A 
ATOM     23  C   UNL     1       8.451  11.855  23.739  0.00  0.00    +0.000 A 
ATOM     24  C   UNL     1       8.107  12.331  25.007  0.00  0.00    +0.000 A 
ATOM     25  C   UNL     1       8.156  13.698  25.268  0.00  0.00    +0.000 A 
ATOM     26  C   UNL     1       8.536  14.608  24.273  0.00  0.00    +0.000 A 
ATOM     27  C   UNL     1       8.881  14.117  23.009  0.00  0.00    +0.000 A 
BRANCH  25  28
ATOM     28  O   UNL     1       7.821  14.168  26.511  0.00  0.00    +0.000 OA
ATOM     29  H   UNL     1       7.000  14.680  26.447  0.00  0.00    +0.000 HD
ENDBRANCH  25  28
BRANCH  26  30
ATOM     30  O   UNL     1       8.531  15.934  24.621  0.00  0.00    +0.000 OA
ATOM     31  C   UNL     1       8.661  16.882  23.571  0.00  0.00    +0.000 C 
ENDBRANCH  26  30
ENDBRANCH  21  22
ENDBRANCH  18  20
ENDBRANCH   2  18
TORSDOF 12
ENDMDL
