MODEL 1
REMARK VINA RESULT:      -7.6      0.000      0.000
REMARK  Name = 
REMARK  13 active torsions:
REMARK  status: ('A' for Active; 'I' for Inactive)
REMARK    1  A    between atoms: C_1  and  C_2
REMARK    2  A    between atoms: N_4  and  C_5
REMARK    3  A    between atoms: C_8  and  S_9
REMARK    4  A    between atoms: S_9  and  N_12
REMARK    5  A    between atoms: N_12  and  C_13
REMARK    6  A    between atoms: C_13  and  C_14
REMARK    7  A    between atoms: C_13  and  C_26
REMARK    8  A    between atoms: C_14  and  C_15
REMARK    9  A    between atoms: N_17  and  C_18
REMARK   10  A    between atoms: C_18  and  C_19
REMARK   11  A    between atoms: C_19  and  C_20
REMARK   12  A    between atoms: C_26  and  C_27
REMARK   13  A    between atoms: C_26  and  C_28
REMARK                            x       y       z     vdW  Elec       q    Type
REMARK                         _______ _______ _______ _____ _____    ______ ____
ROOT
ATOM      1  C   UNL     1       5.871   5.801  17.849  0.00  0.00    +0.000 C 
ENDROOT
BRANCH   1   2
ATOM      2  C   UNL     1       7.020   6.673  18.468  0.00  0.00    +0.000 C 
ATOM      3  C   UNL     1       8.129   5.839  19.126  0.00  0.00    +0.000 C 
ATOM      4  C   UNL     1       7.687   7.573  17.413  0.00  0.00    +0.000 C 
ENDBRANCH   1   2
BRANCH   1   5
ATOM      5  N   UNL     1       4.599   6.582  17.808  0.00  0.00    +0.000 NA
ATOM      6  H   UNL     1       4.685   7.599  17.837  0.00  0.00    +0.000 HD
BRANCH   5   7
ATOM      7  S   UNL     1       3.200   6.111  18.635  0.00  0.00    +0.000 S 
ATOM      8  O   UNL     1       3.590   5.584  19.928  0.00  0.00    +0.000 OA
ATOM      9  O   UNL     1       2.428   5.319  17.706  0.00  0.00    +0.000 OA
BRANCH   7  13
ATOM     10  C   UNL     1       0.892   9.969  19.325  0.00  0.00    +0.000 A 
ATOM     11  C   UNL     1       1.076   9.027  20.338  0.00  0.00    +0.000 A 
ATOM     12  C   UNL     1       1.822   7.878  20.114  0.00  0.00    +0.000 A 
ATOM     13  C   UNL     1       2.373   7.649  18.856  0.00  0.00    +0.000 A 
ATOM     14  C   UNL     1       2.211   8.575  17.823  0.00  0.00    +0.000 A 
ATOM     15  C   UNL     1       1.458   9.736  18.062  0.00  0.00    +0.000 A 
BRANCH  10  19
ATOM     16  C   UNL     1      -1.689  12.711  19.379  0.00  0.00    +0.000 C 
ATOM     17  C   UNL     1      -1.191  11.318  19.143  0.00  0.00    +0.000 C 
ATOM     18  O   UNL     1      -1.930  10.472  18.646  0.00  0.00    +0.000 OA
ATOM     19  N   UNL     1       0.132  11.138  19.536  0.00  0.00    +0.000 N 
ATOM     20  H   UNL     1       0.561  11.874  20.084  0.00  0.00    +0.000 HD
ENDBRANCH  10  19
ENDBRANCH   7  13
ENDBRANCH   5   7
ENDBRANCH   1   5
BRANCH   1  21
ATOM     21  C   UNL     1       6.258   5.224  16.475  0.00  0.00    +0.000 C 
BRANCH  21  22
ATOM     22  C   UNL     1       5.589   3.901  16.160  0.00  0.00    +0.000 C 
ATOM     23  O   UNL     1       5.773   3.324  15.089  0.00  0.00    +0.000 OA
ATOM     24  N   UNL     1       4.761   3.423  17.144  0.00  0.00    +0.000 N 
ATOM     25  H   UNL     1       4.948   3.752  18.090  0.00  0.00    +0.000 HD
BRANCH  24  26
ATOM     26  C   UNL     1       4.043   2.179  16.995  0.00  0.00    +0.000 C 
BRANCH  26  27
ATOM     27  C   UNL     1       3.883   1.438  18.326  0.00  0.00    +0.000 C 
BRANCH  27  28
ATOM     28  C   UNL     1       2.831   2.071  19.211  0.00  0.00    +0.000 C 
ATOM     29  C   UNL     1       1.579   2.287  18.771  0.00  0.00    +0.000 C 
ATOM     30  C   UNL     1       0.511   2.957  19.585  0.00  0.00    +0.000 C 
ATOM     31  C   UNL     1       1.059   3.666  20.823  0.00  0.00    +0.000 C 
ATOM     32  C   UNL     1       2.086   2.795  21.539  0.00  0.00    +0.000 C 
ATOM     33  C   UNL     1       3.255   2.447  20.614  0.00  0.00    +0.000 C 
ENDBRANCH  27  28
ENDBRANCH  26  27
ENDBRANCH  24  26
ENDBRANCH  21  22
ENDBRANCH   1  21
TORSDOF 10
ENDMDL
MODEL 2
REMARK VINA RESULT:      -7.4      3.020      6.580
REMARK  Name = 
REMARK  13 active torsions:
REMARK  status: ('A' for Active; 'I' for Inactive)
REMARK    1  A    between atoms: C_1  and  C_2
REMARK    2  A    between atoms: N_4  and  C_5
REMARK    3  A    between atoms: C_8  and  S_9
REMARK    4  A    between atoms: S_9  and  N_12
REMARK    5  A    between atoms: N_12  and  C_13
REMARK    6  A    between atoms: C_13  and  C_14
REMARK    7  A    between atoms: C_13  and  C_26
REMARK    8  A    between atoms: C_14  and  C_15
REMARK    9  A    between atoms: N_17  and  C_18
REMARK   10  A    between atoms: C_18  and  C_19
REMARK   11  A    between atoms: C_19  and  C_20
REMARK   12  A    between atoms: C_26  and  C_27
REMARK   13  A    between atoms: C_26  and  C_28
REMARK                            x       y       z     vdW  Elec       q    Type
REMARK                         _______ _______ _______ _____ _____    ______ ____
ROOT
ATOM      1  C   UNL     1       5.888   4.873  17.089  0.00  0.00    +0.000 C 
ENDROOT
BRANCH   1   2
ATOM      2  C   UNL     1       5.984   5.292  15.580  0.00  0.00    +0.000 C 
ATOM      3  C   UNL     1       5.461   4.216  14.616  0.00  0.00    +0.000 C 
ATOM      4  C   UNL     1       5.199   6.584  15.293  0.00  0.00    +0.000 C 
ENDBRANCH   1   2
BRANCH   1   5
ATOM      5  N   UNL     1       4.951   3.720  17.244  0.00  0.00    +0.000 NA
ATOM      6  H   UNL     1       4.293   3.560  16.481  0.00  0.00    +0.000 HD
BRANCH   5   7
ATOM      7  S   UNL     1       4.216   3.322  18.715  0.00  0.00    +0.000 S 
ATOM      8  O   UNL     1       5.256   3.106  19.702  0.00  0.00    +0.000 OA
ATOM      9  O   UNL     1       3.243   2.297  18.417  0.00  0.00    +0.000 OA
BRANCH   7  13
ATOM     10  C   UNL     1       2.167   7.268  19.673  0.00  0.00    +0.000 A 
ATOM     11  C   UNL     1       3.034   7.130  18.588  0.00  0.00    +0.000 A 
ATOM     12  C   UNL     1       3.612   5.904  18.291  0.00  0.00    +0.000 A 
ATOM     13  C   UNL     1       3.345   4.803  19.099  0.00  0.00    +0.000 A 
ATOM     14  C   UNL     1       2.478   4.908  20.190  0.00  0.00    +0.000 A 
ATOM     15  C   UNL     1       1.896   6.152  20.479  0.00  0.00    +0.000 A 
BRANCH  10  19
ATOM     16  C   UNL     1       0.637  10.710  19.690  0.00  0.00    +0.000 C 
ATOM     17  C   UNL     1       1.076   9.421  19.066  0.00  0.00    +0.000 C 
ATOM     18  O   UNL     1       0.977   9.256  17.853  0.00  0.00    +0.000 OA
ATOM     19  N   UNL     1       1.577   8.509  19.990  0.00  0.00    +0.000 N 
ATOM     20  H   UNL     1       1.439   8.717  20.972  0.00  0.00    +0.000 HD
ENDBRANCH  10  19
ENDBRANCH   7  13
ENDBRANCH   5   7
ENDBRANCH   1   5
BRANCH   1  21
ATOM     21  C   UNL     1       7.274   4.598  17.703  0.00  0.00    +0.000 C 
BRANCH  21  22
ATOM     22  C   UNL     1       7.752   5.689  18.639  0.00  0.00    +0.000 C 
ATOM     23  O   UNL     1       7.987   5.463  19.826  0.00  0.00    +0.000 OA
ATOM     24  N   UNL     1       7.879   6.929  18.066  0.00  0.00    +0.000 N 
ATOM     25  H   UNL     1       8.018   6.947  17.057  0.00  0.00    +0.000 HD
BRANCH  24  26
ATOM     26  C   UNL     1       8.316   8.077  18.826  0.00  0.00    +0.000 C 
BRANCH  26  27
ATOM     27  C   UNL     1       8.402   9.342  17.967  0.00  0.00    +0.000 C 
BRANCH  27  28
ATOM     28  C   UNL     1       9.301  10.393  18.584  0.00  0.00    +0.000 C 
ATOM     29  C   UNL     1       9.956  11.290  17.825  0.00  0.00    +0.000 C 
ATOM     30  C   UNL     1      10.900  12.319  18.376  0.00  0.00    +0.000 C 
ATOM     31  C   UNL     1      11.303  12.046  19.824  0.00  0.00    +0.000 C 
ATOM     32  C   UNL     1      10.093  11.642  20.660  0.00  0.00    +0.000 C 
ATOM     33  C   UNL     1       9.424  10.388  20.091  0.00  0.00    +0.000 C 
ENDBRANCH  27  28
ENDBRANCH  26  27
ENDBRANCH  24  26
ENDBRANCH  21  22
ENDBRANCH   1  21
TORSDOF 10
ENDMDL
MODEL 3
REMARK VINA RESULT:      -7.3      1.081      1.411
REMARK  Name = 
REMARK  13 active torsions:
REMARK  status: ('A' for Active; 'I' for Inactive)
REMARK    1  A    between atoms: C_1  and  C_2
REMARK    2  A    between atoms: N_4  and  C_5
REMARK    3  A    between atoms: C_8  and  S_9
REMARK    4  A    between atoms: S_9  and  N_12
REMARK    5  A    between atoms: N_12  and  C_13
REMARK    6  A    between atoms: C_13  and  C_14
REMARK    7  A    between atoms: C_13  and  C_26
REMARK    8  A    between atoms: C_14  and  C_15
REMARK    9  A    between atoms: N_17  and  C_18
REMARK   10  A    between atoms: C_18  and  C_19
REMARK   11  A    between atoms: C_19  and  C_20
REMARK   12  A    between atoms: C_26  and  C_27
REMARK   13  A    between atoms: C_26  and  C_28
REMARK                            x       y       z     vdW  Elec       q    Type
REMARK                         _______ _______ _______ _____ _____    ______ ____
ROOT
ATOM      1  C   UNL     1       5.643   5.972  17.765  0.00  0.00    +0.000 C 
ENDROOT
BRANCH   1   2
ATOM      2  C   UNL     1       6.868   6.804  18.284  0.00  0.00    +0.000 C 
ATOM      3  C   UNL     1       7.943   5.944  18.965  0.00  0.00    +0.000 C 
ATOM      4  C   UNL     1       7.556   7.581  17.147  0.00  0.00    +0.000 C 
ENDBRANCH   1   2
BRANCH   1   5
ATOM      5  N   UNL     1       4.398   6.795  17.833  0.00  0.00    +0.000 NA
ATOM      6  H   UNL     1       4.520   7.802  17.941  0.00  0.00    +0.000 HD
BRANCH   5   7
ATOM      7  S   UNL     1       3.013   6.303  18.671  0.00  0.00    +0.000 S 
ATOM      8  O   UNL     1       3.423   5.744  19.944  0.00  0.00    +0.000 OA
ATOM      9  O   UNL     1       2.226   5.533  17.735  0.00  0.00    +0.000 OA
BRANCH   7  13
ATOM     10  C   UNL     1       0.727  10.144  19.509  0.00  0.00    +0.000 A 
ATOM     11  C   UNL     1       1.012   9.219  20.515  0.00  0.00    +0.000 A 
ATOM     12  C   UNL     1       1.749   8.076  20.242  0.00  0.00    +0.000 A 
ATOM     13  C   UNL     1       2.189   7.834  18.944  0.00  0.00    +0.000 A 
ATOM     14  C   UNL     1       1.925   8.744  17.917  0.00  0.00    +0.000 A 
ATOM     15  C   UNL     1       1.182   9.899  18.205  0.00  0.00    +0.000 A 
BRANCH  10  19
ATOM     16  C   UNL     1      -0.767  13.324  20.867  0.00  0.00    +0.000 C 
ATOM     17  C   UNL     1       0.292  12.275  20.720  0.00  0.00    +0.000 C 
ATOM     18  O   UNL     1       1.312  12.324  21.403  0.00  0.00    +0.000 OA
ATOM     19  N   UNL     1      -0.026  11.308  19.771  0.00  0.00    +0.000 N 
ATOM     20  H   UNL     1      -0.819  11.489  19.168  0.00  0.00    +0.000 HD
ENDBRANCH  10  19
ENDBRANCH   7  13
ENDBRANCH   5   7
ENDBRANCH   1   5
BRANCH   1  21
ATOM     21  C   UNL     1       5.892   5.388  16.363  0.00  0.00    +0.000 C 
BRANCH  21  22
ATOM     22  C   UNL     1       5.337   3.990  16.178  0.00  0.00    +0.000 C 
ATOM     23  O   UNL     1       5.878   3.174  15.432  0.00  0.00    +0.000 OA
ATOM     24  N   UNL     1       4.192   3.724  16.886  0.00  0.00    +0.000 N 
ATOM     25  H   UNL     1       4.034   4.292  17.717  0.00  0.00    +0.000 HD
BRANCH  24  26
ATOM     26  C   UNL     1       3.534   2.440  16.813  0.00  0.00    +0.000 C 
BRANCH  26  27
ATOM     27  C   UNL     1       3.713   1.623  18.095  0.00  0.00    +0.000 C 
BRANCH  27  28
ATOM     28  C   UNL     1       2.888   2.167  19.242  0.00  0.00    +0.000 C 
ATOM     29  C   UNL     1       3.418   2.346  20.465  0.00  0.00    +0.000 C 
ATOM     30  C   UNL     1       2.635   2.832  21.650  0.00  0.00    +0.000 C 
ATOM     31  C   UNL     1       1.124   2.786  21.429  0.00  0.00    +0.000 C 
ATOM     32  C   UNL     1       0.760   3.316  20.046  0.00  0.00    +0.000 C 
ATOM     33  C   UNL     1       1.442   2.500  18.946  0.00  0.00    +0.000 C 
ENDBRANCH  27  28
ENDBRANCH  26  27
ENDBRANCH  24  26
ENDBRANCH  21  22
ENDBRANCH   1  21
TORSDOF 10
ENDMDL
MODEL 4
REMARK VINA RESULT:      -7.2      0.513      1.224
REMARK  Name = 
REMARK  13 active torsions:
REMARK  status: ('A' for Active; 'I' for Inactive)
REMARK    1  A    between atoms: C_1  and  C_2
REMARK    2  A    between atoms: N_4  and  C_5
REMARK    3  A    between atoms: C_8  and  S_9
REMARK    4  A    between atoms: S_9  and  N_12
REMARK    5  A    between atoms: N_12  and  C_13
REMARK    6  A    between atoms: C_13  and  C_14
REMARK    7  A    between atoms: C_13  and  C_26
REMARK    8  A    between atoms: C_14  and  C_15
REMARK    9  A    between atoms: N_17  and  C_18
REMARK   10  A    between atoms: C_18  and  C_19
REMARK   11  A    between atoms: C_19  and  C_20
REMARK   12  A    between atoms: C_26  and  C_27
REMARK   13  A    between atoms: C_26  and  C_28
REMARK                            x       y       z     vdW  Elec       q    Type
REMARK                         _______ _______ _______ _____ _____    ______ ____
ROOT
ATOM      1  C   UNL     1       6.211   5.698  17.437  0.00  0.00    +0.000 C 
ENDROOT
BRANCH   1   2
ATOM      2  C   UNL     1       7.484   6.558  17.756  0.00  0.00    +0.000 C 
ATOM      3  C   UNL     1       7.249   8.069  17.616  0.00  0.00    +0.000 C 
ATOM      4  C   UNL     1       8.002   6.305  19.184  0.00  0.00    +0.000 C 
ENDBRANCH   1   2
BRANCH   1   5
ATOM      5  N   UNL     1       4.978   6.528  17.596  0.00  0.00    +0.000 NA
ATOM      6  H   UNL     1       5.115   7.528  17.743  0.00  0.00    +0.000 HD
BRANCH   5   7
ATOM      7  S   UNL     1       3.626   6.010  18.471  0.00  0.00    +0.000 S 
ATOM      8  O   UNL     1       4.074   5.535  19.766  0.00  0.00    +0.000 OA
ATOM      9  O   UNL     1       2.870   5.159  17.582  0.00  0.00    +0.000 OA
BRANCH   7  13
ATOM     10  C   UNL     1       1.136   9.764  19.102  0.00  0.00    +0.000 A 
ATOM     11  C   UNL     1       1.260   8.785  20.089  0.00  0.00    +0.000 A 
ATOM     12  C   UNL     1       2.061   7.670  19.888  0.00  0.00    +0.000 A 
ATOM     13  C   UNL     1       2.730   7.512  18.678  0.00  0.00    +0.000 A 
ATOM     14  C   UNL     1       2.630   8.476  17.672  0.00  0.00    +0.000 A 
ATOM     15  C   UNL     1       1.820   9.602  17.887  0.00  0.00    +0.000 A 
BRANCH  10  19
ATOM     16  C   UNL     1      -1.531  12.422  19.030  0.00  0.00    +0.000 C 
ATOM     17  C   UNL     1      -0.966  11.057  18.784  0.00  0.00    +0.000 C 
ATOM     18  O   UNL     1      -1.628  10.212  18.187  0.00  0.00    +0.000 OA
ATOM     19  N   UNL     1       0.320  10.899  19.290  0.00  0.00    +0.000 N 
ATOM     20  H   UNL     1       0.672  11.623  19.905  0.00  0.00    +0.000 HD
ENDBRANCH  10  19
ENDBRANCH   7  13
ENDBRANCH   5   7
ENDBRANCH   1   5
BRANCH   1  21
ATOM     21  C   UNL     1       6.298   5.024  16.055  0.00  0.00    +0.000 C 
BRANCH  21  22
ATOM     22  C   UNL     1       5.266   3.935  15.843  0.00  0.00    +0.000 C 
ATOM     23  O   UNL     1       4.778   3.716  14.734  0.00  0.00    +0.000 OA
ATOM     24  N   UNL     1       4.916   3.242  16.974  0.00  0.00    +0.000 N 
ATOM     25  H   UNL     1       5.600   3.235  17.728  0.00  0.00    +0.000 HD
BRANCH  24  26
ATOM     26  C   UNL     1       3.940   2.177  16.942  0.00  0.00    +0.000 C 
BRANCH  26  27
ATOM     27  C   UNL     1       3.886   1.399  18.260  0.00  0.00    +0.000 C 
BRANCH  27  28
ATOM     28  C   UNL     1       2.992   2.066  19.283  0.00  0.00    +0.000 C 
ATOM     29  C   UNL     1       3.444   2.387  20.509  0.00  0.00    +0.000 C 
ATOM     30  C   UNL     1       2.589   3.000  21.580  0.00  0.00    +0.000 C 
ATOM     31  C   UNL     1       1.095   2.921  21.271  0.00  0.00    +0.000 C 
ATOM     32  C   UNL     1       0.819   3.288  19.816  0.00  0.00    +0.000 C 
ATOM     33  C   UNL     1       1.568   2.355  18.861  0.00  0.00    +0.000 C 
ENDBRANCH  27  28
ENDBRANCH  26  27
ENDBRANCH  24  26
ENDBRANCH  21  22
ENDBRANCH   1  21
TORSDOF 10
ENDMDL
MODEL 5
REMARK VINA RESULT:      -6.9      2.714      6.059
REMARK  Name = 
REMARK  13 active torsions:
REMARK  status: ('A' for Active; 'I' for Inactive)
REMARK    1  A    between atoms: C_1  and  C_2
REMARK    2  A    between atoms: N_4  and  C_5
REMARK    3  A    between atoms: C_8  and  S_9
REMARK    4  A    between atoms: S_9  and  N_12
REMARK    5  A    between atoms: N_12  and  C_13
REMARK    6  A    between atoms: C_13  and  C_14
REMARK    7  A    between atoms: C_13  and  C_26
REMARK    8  A    between atoms: C_14  and  C_15
REMARK    9  A    between atoms: N_17  and  C_18
REMARK   10  A    between atoms: C_18  and  C_19
REMARK   11  A    between atoms: C_19  and  C_20
REMARK   12  A    between atoms: C_26  and  C_27
REMARK   13  A    between atoms: C_26  and  C_28
REMARK                            x       y       z     vdW  Elec       q    Type
REMARK                         _______ _______ _______ _____ _____    ______ ____
ROOT
ATOM      1  C   UNL     1       4.930   5.333  17.437  0.00  0.00    +0.000 C 
ENDROOT
BRANCH   1   2
ATOM      2  C   UNL     1       5.169   5.229  15.890  0.00  0.00    +0.000 C 
ATOM      3  C   UNL     1       5.293   6.596  15.201  0.00  0.00    +0.000 C 
ATOM      4  C   UNL     1       6.444   4.432  15.561  0.00  0.00    +0.000 C 
ENDBRANCH   1   2
BRANCH   1   5
ATOM      5  N   UNL     1       3.573   4.812  17.784  0.00  0.00    +0.000 NA
ATOM      6  H   UNL     1       2.865   4.857  17.050  0.00  0.00    +0.000 HD
BRANCH   5   7
ATOM      7  S   UNL     1       2.843   5.071  19.287  0.00  0.00    +0.000 S 
ATOM      8  O   UNL     1       3.855   4.935  20.316  0.00  0.00    +0.000 OA
ATOM      9  O   UNL     1       1.648   4.259  19.303  0.00  0.00    +0.000 OA
BRANCH   7  13
ATOM     10  C   UNL     1       1.382   9.374  19.103  0.00  0.00    +0.000 A 
ATOM     11  C   UNL     1       1.316   8.621  20.276  0.00  0.00    +0.000 A 
ATOM     12  C   UNL     1       1.809   7.324  20.318  0.00  0.00    +0.000 A 
ATOM     13  C   UNL     1       2.353   6.758  19.169  0.00  0.00    +0.000 A 
ATOM     14  C   UNL     1       2.438   7.487  17.981  0.00  0.00    +0.000 A 
ATOM     15  C   UNL     1       1.939   8.799  17.951  0.00  0.00    +0.000 A 
BRANCH  10  19
ATOM     16  C   UNL     1       0.120  12.857  19.783  0.00  0.00    +0.000 C 
ATOM     17  C   UNL     1       0.834  11.582  20.112  0.00  0.00    +0.000 C 
ATOM     18  O   UNL     1       1.304  11.407  21.234  0.00  0.00    +0.000 OA
ATOM     19  N   UNL     1       0.879  10.691  19.045  0.00  0.00    +0.000 N 
ATOM     20  H   UNL     1       0.600  11.038  18.135  0.00  0.00    +0.000 HD
ENDBRANCH  10  19
ENDBRANCH   7  13
ENDBRANCH   5   7
ENDBRANCH   1   5
BRANCH   1  21
ATOM     21  C   UNL     1       6.050   4.651  18.244  0.00  0.00    +0.000 C 
BRANCH  21  22
ATOM     22  C   UNL     1       7.026   5.625  18.874  0.00  0.00    +0.000 C 
ATOM     23  O   UNL     1       7.479   5.444  20.004  0.00  0.00    +0.000 OA
ATOM     24  N   UNL     1       7.339   6.713  18.099  0.00  0.00    +0.000 N 
ATOM     25  H   UNL     1       7.221   6.598  17.093  0.00  0.00    +0.000 HD
BRANCH  24  26
ATOM     26  C   UNL     1       8.248   7.737  18.557  0.00  0.00    +0.000 C 
BRANCH  26  27
ATOM     27  C   UNL     1       8.179   9.001  17.696  0.00  0.00    +0.000 C 
BRANCH  27  28
ATOM     28  C   UNL     1       8.743  10.212  18.410  0.00  0.00    +0.000 C 
ATOM     29  C   UNL     1       9.358  10.102  19.601  0.00  0.00    +0.000 C 
ATOM     30  C   UNL     1       9.889  11.271  20.378  0.00  0.00    +0.000 C 
ATOM     31  C   UNL     1       9.378  12.615  19.860  0.00  0.00    +0.000 C 
ATOM     32  C   UNL     1       9.428  12.666  18.336  0.00  0.00    +0.000 C 
ATOM     33  C   UNL     1       8.583  11.548  17.719  0.00  0.00    +0.000 C 
ENDBRANCH  27  28
ENDBRANCH  26  27
ENDBRANCH  24  26
ENDBRANCH  21  22
ENDBRANCH   1  21
TORSDOF 10
ENDMDL
MODEL 6
REMARK VINA RESULT:      -6.8      2.812      6.386
REMARK  Name = 
REMARK  13 active torsions:
REMARK  status: ('A' for Active; 'I' for Inactive)
REMARK    1  A    between atoms: C_1  and  C_2
REMARK    2  A    between atoms: N_4  and  C_5
REMARK    3  A    between atoms: C_8  and  S_9
REMARK    4  A    between atoms: S_9  and  N_12
REMARK    5  A    between atoms: N_12  and  C_13
REMARK    6  A    between atoms: C_13  and  C_14
REMARK    7  A    between atoms: C_13  and  C_26
REMARK    8  A    between atoms: C_14  and  C_15
REMARK    9  A    between atoms: N_17  and  C_18
REMARK   10  A    between atoms: C_18  and  C_19
REMARK   11  A    between atoms: C_19  and  C_20
REMARK   12  A    between atoms: C_26  and  C_27
REMARK   13  A    between atoms: C_26  and  C_28
REMARK                            x       y       z     vdW  Elec       q    Type
REMARK                         _______ _______ _______ _____ _____    ______ ____
ROOT
ATOM      1  C   UNL     1       5.632   5.781  16.940  0.00  0.00    +0.000 C 
ENDROOT
BRANCH   1   2
ATOM      2  C   UNL     1       5.175   4.776  15.825  0.00  0.00    +0.000 C 
ATOM      3  C   UNL     1       5.474   5.269  14.402  0.00  0.00    +0.000 C 
ATOM      4  C   UNL     1       5.846   3.400  15.984  0.00  0.00    +0.000 C 
ENDBRANCH   1   2
BRANCH   1   5
ATOM      5  N   UNL     1       4.466   6.582  17.420  0.00  0.00    +0.000 NA
ATOM      6  H   UNL     1       4.643   7.565  17.632  0.00  0.00    +0.000 HD
BRANCH   5   7
ATOM      7  S   UNL     1       3.309   5.974  18.493  0.00  0.00    +0.000 S 
ATOM      8  O   UNL     1       3.994   5.462  19.663  0.00  0.00    +0.000 OA
ATOM      9  O   UNL     1       2.434   5.132  17.711  0.00  0.00    +0.000 OA
BRANCH   7  13
ATOM     10  C   UNL     1       0.854   9.595  19.740  0.00  0.00    +0.000 A 
ATOM     11  C   UNL     1       1.197   8.587  20.643  0.00  0.00    +0.000 A 
ATOM     12  C   UNL     1       1.984   7.515  20.248  0.00  0.00    +0.000 A 
ATOM     13  C   UNL     1       2.417   7.428  18.928  0.00  0.00    +0.000 A 
ATOM     14  C   UNL     1       2.095   8.423  18.002  0.00  0.00    +0.000 A 
ATOM     15  C   UNL     1       1.301   9.505  18.413  0.00  0.00    +0.000 A 
BRANCH  10  19
ATOM     16  C   UNL     1      -1.445  12.040  21.449  0.00  0.00    +0.000 C 
ATOM     17  C   UNL     1      -0.534  10.853  21.378  0.00  0.00    +0.000 C 
ATOM     18  O   UNL     1      -0.368  10.140  22.365  0.00  0.00    +0.000 OA
ATOM     19  N   UNL     1       0.050  10.687  20.126  0.00  0.00    +0.000 N 
ATOM     20  H   UNL     1      -0.046  11.446  19.462  0.00  0.00    +0.000 HD
ENDBRANCH  10  19
ENDBRANCH   7  13
ENDBRANCH   5   7
ENDBRANCH   1   5
BRANCH   1  21
ATOM     21  C   UNL     1       6.377   5.073  18.087  0.00  0.00    +0.000 C 
BRANCH  21  22
ATOM     22  C   UNL     1       7.392   5.953  18.789  0.00  0.00    +0.000 C 
ATOM     23  O   UNL     1       7.964   5.587  19.815  0.00  0.00    +0.000 OA
ATOM     24  N   UNL     1       7.599   7.177  18.203  0.00  0.00    +0.000 N 
ATOM     25  H   UNL     1       7.380   7.244  17.211  0.00  0.00    +0.000 HD
BRANCH  24  26
ATOM     26  C   UNL     1       8.529   8.135  18.754  0.00  0.00    +0.000 C 
BRANCH  26  27
ATOM     27  C   UNL     1       8.401   9.512  18.094  0.00  0.00    +0.000 C 
BRANCH  27  28
ATOM     28  C   UNL     1       9.416  10.500  18.629  0.00  0.00    +0.000 C 
ATOM     29  C   UNL     1      10.123  11.295  17.807  0.00  0.00    +0.000 C 
ATOM     30  C   UNL     1      11.178  12.254  18.276  0.00  0.00    +0.000 C 
ATOM     31  C   UNL     1      11.607  12.011  19.722  0.00  0.00    +0.000 C 
ATOM     32  C   UNL     1      10.396  11.761  20.615  0.00  0.00    +0.000 C 
ATOM     33  C   UNL     1       9.594  10.551  20.130  0.00  0.00    +0.000 C 
ENDBRANCH  27  28
ENDBRANCH  26  27
ENDBRANCH  24  26
ENDBRANCH  21  22
ENDBRANCH   1  21
TORSDOF 10
ENDMDL
MODEL 7
REMARK VINA RESULT:      -6.8      2.934      6.455
REMARK  Name = 
REMARK  13 active torsions:
REMARK  status: ('A' for Active; 'I' for Inactive)
REMARK    1  A    between atoms: C_1  and  C_2
REMARK    2  A    between atoms: N_4  and  C_5
REMARK    3  A    between atoms: C_8  and  S_9
REMARK    4  A    between atoms: S_9  and  N_12
REMARK    5  A    between atoms: N_12  and  C_13
REMARK    6  A    between atoms: C_13  and  C_14
REMARK    7  A    between atoms: C_13  and  C_26
REMARK    8  A    between atoms: C_14  and  C_15
REMARK    9  A    between atoms: N_17  and  C_18
REMARK   10  A    between atoms: C_18  and  C_19
REMARK   11  A    between atoms: C_19  and  C_20
REMARK   12  A    between atoms: C_26  and  C_27
REMARK   13  A    between atoms: C_26  and  C_28
REMARK                            x       y       z     vdW  Elec       q    Type
REMARK                         _______ _______ _______ _____ _____    ______ ____
ROOT
ATOM      1  C   UNL     1       5.959   5.134  16.468  0.00  0.00    +0.000 C 
ENDROOT
BRANCH   1   2
ATOM      2  C   UNL     1       6.355   4.298  15.201  0.00  0.00    +0.000 C 
ATOM      3  C   UNL     1       5.187   4.072  14.231  0.00  0.00    +0.000 C 
ATOM      4  C   UNL     1       7.489   4.969  14.405  0.00  0.00    +0.000 C 
ENDBRANCH   1   2
BRANCH   1   5
ATOM      5  N   UNL     1       4.472   5.246  16.565  0.00  0.00    +0.000 NA
ATOM      6  H   UNL     1       4.084   6.190  16.580  0.00  0.00    +0.000 HD
BRANCH   5   7
ATOM      7  S   UNL     1       3.534   4.237  17.546  0.00  0.00    +0.000 S 
ATOM      8  O   UNL     1       4.421   3.340  18.260  0.00  0.00    +0.000 OA
ATOM      9  O   UNL     1       2.473   3.730  16.708  0.00  0.00    +0.000 OA
BRANCH   7  13
ATOM     10  C   UNL     1       1.893   7.348  20.430  0.00  0.00    +0.000 A 
ATOM     11  C   UNL     1       2.375   7.693  19.167  0.00  0.00    +0.000 A 
ATOM     12  C   UNL     1       2.830   6.720  18.289  0.00  0.00    +0.000 A 
ATOM     13  C   UNL     1       2.829   5.385  18.681  0.00  0.00    +0.000 A 
ATOM     14  C   UNL     1       2.348   5.006  19.937  0.00  0.00    +0.000 A 
ATOM     15  C   UNL     1       1.887   5.999  20.816  0.00  0.00    +0.000 A 
BRANCH  10  19
ATOM     16  C   UNL     1      -0.093   9.731  22.566  0.00  0.00    +0.000 C 
ATOM     17  C   UNL     1       0.104   8.530  21.693  0.00  0.00    +0.000 C 
ATOM     18  O   UNL     1      -0.858   7.842  21.362  0.00  0.00    +0.000 OA
ATOM     19  N   UNL     1       1.433   8.327  21.336  0.00  0.00    +0.000 N 
ATOM     20  H   UNL     1       2.135   8.873  21.820  0.00  0.00    +0.000 HD
ENDBRANCH  10  19
ENDBRANCH   7  13
ENDBRANCH   5   7
ENDBRANCH   1   5
BRANCH   1  21
ATOM     21  C   UNL     1       6.597   4.577  17.754  0.00  0.00    +0.000 C 
BRANCH  21  22
ATOM     22  C   UNL     1       7.334   5.620  18.570  0.00  0.00    +0.000 C 
ATOM     23  O   UNL     1       7.692   5.399  19.726  0.00  0.00    +0.000 OA
ATOM     24  N   UNL     1       7.545   6.814  17.928  0.00  0.00    +0.000 N 
ATOM     25  H   UNL     1       7.550   6.783  16.909  0.00  0.00    +0.000 HD
BRANCH  24  26
ATOM     26  C   UNL     1       8.225   7.913  18.571  0.00  0.00    +0.000 C 
BRANCH  26  27
ATOM     27  C   UNL     1       8.295   9.155  17.677  0.00  0.00    +0.000 C 
BRANCH  27  28
ATOM     28  C   UNL     1       8.831  10.363  18.415  0.00  0.00    +0.000 C 
ATOM     29  C   UNL     1       9.428  10.245  19.615  0.00  0.00    +0.000 C 
ATOM     30  C   UNL     1       9.930  11.412  20.415  0.00  0.00    +0.000 C 
ATOM     31  C   UNL     1       9.411  12.755  19.906  0.00  0.00    +0.000 C 
ATOM     32  C   UNL     1       9.485  12.826  18.384  0.00  0.00    +0.000 C 
ATOM     33  C   UNL     1       8.666  11.706  17.739  0.00  0.00    +0.000 C 
ENDBRANCH  27  28
ENDBRANCH  26  27
ENDBRANCH  24  26
ENDBRANCH  21  22
ENDBRANCH   1  21
TORSDOF 10
ENDMDL
MODEL 8
REMARK VINA RESULT:      -6.8      2.361      7.879
REMARK  Name = 
REMARK  13 active torsions:
REMARK  status: ('A' for Active; 'I' for Inactive)
REMARK    1  A    between atoms: C_1  and  C_2
REMARK    2  A    between atoms: N_4  and  C_5
REMARK    3  A    between atoms: C_8  and  S_9
REMARK    4  A    between atoms: S_9  and  N_12
REMARK    5  A    between atoms: N_12  and  C_13
REMARK    6  A    between atoms: C_13  and  C_14
REMARK    7  A    between atoms: C_13  and  C_26
REMARK    8  A    between atoms: C_14  and  C_15
REMARK    9  A    between atoms: N_17  and  C_18
REMARK   10  A    between atoms: C_18  and  C_19
REMARK   11  A    between atoms: C_19  and  C_20
REMARK   12  A    between atoms: C_26  and  C_27
REMARK   13  A    between atoms: C_26  and  C_28
REMARK                            x       y       z     vdW  Elec       q    Type
REMARK                         _______ _______ _______ _____ _____    ______ ____
ROOT
ATOM      1  C   UNL     1       2.437   5.025  19.984  0.00  0.00    +0.000 C 
ENDROOT
BRANCH   1   2
ATOM      2  C   UNL     1       1.259   4.205  20.617  0.00  0.00    +0.000 C 
ATOM      3  C   UNL     1       0.464   3.389  19.587  0.00  0.00    +0.000 C 
ATOM      4  C   UNL     1       1.757   3.224  21.693  0.00  0.00    +0.000 C 
ENDBRANCH   1   2
BRANCH   1   5
ATOM      5  N   UNL     1       3.736   4.325  20.220  0.00  0.00    +0.000 NA
ATOM      6  H   UNL     1       4.532   4.911  20.474  0.00  0.00    +0.000 HD
BRANCH   5   7
ATOM      7  S   UNL     1       4.269   3.029  19.273  0.00  0.00    +0.000 S 
ATOM      8  O   UNL     1       3.111   2.387  18.683  0.00  0.00    +0.000 OA
ATOM      9  O   UNL     1       5.200   2.286  20.090  0.00  0.00    +0.000 OA
BRANCH   7  13
ATOM     10  C   UNL     1       6.618   4.956  15.889  0.00  0.00    +0.000 A 
ATOM     11  C   UNL     1       5.454   4.222  15.656  0.00  0.00    +0.000 A 
ATOM     12  C   UNL     1       4.731   3.681  16.710  0.00  0.00    +0.000 A 
ATOM     13  C   UNL     1       5.185   3.850  18.015  0.00  0.00    +0.000 A 
ATOM     14  C   UNL     1       6.344   4.584  18.281  0.00  0.00    +0.000 A 
ATOM     15  C   UNL     1       7.066   5.130  17.208  0.00  0.00    +0.000 A 
BRANCH  10  19
ATOM     16  C   UNL     1       8.387   5.723  12.654  0.00  0.00    +0.000 C 
ATOM     17  C   UNL     1       7.396   5.016  13.526  0.00  0.00    +0.000 C 
ATOM     18  O   UNL     1       6.715   4.100  13.072  0.00  0.00    +0.000 OA
ATOM     19  N   UNL     1       7.366   5.507  14.828  0.00  0.00    +0.000 N 
ATOM     20  H   UNL     1       7.860   6.372  15.011  0.00  0.00    +0.000 HD
ENDBRANCH  10  19
ENDBRANCH   7  13
ENDBRANCH   5   7
ENDBRANCH   1   5
BRANCH   1  21
ATOM     21  C   UNL     1       2.193   5.337  18.496  0.00  0.00    +0.000 C 
BRANCH  21  22
ATOM     22  C   UNL     1       2.590   6.744  18.095  0.00  0.00    +0.000 C 
ATOM     23  O   UNL     1       3.657   6.975  17.526  0.00  0.00    +0.000 OA
ATOM     24  N   UNL     1       1.686   7.718  18.433  0.00  0.00    +0.000 N 
ATOM     25  H   UNL     1       0.722   7.415  18.556  0.00  0.00    +0.000 HD
BRANCH  24  26
ATOM     26  C   UNL     1       1.920   9.111  18.129  0.00  0.00    +0.000 C 
BRANCH  26  27
ATOM     27  C   UNL     1       1.162  10.046  19.075  0.00  0.00    +0.000 C 
BRANCH  27  28
ATOM     28  C   UNL     1      -0.209  10.409  18.546  0.00  0.00    +0.000 C 
ATOM     29  C   UNL     1      -0.793   9.699  17.563  0.00  0.00    +0.000 C 
ATOM     30  C   UNL     1      -2.125  10.043  16.964  0.00  0.00    +0.000 C 
ATOM     31  C   UNL     1      -2.603  11.447  17.333  0.00  0.00    +0.000 C 
ATOM     32  C   UNL     1      -2.374  11.728  18.814  0.00  0.00    +0.000 C 
ATOM     33  C   UNL     1      -0.891  11.603  19.176  0.00  0.00    +0.000 C 
ENDBRANCH  27  28
ENDBRANCH  26  27
ENDBRANCH  24  26
ENDBRANCH  21  22
ENDBRANCH   1  21
TORSDOF 10
ENDMDL
MODEL 9
REMARK VINA RESULT:      -6.7      2.528      5.125
REMARK  Name = 
REMARK  13 active torsions:
REMARK  status: ('A' for Active; 'I' for Inactive)
REMARK    1  A    between atoms: C_1  and  C_2
REMARK    2  A    between atoms: N_4  and  C_5
REMARK    3  A    between atoms: C_8  and  S_9
REMARK    4  A    between atoms: S_9  and  N_12
REMARK    5  A    between atoms: N_12  and  C_13
REMARK    6  A    between atoms: C_13  and  C_14
REMARK    7  A    between atoms: C_13  and  C_26
REMARK    8  A    between atoms: C_14  and  C_15
REMARK    9  A    between atoms: N_17  and  C_18
REMARK   10  A    between atoms: C_18  and  C_19
REMARK   11  A    between atoms: C_19  and  C_20
REMARK   12  A    between atoms: C_26  and  C_27
REMARK   13  A    between atoms: C_26  and  C_28
REMARK                            x       y       z     vdW  Elec       q    Type
REMARK                         _______ _______ _______ _____ _____    ______ ____
ROOT
ATOM      1  C   UNL     1       3.459   4.650  19.606  0.00  0.00    +0.000 C 
ENDROOT
BRANCH   1   2
ATOM      2  C   UNL     1       2.634   4.098  20.822  0.00  0.00    +0.000 C 
ATOM      3  C   UNL     1       1.116   4.123  20.589  0.00  0.00    +0.000 C 
ATOM      4  C   UNL     1       3.022   2.649  21.165  0.00  0.00    +0.000 C 
ENDBRANCH   1   2
BRANCH   1   5
ATOM      5  N   UNL     1       3.433   6.144  19.604  0.00  0.00    +0.000 NA
ATOM      6  H   UNL     1       3.288   6.601  20.505  0.00  0.00    +0.000 HD
BRANCH   5   7
ATOM      7  S   UNL     1       2.688   7.051  18.386  0.00  0.00    +0.000 S 
ATOM      8  O   UNL     1       1.761   6.191  17.677  0.00  0.00    +0.000 OA
ATOM      9  O   UNL     1       3.748   7.743  17.690  0.00  0.00    +0.000 OA
BRANCH   7  13
ATOM     10  C   UNL     1       0.237   9.944  20.899  0.00  0.00    +0.000 A 
ATOM     11  C   UNL     1       0.807   8.791  21.443  0.00  0.00    +0.000 A 
ATOM     12  C   UNL     1       1.587   7.948  20.665  0.00  0.00    +0.000 A 
ATOM     13  C   UNL     1       1.785   8.240  19.319  0.00  0.00    +0.000 A 
ATOM     14  C   UNL     1       1.233   9.388  18.746  0.00  0.00    +0.000 A 
ATOM     15  C   UNL     1       0.448  10.237  19.543  0.00  0.00    +0.000 A 
BRANCH  10  19
ATOM     16  C   UNL     1      -1.285  12.802  22.821  0.00  0.00    +0.000 C 
ATOM     17  C   UNL     1      -0.359  12.175  21.825  0.00  0.00    +0.000 C 
ATOM     18  O   UNL     1       0.475  12.860  21.239  0.00  0.00    +0.000 OA
ATOM     19  N   UNL     1      -0.563  10.807  21.676  0.00  0.00    +0.000 N 
ATOM     20  H   UNL     1      -1.395  10.410  22.097  0.00  0.00    +0.000 HD
ENDBRANCH  10  19
ENDBRANCH   7  13
ENDBRANCH   5   7
ENDBRANCH   1   5
BRANCH   1  21
ATOM     21  C   UNL     1       4.889   4.081  19.569  0.00  0.00    +0.000 C 
BRANCH  21  22
ATOM     22  C   UNL     1       5.730   4.621  18.430  0.00  0.00    +0.000 C 
ATOM     23  O   UNL     1       6.346   5.682  18.530  0.00  0.00    +0.000 OA
ATOM     24  N   UNL     1       5.729   3.851  17.295  0.00  0.00    +0.000 N 
ATOM     25  H   UNL     1       5.511   2.864  17.420  0.00  0.00    +0.000 HD
BRANCH  24  26
ATOM     26  C   UNL     1       6.474   4.232  16.117  0.00  0.00    +0.000 C 
BRANCH  26  27
ATOM     27  C   UNL     1       5.580   4.854  15.041  0.00  0.00    +0.000 C 
BRANCH  27  28
ATOM     28  C   UNL     1       5.733   4.166  13.701  0.00  0.00    +0.000 C 
ATOM     29  C   UNL     1       4.664   3.761  12.992  0.00  0.00    +0.000 C 
ATOM     30  C   UNL     1       4.757   3.029  11.685  0.00  0.00    +0.000 C 
ATOM     31  C   UNL     1       6.160   2.496  11.397  0.00  0.00    +0.000 C 
ATOM     32  C   UNL     1       7.219   3.543  11.725  0.00  0.00    +0.000 C 
ATOM     33  C   UNL     1       7.144   3.960  13.196  0.00  0.00    +0.000 C 
ENDBRANCH  27  28
ENDBRANCH  26  27
ENDBRANCH  24  26
ENDBRANCH  21  22
ENDBRANCH   1  21
TORSDOF 10
ENDMDL
