MODEL 1
REMARK VINA RESULT:      -8.0      0.000      0.000
REMARK  Name = 
REMARK  8 active torsions:
REMARK  status: ('A' for Active; 'I' for Inactive)
REMARK    1  A    between atoms: C_1  and  C_2
REMARK    2  A    between atoms: N_4  and  C_5
REMARK    3  A    between atoms: C_7  and  C_8
REMARK    4  A    between atoms: C_8  and  C_9
REMARK    5  A    between atoms: C_8  and  N_10
REMARK    6  A    between atoms: N_10  and  C_11
REMARK    7  A    between atoms: C_11  and  C_12
REMARK    8  A    between atoms: C_13  and  C_14
REMARK                            x       y       z     vdW  Elec       q    Type
REMARK                         _______ _______ _______ _____ _____    ______ ____
ROOT
ATOM      1  C   UNL     1       2.676   7.273  18.844  0.00  0.00    +0.000 A 
ATOM      2  C   UNL     1       2.775   6.414  19.953  0.00  0.00    +0.000 A 
ATOM      3  N   UNL     1       1.978   6.879  20.974  0.00  0.00    +0.000 NA
ATOM      4  C   UNL     1       1.404   7.976  20.542  0.00  0.00    +0.000 A 
ATOM      5  C   UNL     1       0.555   8.878  21.230  0.00  0.00    +0.000 A 
ATOM      6  C   UNL     1       0.157  10.005  20.620  0.00  0.00    +0.000 A 
ATOM      7  C   UNL     1       0.554  10.292  19.255  0.00  0.00    +0.000 A 
ATOM      8 CL   UNL     1       0.112  11.797  18.556  0.00  0.00    +0.000 Cl
ATOM      9  C   UNL     1       1.303   9.404  18.583  0.00  0.00    +0.000 A 
ATOM     10  N   UNL     1       1.761   8.256  19.234  0.00  0.00    +0.000 N 
ENDROOT
BRANCH   2  11
ATOM     11  C   UNL     1       3.549   5.152  20.089  0.00  0.00    +0.000 C 
ATOM     12  O   UNL     1       4.779   5.200  20.120  0.00  0.00    +0.000 OA
ATOM     13  N   UNL     1       2.866   3.905  20.138  0.00  0.00    +0.000 N 
ATOM     14  C   UNL     1       3.658   2.679  20.069  0.00  0.00    +0.000 C 
ATOM     15  C   UNL     1       3.745   2.049  18.670  0.00  0.00    +0.000 C 
ATOM     16  C   UNL     1       3.678   3.024  17.492  0.00  0.00    +0.000 C 
ATOM     17  C   UNL     1       2.305   3.182  16.828  0.00  0.00    +0.000 C 
ATOM     18  C   UNL     1       1.162   3.808  17.632  0.00  0.00    +0.000 C 
ATOM     19  C   UNL     1       0.790   3.110  18.938  0.00  0.00    +0.000 C 
ATOM     20  C   UNL     1       1.416   3.707  20.206  0.00  0.00    +0.000 C 
ENDBRANCH   2  11
BRANCH   1  21
ATOM     21  C   UNL     1       3.369   7.250  17.514  0.00  0.00    +0.000 C 
BRANCH  21  22
ATOM     22  N   UNL     1       4.474   6.280  17.380  0.00  0.00    +0.000 NA
ATOM     23  H   UNL     1       4.904   6.174  18.301  0.00  0.00    +0.000 HD
BRANCH  22  24
ATOM     24  C   UNL     1       5.567   6.601  16.439  0.00  0.00    +0.000 C 
ATOM     25  C   UNL     1       6.093   5.411  15.628  0.00  0.00    +0.000 C 
BRANCH  24  32
ATOM     26  C   UNL     1       7.651   5.085  18.517  0.00  0.00    +0.000 C 
ATOM     27  C   UNL     1       7.611   6.517  18.129  0.00  0.00    +0.000 A 
ATOM     28  N   UNL     1       8.484   7.344  18.709  0.00  0.00    +0.000 NA
ATOM     29  N   UNL     1       8.170   8.552  18.234  0.00  0.00    +0.000 N 
ATOM     30  C   UNL     1       8.907   9.699  18.706  0.00  0.00    +0.000 C 
ATOM     31  C   UNL     1       7.127   8.526  17.348  0.00  0.00    +0.000 A 
ATOM     32  C   UNL     1       6.727   7.200  17.230  0.00  0.00    +0.000 A 
ENDBRANCH  24  32
ENDBRANCH  22  24
ENDBRANCH  21  22
ENDBRANCH   1  21
TORSDOF 5
ENDMDL
MODEL 2
REMARK VINA RESULT:      -8.0      1.270      2.323
REMARK  Name = 
REMARK  8 active torsions:
REMARK  status: ('A' for Active; 'I' for Inactive)
REMARK    1  A    between atoms: C_1  and  C_2
REMARK    2  A    between atoms: N_4  and  C_5
REMARK    3  A    between atoms: C_7  and  C_8
REMARK    4  A    between atoms: C_8  and  C_9
REMARK    5  A    between atoms: C_8  and  N_10
REMARK    6  A    between atoms: N_10  and  C_11
REMARK    7  A    between atoms: C_11  and  C_12
REMARK    8  A    between atoms: C_13  and  C_14
REMARK                            x       y       z     vdW  Elec       q    Type
REMARK                         _______ _______ _______ _____ _____    ______ ____
ROOT
ATOM      1  C   UNL     1       2.769   7.083  18.723  0.00  0.00    +0.000 A 
ATOM      2  C   UNL     1       2.962   6.293  19.870  0.00  0.00    +0.000 A 
ATOM      3  N   UNL     1       2.254   6.824  20.924  0.00  0.00    +0.000 NA
ATOM      4  C   UNL     1       1.646   7.895  20.476  0.00  0.00    +0.000 A 
ATOM      5  C   UNL     1       0.858   8.842  21.177  0.00  0.00    +0.000 A 
ATOM      6  C   UNL     1       0.411   9.933  20.536  0.00  0.00    +0.000 A 
ATOM      7  C   UNL     1       0.691  10.133  19.127  0.00  0.00    +0.000 A 
ATOM      8 CL   UNL     1       0.192  11.596  18.377  0.00  0.00    +0.000 Cl
ATOM      9  C   UNL     1       1.380   9.202  18.450  0.00  0.00    +0.000 A 
ATOM     10  N   UNL     1       1.891   8.093  19.129  0.00  0.00    +0.000 N 
ENDROOT
BRANCH   2  11
ATOM     11  C   UNL     1       3.744   5.037  20.017  0.00  0.00    +0.000 C 
ATOM     12  O   UNL     1       4.974   5.086  19.978  0.00  0.00    +0.000 OA
ATOM     13  N   UNL     1       3.066   3.794  20.156  0.00  0.00    +0.000 N 
ATOM     14  C   UNL     1       3.855   2.565  20.096  0.00  0.00    +0.000 C 
ATOM     15  C   UNL     1       3.866   1.877  18.722  0.00  0.00    +0.000 C 
ATOM     16  C   UNL     1       3.734   2.801  17.509  0.00  0.00    +0.000 C 
ATOM     17  C   UNL     1       2.327   2.932  16.915  0.00  0.00    +0.000 C 
ATOM     18  C   UNL     1       1.228   3.592  17.753  0.00  0.00    +0.000 C 
ATOM     19  C   UNL     1       0.929   2.950  19.106  0.00  0.00    +0.000 C 
ATOM     20  C   UNL     1       1.623   3.600  20.311  0.00  0.00    +0.000 C 
ENDBRANCH   2  11
BRANCH   1  21
ATOM     21  C   UNL     1       3.347   6.975  17.343  0.00  0.00    +0.000 C 
BRANCH  21  22
ATOM     22  N   UNL     1       4.612   7.701  17.115  0.00  0.00    +0.000 NA
ATOM     23  H   UNL     1       4.665   7.920  16.117  0.00  0.00    +0.000 HD
BRANCH  22  24
ATOM     24  C   UNL     1       5.875   7.018  17.465  0.00  0.00    +0.000 C 
ATOM     25  C   UNL     1       7.125   7.905  17.416  0.00  0.00    +0.000 C 
BRANCH  24  32
ATOM     26  C   UNL     1       7.848   4.382  17.810  0.00  0.00    +0.000 C 
ATOM     27  C   UNL     1       6.943   4.719  16.683  0.00  0.00    +0.000 A 
ATOM     28  N   UNL     1       6.929   3.899  15.629  0.00  0.00    +0.000 NA
ATOM     29  N   UNL     1       6.098   4.482  14.760  0.00  0.00    +0.000 N 
ATOM     30  C   UNL     1       5.893   3.865  13.473  0.00  0.00    +0.000 C 
ATOM     31  C   UNL     1       5.561   5.648  15.232  0.00  0.00    +0.000 A 
ATOM     32  C   UNL     1       6.074   5.846  16.508  0.00  0.00    +0.000 A 
ENDBRANCH  24  32
ENDBRANCH  22  24
ENDBRANCH  21  22
ENDBRANCH   1  21
TORSDOF 5
ENDMDL
MODEL 3
REMARK VINA RESULT:      -7.2      2.333      6.025
REMARK  Name = 
REMARK  8 active torsions:
REMARK  status: ('A' for Active; 'I' for Inactive)
REMARK    1  A    between atoms: C_1  and  C_2
REMARK    2  A    between atoms: N_4  and  C_5
REMARK    3  A    between atoms: C_7  and  C_8
REMARK    4  A    between atoms: C_8  and  C_9
REMARK    5  A    between atoms: C_8  and  N_10
REMARK    6  A    between atoms: N_10  and  C_11
REMARK    7  A    between atoms: C_11  and  C_12
REMARK    8  A    between atoms: C_13  and  C_14
REMARK                            x       y       z     vdW  Elec       q    Type
REMARK                         _______ _______ _______ _____ _____    ______ ____
ROOT
ATOM      1  C   UNL     1       4.139   5.846  17.637  0.00  0.00    +0.000 A 
ATOM      2  C   UNL     1       4.265   4.445  17.680  0.00  0.00    +0.000 A 
ATOM      3  N   UNL     1       5.583   4.104  17.874  0.00  0.00    +0.000 NA
ATOM      4  C   UNL     1       6.262   5.223  17.947  0.00  0.00    +0.000 A 
ATOM      5  C   UNL     1       7.661   5.420  18.061  0.00  0.00    +0.000 A 
ATOM      6  C   UNL     1       8.158   6.667  18.015  0.00  0.00    +0.000 A 
ATOM      7  C   UNL     1       7.278   7.812  17.889  0.00  0.00    +0.000 A 
ATOM      8 CL   UNL     1       7.965   9.378  17.724  0.00  0.00    +0.000 Cl
ATOM      9  C   UNL     1       5.950   7.626  17.848  0.00  0.00    +0.000 A 
ATOM     10  N   UNL     1       5.435   6.327  17.842  0.00  0.00    +0.000 N 
ENDROOT
BRANCH   2  11
ATOM     11  C   UNL     1       3.201   3.410  17.593  0.00  0.00    +0.000 C 
ATOM     12  O   UNL     1       2.505   3.347  16.578  0.00  0.00    +0.000 OA
ATOM     13  N   UNL     1       2.971   2.538  18.692  0.00  0.00    +0.000 N 
ATOM     14  C   UNL     1       1.795   1.671  18.653  0.00  0.00    +0.000 C 
ATOM     15  C   UNL     1       0.578   2.208  19.423  0.00  0.00    +0.000 C 
ATOM     16  C   UNL     1       0.445   3.731  19.488  0.00  0.00    +0.000 C 
ATOM     17  C   UNL     1       0.964   4.396  20.768  0.00  0.00    +0.000 C 
ATOM     18  C   UNL     1       2.464   4.341  21.076  0.00  0.00    +0.000 C 
ATOM     19  C   UNL     1       3.084   2.950  21.182  0.00  0.00    +0.000 C 
ATOM     20  C   UNL     1       3.777   2.439  19.911  0.00  0.00    +0.000 C 
ENDBRANCH   2  11
BRANCH   1  21
ATOM     21  C   UNL     1       2.944   6.721  17.398  0.00  0.00    +0.000 C 
BRANCH  21  22
ATOM     22  N   UNL     1       2.463   7.488  18.564  0.00  0.00    +0.000 NA
ATOM     23  H   UNL     1       1.886   6.860  19.128  0.00  0.00    +0.000 HD
BRANCH  22  24
ATOM     24  C   UNL     1       1.651   8.696  18.311  0.00  0.00    +0.000 C 
ATOM     25  C   UNL     1       2.440   9.914  17.815  0.00  0.00    +0.000 C 
BRANCH  24  32
ATOM     26  C   UNL     1      -0.925  10.736  18.720  0.00  0.00    +0.000 C 
ATOM     27  C   UNL     1      -0.179   9.970  19.750  0.00  0.00    +0.000 A 
ATOM     28  N   UNL     1      -0.533  10.135  21.027  0.00  0.00    +0.000 NA
ATOM     29  N   UNL     1       0.341   9.396  21.716  0.00  0.00    +0.000 N 
ATOM     30  C   UNL     1       0.265   9.392  23.157  0.00  0.00    +0.000 C 
ATOM     31  C   UNL     1       1.240   8.745  20.917  0.00  0.00    +0.000 A 
ATOM     32  C   UNL     1       0.933   9.077  19.604  0.00  0.00    +0.000 A 
ENDBRANCH  24  32
ENDBRANCH  22  24
ENDBRANCH  21  22
ENDBRANCH   1  21
TORSDOF 5
ENDMDL
MODEL 4
REMARK VINA RESULT:      -7.1      2.417      6.311
REMARK  Name = 
REMARK  8 active torsions:
REMARK  status: ('A' for Active; 'I' for Inactive)
REMARK    1  A    between atoms: C_1  and  C_2
REMARK    2  A    between atoms: N_4  and  C_5
REMARK    3  A    between atoms: C_7  and  C_8
REMARK    4  A    between atoms: C_8  and  C_9
REMARK    5  A    between atoms: C_8  and  N_10
REMARK    6  A    between atoms: N_10  and  C_11
REMARK    7  A    between atoms: C_11  and  C_12
REMARK    8  A    between atoms: C_13  and  C_14
REMARK                            x       y       z     vdW  Elec       q    Type
REMARK                         _______ _______ _______ _____ _____    ______ ____
ROOT
ATOM      1  C   UNL     1       3.873   5.861  18.192  0.00  0.00    +0.000 A 
ATOM      2  C   UNL     1       3.462   4.754  17.429  0.00  0.00    +0.000 A 
ATOM      3  N   UNL     1       4.436   4.434  16.512  0.00  0.00    +0.000 NA
ATOM      4  C   UNL     1       5.414   5.291  16.678  0.00  0.00    +0.000 A 
ATOM      5  C   UNL     1       6.612   5.443  15.936  0.00  0.00    +0.000 A 
ATOM      6  C   UNL     1       7.437   6.464  16.217  0.00  0.00    +0.000 A 
ATOM      7  C   UNL     1       7.136   7.388  17.294  0.00  0.00    +0.000 A 
ATOM      8 CL   UNL     1       8.164   8.742  17.544  0.00  0.00    +0.000 Cl
ATOM      9  C   UNL     1       6.035   7.201  18.038  0.00  0.00    +0.000 A 
ATOM     10  N   UNL     1       5.149   6.171  17.712  0.00  0.00    +0.000 N 
ENDROOT
BRANCH   2  11
ATOM     11  C   UNL     1       2.216   3.951  17.546  0.00  0.00    +0.000 C 
ATOM     12  O   UNL     1       1.163   4.405  17.093  0.00  0.00    +0.000 OA
ATOM     13  N   UNL     1       2.242   2.696  18.214  0.00  0.00    +0.000 N 
ATOM     14  C   UNL     1       0.970   2.030  18.487  0.00  0.00    +0.000 C 
ATOM     15  C   UNL     1       0.423   2.251  19.906  0.00  0.00    +0.000 C 
ATOM     16  C   UNL     1       0.782   3.586  20.563  0.00  0.00    +0.000 C 
ATOM     17  C   UNL     1       1.974   3.561  21.527  0.00  0.00    +0.000 C 
ATOM     18  C   UNL     1       3.369   3.262  20.971  0.00  0.00    +0.000 C 
ATOM     19  C   UNL     1       3.539   1.931  20.243  0.00  0.00    +0.000 C 
ATOM     20  C   UNL     1       3.430   1.999  18.713  0.00  0.00    +0.000 C 
ENDBRANCH   2  11
BRANCH   1  21
ATOM     21  C   UNL     1       3.171   6.629  19.273  0.00  0.00    +0.000 C 
BRANCH  21  22
ATOM     22  N   UNL     1       2.305   7.734  18.820  0.00  0.00    +0.000 NA
ATOM     23  H   UNL     1       2.838   8.287  18.145  0.00  0.00    +0.000 HD
BRANCH  22  24
ATOM     24  C   UNL     1       1.801   8.681  19.836  0.00  0.00    +0.000 C 
ATOM     25  C   UNL     1       1.156   8.029  21.065  0.00  0.00    +0.000 C 
BRANCH  24  32
ATOM     26  C   UNL     1       0.907  11.747  20.709  0.00  0.00    +0.000 C 
ATOM     27  C   UNL     1       0.402  10.922  19.584  0.00  0.00    +0.000 A 
ATOM     28  N   UNL     1      -0.576  11.429  18.829  0.00  0.00    +0.000 NA
ATOM     29  N   UNL     1      -0.872  10.456  17.963  0.00  0.00    +0.000 N 
ATOM     30  C   UNL     1      -1.941  10.667  17.018  0.00  0.00    +0.000 C 
ATOM     31  C   UNL     1      -0.099   9.339  18.127  0.00  0.00    +0.000 A 
ATOM     32  C   UNL     1       0.773   9.597  19.178  0.00  0.00    +0.000 A 
ENDBRANCH  24  32
ENDBRANCH  22  24
ENDBRANCH  21  22
ENDBRANCH   1  21
TORSDOF 5
ENDMDL
MODEL 5
REMARK VINA RESULT:      -7.0      3.408      7.145
REMARK  Name = 
REMARK  8 active torsions:
REMARK  status: ('A' for Active; 'I' for Inactive)
REMARK    1  A    between atoms: C_1  and  C_2
REMARK    2  A    between atoms: N_4  and  C_5
REMARK    3  A    between atoms: C_7  and  C_8
REMARK    4  A    between atoms: C_8  and  C_9
REMARK    5  A    between atoms: C_8  and  N_10
REMARK    6  A    between atoms: N_10  and  C_11
REMARK    7  A    between atoms: C_11  and  C_12
REMARK    8  A    between atoms: C_13  and  C_14
REMARK                            x       y       z     vdW  Elec       q    Type
REMARK                         _______ _______ _______ _____ _____    ______ ____
ROOT
ATOM      1  C   UNL     1       0.913   9.382  19.321  0.00  0.00    +0.000 A 
ATOM      2  C   UNL     1       1.700   8.227  19.479  0.00  0.00    +0.000 A 
ATOM      3  N   UNL     1       1.646   7.804  20.787  0.00  0.00    +0.000 NA
ATOM      4  C   UNL     1       0.871   8.644  21.430  0.00  0.00    +0.000 A 
ATOM      5  C   UNL     1       0.554   8.700  22.810  0.00  0.00    +0.000 A 
ATOM      6  C   UNL     1      -0.188   9.717  23.276  0.00  0.00    +0.000 A 
ATOM      7  C   UNL     1      -0.700  10.735  22.379  0.00  0.00    +0.000 A 
ATOM      8 CL   UNL     1      -1.551  12.075  23.036  0.00  0.00    +0.000 Cl
ATOM      9  C   UNL     1      -0.455  10.642  21.063  0.00  0.00    +0.000 A 
ATOM     10  N   UNL     1       0.362   9.614  20.584  0.00  0.00    +0.000 N 
ENDROOT
BRANCH   2  11
ATOM     11  C   UNL     1       2.468   7.473  18.453  0.00  0.00    +0.000 C 
ATOM     12  O   UNL     1       2.403   7.825  17.274  0.00  0.00    +0.000 OA
ATOM     13  N   UNL     1       3.228   6.333  18.834  0.00  0.00    +0.000 N 
ATOM     14  C   UNL     1       3.804   5.501  17.779  0.00  0.00    +0.000 C 
ATOM     15  C   UNL     1       2.979   4.255  17.424  0.00  0.00    +0.000 C 
ATOM     16  C   UNL     1       1.464   4.380  17.604  0.00  0.00    +0.000 C 
ATOM     17  C   UNL     1       0.894   3.816  18.911  0.00  0.00    +0.000 C 
ATOM     18  C   UNL     1       1.280   4.481  20.235  0.00  0.00    +0.000 C 
ATOM     19  C   UNL     1       2.772   4.541  20.555  0.00  0.00    +0.000 C 
ATOM     20  C   UNL     1       3.468   5.862  20.200  0.00  0.00    +0.000 C 
ENDBRANCH   2  11
BRANCH   1  21
ATOM     21  C   UNL     1       0.675  10.257  18.125  0.00  0.00    +0.000 C 
BRANCH  21  22
ATOM     22  N   UNL     1      -0.712  10.304  17.626  0.00  0.00    +0.000 NA
ATOM     23  H   UNL     1      -0.725   9.856  16.707  0.00  0.00    +0.000 HD
BRANCH  22  24
ATOM     24  C   UNL     1      -1.343  11.630  17.457  0.00  0.00    +0.000 C 
ATOM     25  C   UNL     1      -0.769  12.738  18.349  0.00  0.00    +0.000 C 
BRANCH  24  32
ATOM     26  C   UNL     1      -3.758  10.603  15.439  0.00  0.00    +0.000 C 
ATOM     27  C   UNL     1      -3.861  11.055  16.849  0.00  0.00    +0.000 A 
ATOM     28  N   UNL     1      -5.077  11.113  17.398  0.00  0.00    +0.000 NA
ATOM     29  N   UNL     1      -4.871  11.614  18.619  0.00  0.00    +0.000 N 
ATOM     30  C   UNL     1      -6.009  11.853  19.474  0.00  0.00    +0.000 C 
ATOM     31  C   UNL     1      -3.552  11.864  18.881  0.00  0.00    +0.000 A 
ATOM     32  C   UNL     1      -2.835  11.498  17.749  0.00  0.00    +0.000 A 
ENDBRANCH  24  32
ENDBRANCH  22  24
ENDBRANCH  21  22
ENDBRANCH   1  21
TORSDOF 5
ENDMDL
MODEL 6
REMARK VINA RESULT:      -6.9      6.670     11.273
REMARK  Name = 
REMARK  8 active torsions:
REMARK  status: ('A' for Active; 'I' for Inactive)
REMARK    1  A    between atoms: C_1  and  C_2
REMARK    2  A    between atoms: N_4  and  C_5
REMARK    3  A    between atoms: C_7  and  C_8
REMARK    4  A    between atoms: C_8  and  C_9
REMARK    5  A    between atoms: C_8  and  N_10
REMARK    6  A    between atoms: N_10  and  C_11
REMARK    7  A    between atoms: C_11  and  C_12
REMARK    8  A    between atoms: C_13  and  C_14
REMARK                            x       y       z     vdW  Elec       q    Type
REMARK                         _______ _______ _______ _____ _____    ______ ____
ROOT
ATOM      1  C   UNL     1      -1.209  11.800  19.954  0.00  0.00    +0.000 A 
ATOM      2  C   UNL     1      -1.775  12.679  20.895  0.00  0.00    +0.000 A 
ATOM      3  N   UNL     1      -1.498  12.238  22.168  0.00  0.00    +0.000 NA
ATOM      4  C   UNL     1      -0.797  11.137  22.048  0.00  0.00    +0.000 A 
ATOM      5  C   UNL     1      -0.331  10.253  23.053  0.00  0.00    +0.000 A 
ATOM      6  C   UNL     1       0.288   9.116  22.697  0.00  0.00    +0.000 A 
ATOM      7  C   UNL     1       0.518   8.801  21.300  0.00  0.00    +0.000 A 
ATOM      8 CL   UNL     1       1.213   7.285  20.890  0.00  0.00    +0.000 Cl
ATOM      9  C   UNL     1       0.135   9.672  20.353  0.00  0.00    +0.000 A 
ATOM     10  N   UNL     1      -0.556  10.830  20.720  0.00  0.00    +0.000 N 
ENDROOT
BRANCH   2  11
ATOM     11  C   UNL     1      -2.528  13.940  20.659  0.00  0.00    +0.000 C 
ATOM     12  O   UNL     1      -1.915  14.950  20.309  0.00  0.00    +0.000 OA
ATOM     13  N   UNL     1      -3.932  13.977  20.880  0.00  0.00    +0.000 N 
ATOM     14  C   UNL     1      -4.606  15.273  20.833  0.00  0.00    +0.000 C 
ATOM     15  C   UNL     1      -4.841  15.923  22.206  0.00  0.00    +0.000 C 
ATOM     16  C   UNL     1      -3.806  15.599  23.286  0.00  0.00    +0.000 C 
ATOM     17  C   UNL     1      -4.185  14.483  24.267  0.00  0.00    +0.000 C 
ATOM     18  C   UNL     1      -4.335  13.053  23.739  0.00  0.00    +0.000 C 
ATOM     19  C   UNL     1      -5.361  12.844  22.628  0.00  0.00    +0.000 C 
ATOM     20  C   UNL     1      -4.795  12.838  21.202  0.00  0.00    +0.000 C 
ENDBRANCH   2  11
BRANCH   1  21
ATOM     21  C   UNL     1      -1.261  11.794  18.455  0.00  0.00    +0.000 C 
BRANCH  21  22
ATOM     22  N   UNL     1      -2.588  12.028  17.854  0.00  0.00    +0.000 NA
ATOM     23  H   UNL     1      -2.984  12.860  18.299  0.00  0.00    +0.000 HD
BRANCH  22  24
ATOM     24  C   UNL     1      -3.603  10.961  17.977  0.00  0.00    +0.000 C 
ATOM     25  C   UNL     1      -3.473   9.825  16.955  0.00  0.00    +0.000 C 
BRANCH  24  32
ATOM     26  C   UNL     1      -6.501   9.863  19.142  0.00  0.00    +0.000 C 
ATOM     27  C   UNL     1      -6.228  11.084  18.344  0.00  0.00    +0.000 A 
ATOM     28  N   UNL     1      -7.269  11.842  17.988  0.00  0.00    +0.000 NA
ATOM     29  N   UNL     1      -6.739  12.807  17.232  0.00  0.00    +0.000 N 
ATOM     30  C   UNL     1      -7.617  13.786  16.637  0.00  0.00    +0.000 C 
ATOM     31  C   UNL     1      -5.381  12.703  17.102  0.00  0.00    +0.000 A 
ATOM     32  C   UNL     1      -4.987  11.588  17.832  0.00  0.00    +0.000 A 
ENDBRANCH  24  32
ENDBRANCH  22  24
ENDBRANCH  21  22
ENDBRANCH   1  21
TORSDOF 5
ENDMDL
MODEL 7
REMARK VINA RESULT:      -6.9      2.413      6.199
REMARK  Name = 
REMARK  8 active torsions:
REMARK  status: ('A' for Active; 'I' for Inactive)
REMARK    1  A    between atoms: C_1  and  C_2
REMARK    2  A    between atoms: N_4  and  C_5
REMARK    3  A    between atoms: C_7  and  C_8
REMARK    4  A    between atoms: C_8  and  C_9
REMARK    5  A    between atoms: C_8  and  N_10
REMARK    6  A    between atoms: N_10  and  C_11
REMARK    7  A    between atoms: C_11  and  C_12
REMARK    8  A    between atoms: C_13  and  C_14
REMARK                            x       y       z     vdW  Elec       q    Type
REMARK                         _______ _______ _______ _____ _____    ______ ____
ROOT
ATOM      1  C   UNL     1       3.898   6.599  17.669  0.00  0.00    +0.000 A 
ATOM      2  C   UNL     1       3.674   5.218  17.814  0.00  0.00    +0.000 A 
ATOM      3  N   UNL     1       4.868   4.575  18.040  0.00  0.00    +0.000 NA
ATOM      4  C   UNL     1       5.804   5.493  18.035  0.00  0.00    +0.000 A 
ATOM      5  C   UNL     1       7.210   5.345  18.143  0.00  0.00    +0.000 A 
ATOM      6  C   UNL     1       7.999   6.422  18.011  0.00  0.00    +0.000 A 
ATOM      7  C   UNL     1       7.429   7.739  17.798  0.00  0.00    +0.000 A 
ATOM      8 CL   UNL     1       8.481   9.069  17.524  0.00  0.00    +0.000 Cl
ATOM      9  C   UNL     1       6.096   7.886  17.763  0.00  0.00    +0.000 A 
ATOM     10  N   UNL     1       5.276   6.758  17.847  0.00  0.00    +0.000 N 
ENDROOT
BRANCH   2  11
ATOM     11  C   UNL     1       2.386   4.476  17.795  0.00  0.00    +0.000 C 
ATOM     12  O   UNL     1       1.336   5.097  17.624  0.00  0.00    +0.000 OA
ATOM     13  N   UNL     1       2.376   3.071  18.018  0.00  0.00    +0.000 N 
ATOM     14  C   UNL     1       1.085   2.407  18.192  0.00  0.00    +0.000 C 
ATOM     15  C   UNL     1       0.678   2.173  19.655  0.00  0.00    +0.000 C 
ATOM     16  C   UNL     1       1.188   3.203  20.666  0.00  0.00    +0.000 C 
ATOM     17  C   UNL     1       2.452   2.813  21.441  0.00  0.00    +0.000 C 
ATOM     18  C   UNL     1       3.770   2.654  20.677  0.00  0.00    +0.000 C 
ATOM     19  C   UNL     1       3.779   1.629  19.545  0.00  0.00    +0.000 C 
ATOM     20  C   UNL     1       3.546   2.199  18.139  0.00  0.00    +0.000 C 
ENDBRANCH   2  11
BRANCH   1  21
ATOM     21  C   UNL     1       2.955   7.725  17.362  0.00  0.00    +0.000 C 
BRANCH  21  22
ATOM     22  N   UNL     1       1.961   8.037  18.407  0.00  0.00    +0.000 NA
ATOM     23  H   UNL     1       1.235   7.318  18.367  0.00  0.00    +0.000 HD
BRANCH  22  24
ATOM     24  C   UNL     1       1.268   9.341  18.338  0.00  0.00    +0.000 C 
ATOM     25  C   UNL     1       2.168  10.533  17.991  0.00  0.00    +0.000 C 
BRANCH  24  32
ATOM     26  C   UNL     1      -1.169  11.464  19.053  0.00  0.00    +0.000 C 
ATOM     27  C   UNL     1      -0.448  10.543  19.966  0.00  0.00    +0.000 A 
ATOM     28  N   UNL     1      -0.762  10.579  21.263  0.00  0.00    +0.000 NA
ATOM     29  N   UNL     1       0.081   9.716  21.838  0.00  0.00    +0.000 N 
ATOM     30  C   UNL     1       0.038   9.550  23.270  0.00  0.00    +0.000 C 
ATOM     31  C   UNL     1       0.921   9.111  20.943  0.00  0.00    +0.000 A 
ATOM     32  C   UNL     1       0.605   9.610  19.686  0.00  0.00    +0.000 A 
ENDBRANCH  24  32
ENDBRANCH  22  24
ENDBRANCH  21  22
ENDBRANCH   1  21
TORSDOF 5
ENDMDL
MODEL 8
REMARK VINA RESULT:      -6.9      0.647      1.467
REMARK  Name = 
REMARK  8 active torsions:
REMARK  status: ('A' for Active; 'I' for Inactive)
REMARK    1  A    between atoms: C_1  and  C_2
REMARK    2  A    between atoms: N_4  and  C_5
REMARK    3  A    between atoms: C_7  and  C_8
REMARK    4  A    between atoms: C_8  and  C_9
REMARK    5  A    between atoms: C_8  and  N_10
REMARK    6  A    between atoms: N_10  and  C_11
REMARK    7  A    between atoms: C_11  and  C_12
REMARK    8  A    between atoms: C_13  and  C_14
REMARK                            x       y       z     vdW  Elec       q    Type
REMARK                         _______ _______ _______ _____ _____    ______ ____
ROOT
ATOM      1  C   UNL     1       2.804   7.282  18.881  0.00  0.00    +0.000 A 
ATOM      2  C   UNL     1       2.788   6.343  19.928  0.00  0.00    +0.000 A 
ATOM      3  N   UNL     1       1.844   6.704  20.861  0.00  0.00    +0.000 NA
ATOM      4  C   UNL     1       1.289   7.813  20.435  0.00  0.00    +0.000 A 
ATOM      5  C   UNL     1       0.320   8.633  21.065  0.00  0.00    +0.000 A 
ATOM      6  C   UNL     1      -0.038   9.793  20.490  0.00  0.00    +0.000 A 
ATOM      7  C   UNL     1       0.527  10.196  19.217  0.00  0.00    +0.000 A 
ATOM      8 CL   UNL     1       0.123  11.737  18.575  0.00  0.00    +0.000 Cl
ATOM      9  C   UNL     1       1.395   9.385  18.591  0.00  0.00    +0.000 A 
ATOM     10  N   UNL     1       1.807   8.204  19.213  0.00  0.00    +0.000 N 
ENDROOT
BRANCH   2  11
ATOM     11  C   UNL     1       3.587   5.098  20.077  0.00  0.00    +0.000 C 
ATOM     12  O   UNL     1       4.816   5.163  20.034  0.00  0.00    +0.000 OA
ATOM     13  N   UNL     1       2.926   3.847  20.221  0.00  0.00    +0.000 N 
ATOM     14  C   UNL     1       3.731   2.628  20.162  0.00  0.00    +0.000 C 
ATOM     15  C   UNL     1       3.747   1.936  18.791  0.00  0.00    +0.000 C 
ATOM     16  C   UNL     1       3.599   2.855  17.575  0.00  0.00    +0.000 C 
ATOM     17  C   UNL     1       2.188   2.966  16.985  0.00  0.00    +0.000 C 
ATOM     18  C   UNL     1       1.083   3.614  17.825  0.00  0.00    +0.000 C 
ATOM     19  C   UNL     1       0.797   2.972  19.180  0.00  0.00    +0.000 C 
ATOM     20  C   UNL     1       1.486   3.635  20.381  0.00  0.00    +0.000 C 
ENDBRANCH   2  11
BRANCH   1  21
ATOM     21  C   UNL     1       3.671   7.383  17.660  0.00  0.00    +0.000 C 
BRANCH  21  22
ATOM     22  N   UNL     1       4.123   6.103  17.083  0.00  0.00    +0.000 NA
ATOM     23  H   UNL     1       4.168   5.421  17.844  0.00  0.00    +0.000 HD
BRANCH  22  24
ATOM     24  C   UNL     1       5.439   6.072  16.412  0.00  0.00    +0.000 C 
ATOM     25  C   UNL     1       5.659   4.879  15.474  0.00  0.00    +0.000 C 
BRANCH  24  32
ATOM     26  C   UNL     1       7.351   8.568  17.450  0.00  0.00    +0.000 C 
ATOM     27  C   UNL     1       7.346   7.156  17.905  0.00  0.00    +0.000 A 
ATOM     28  N   UNL     1       8.250   6.793  18.819  0.00  0.00    +0.000 NA
ATOM     29  N   UNL     1       8.061   5.480  18.976  0.00  0.00    +0.000 N 
ATOM     30  C   UNL     1       8.923   4.756  19.878  0.00  0.00    +0.000 C 
ATOM     31  C   UNL     1       7.048   4.987  18.200  0.00  0.00    +0.000 A 
ATOM     32  C   UNL     1       6.529   6.056  17.481  0.00  0.00    +0.000 A 
ENDBRANCH  24  32
ENDBRANCH  22  24
ENDBRANCH  21  22
ENDBRANCH   1  21
TORSDOF 5
ENDMDL
MODEL 9
REMARK VINA RESULT:      -6.9      2.448      6.191
REMARK  Name = 
REMARK  8 active torsions:
REMARK  status: ('A' for Active; 'I' for Inactive)
REMARK    1  A    between atoms: C_1  and  C_2
REMARK    2  A    between atoms: N_4  and  C_5
REMARK    3  A    between atoms: C_7  and  C_8
REMARK    4  A    between atoms: C_8  and  C_9
REMARK    5  A    between atoms: C_8  and  N_10
REMARK    6  A    between atoms: N_10  and  C_11
REMARK    7  A    between atoms: C_11  and  C_12
REMARK    8  A    between atoms: C_13  and  C_14
REMARK                            x       y       z     vdW  Elec       q    Type
REMARK                         _______ _______ _______ _____ _____    ______ ____
ROOT
ATOM      1  C   UNL     1       3.785   6.060  18.038  0.00  0.00    +0.000 A 
ATOM      2  C   UNL     1       3.485   4.819  17.447  0.00  0.00    +0.000 A 
ATOM      3  N   UNL     1       4.576   4.364  16.744  0.00  0.00    +0.000 NA
ATOM      4  C   UNL     1       5.519   5.264  16.875  0.00  0.00    +0.000 A 
ATOM      5  C   UNL     1       6.807   5.311  16.283  0.00  0.00    +0.000 A 
ATOM      6  C   UNL     1       7.582   6.390  16.475  0.00  0.00    +0.000 A 
ATOM      7  C   UNL     1       7.134   7.488  17.311  0.00  0.00    +0.000 A 
ATOM      8 CL   UNL     1       8.114   8.893  17.438  0.00  0.00    +0.000 Cl
ATOM      9  C   UNL     1       5.943   7.410  17.924  0.00  0.00    +0.000 A 
ATOM     10  N   UNL     1       5.113   6.313  17.682  0.00  0.00    +0.000 N 
ENDROOT
BRANCH   2  11
ATOM     11  C   UNL     1       2.237   4.017  17.546  0.00  0.00    +0.000 C 
ATOM     12  O   UNL     1       1.186   4.483  17.103  0.00  0.00    +0.000 OA
ATOM     13  N   UNL     1       2.261   2.747  18.185  0.00  0.00    +0.000 N 
ATOM     14  C   UNL     1       0.988   2.077  18.443  0.00  0.00    +0.000 C 
ATOM     15  C   UNL     1       0.441   2.266  19.866  0.00  0.00    +0.000 C 
ATOM     16  C   UNL     1       0.802   3.585  20.554  0.00  0.00    +0.000 C 
ATOM     17  C   UNL     1       1.994   3.536  21.517  0.00  0.00    +0.000 C 
ATOM     18  C   UNL     1       3.389   3.247  20.954  0.00  0.00    +0.000 C 
ATOM     19  C   UNL     1       3.557   1.933  20.196  0.00  0.00    +0.000 C 
ATOM     20  C   UNL     1       3.447   2.036  18.668  0.00  0.00    +0.000 C 
ENDBRANCH   2  11
BRANCH   1  21
ATOM     21  C   UNL     1       2.940   6.994  18.853  0.00  0.00    +0.000 C 
BRANCH  21  22
ATOM     22  N   UNL     1       1.687   7.449  18.219  0.00  0.00    +0.000 NA
ATOM     23  H   UNL     1       1.568   6.915  17.355  0.00  0.00    +0.000 HD
BRANCH  22  24
ATOM     24  C   UNL     1       1.575   8.876  17.852  0.00  0.00    +0.000 C 
ATOM     25  C   UNL     1       2.906   9.637  17.799  0.00  0.00    +0.000 C 
BRANCH  24  32
ATOM     26  C   UNL     1      -1.467  10.097  17.389  0.00  0.00    +0.000 C 
ATOM     27  C   UNL     1      -0.652  10.091  18.629  0.00  0.00    +0.000 A 
ATOM     28  N   UNL     1      -1.158  10.690  19.710  0.00  0.00    +0.000 NA
ATOM     29  N   UNL     1      -0.194  10.595  20.630  0.00  0.00    +0.000 N 
ATOM     30  C   UNL     1      -0.406  11.195  21.924  0.00  0.00    +0.000 C 
ATOM     31  C   UNL     1       0.916   9.936  20.177  0.00  0.00    +0.000 A 
ATOM     32  C   UNL     1       0.662   9.566  18.862  0.00  0.00    +0.000 A 
ENDBRANCH  24  32
ENDBRANCH  22  24
ENDBRANCH  21  22
ENDBRANCH   1  21
TORSDOF 5
ENDMDL
