MODEL 1
REMARK VINA RESULT:      -7.5      0.000      0.000
REMARK  Name = 
REMARK  3 active torsions:
REMARK  status: ('A' for Active; 'I' for Inactive)
REMARK    1  A    between atoms: C_1  and  C_2
REMARK    2  A    between atoms: C_2  and  C_3
REMARK    3  A    between atoms: N_21  and  C_22
REMARK                            x       y       z     vdW  Elec       q    Type
REMARK                         _______ _______ _______ _____ _____    ______ ____
ROOT
ATOM      1  C   UNL     1       5.855   6.331  17.369  0.00  0.00    +0.000 A 
ATOM      2  C   UNL     1       4.867   6.989  18.074  0.00  0.00    +0.000 A 
ATOM      3  C   UNL     1       3.619   6.268  18.109  0.00  0.00    +0.000 A 
ATOM      4  C   UNL     1       3.725   5.094  17.393  0.00  0.00    +0.000 A 
ATOM      5  S   UNL     1       5.230   4.940  16.597  0.00  0.00    +0.000 S 
ATOM      6  N   UNL     1       2.820   4.086  17.316  0.00  0.00    +0.000 N 
ATOM      7  C   UNL     1       2.310   3.599  18.552  0.00  0.00    +0.000 A 
ATOM      8  C   UNL     1       2.458   2.221  18.819  0.00  0.00    +0.000 A 
ATOM      9  C   UNL     1       2.099   1.695  20.056  0.00  0.00    +0.000 A 
ATOM     10  C   UNL     1       1.567   2.535  21.018  0.00  0.00    +0.000 A 
ATOM     11  F   UNL     1       1.217   2.030  22.210  0.00  0.00    +0.000 F 
ATOM     12  C   UNL     1       1.403   3.893  20.776  0.00  0.00    +0.000 A 
ATOM     13  C   UNL     1       1.796   4.457  19.555  0.00  0.00    +0.000 A 
ATOM     14  N   UNL     1       1.604   5.849  19.444  0.00  0.00    +0.000 NA
ATOM     15  C   UNL     1       2.406   6.659  18.827  0.00  0.00    +0.000 C 
ATOM     16  N   UNL     1       2.232   8.027  18.863  0.00  0.00    +0.000 N 
ATOM     17  C   UNL     1       2.115   8.724  20.144  0.00  0.00    +0.000 C 
ATOM     18  C   UNL     1       0.814   9.538  20.256  0.00  0.00    +0.000 C 
ATOM     19  N   UNL     1       0.652  10.459  19.111  0.00  0.00    +0.000 NA
ATOM     20  C   UNL     1      -0.542  11.282  19.272  0.00  0.00    +0.000 C 
ATOM     21  C   UNL     1       0.593   9.645  17.878  0.00  0.00    +0.000 C 
ATOM     22  C   UNL     1       1.874   8.800  17.666  0.00  0.00    +0.000 C 
ATOM     23  H   UNL     1       3.075   3.328  16.692  0.00  0.00    +0.000 HD
ENDROOT
BRANCH   1  25
ATOM     24  C   UNL     1       7.566   8.143  17.595  0.00  0.00    +0.000 C 
ATOM     25  C   UNL     1       7.303   6.689  17.220  0.00  0.00    +0.000 C 
ENDBRANCH   1  25
TORSDOF 1
ENDMDL
MODEL 2
REMARK VINA RESULT:      -6.9      4.926      8.182
REMARK  Name = 
REMARK  3 active torsions:
REMARK  status: ('A' for Active; 'I' for Inactive)
REMARK    1  A    between atoms: C_1  and  C_2
REMARK    2  A    between atoms: C_2  and  C_3
REMARK    3  A    between atoms: N_21  and  C_22
REMARK                            x       y       z     vdW  Elec       q    Type
REMARK                         _______ _______ _______ _____ _____    ______ ____
ROOT
ATOM      1  C   UNL     1       0.831   9.165  20.358  0.00  0.00    +0.000 A 
ATOM      2  C   UNL     1       0.058  10.046  21.086  0.00  0.00    +0.000 A 
ATOM      3  C   UNL     1      -0.602  11.031  20.265  0.00  0.00    +0.000 A 
ATOM      4  C   UNL     1      -0.265  10.854  18.940  0.00  0.00    +0.000 A 
ATOM      5  S   UNL     1       0.910   9.633  18.716  0.00  0.00    +0.000 S 
ATOM      6  N   UNL     1      -0.792  11.483  17.859  0.00  0.00    +0.000 N 
ATOM      7  C   UNL     1      -2.213  11.506  17.772  0.00  0.00    +0.000 A 
ATOM      8  C   UNL     1      -2.801  10.971  16.606  0.00  0.00    +0.000 A 
ATOM      9  C   UNL     1      -4.183  10.844  16.502  0.00  0.00    +0.000 A 
ATOM     10  C   UNL     1      -4.981  11.272  17.547  0.00  0.00    +0.000 A 
ATOM     11  F   UNL     1      -6.313  11.154  17.449  0.00  0.00    +0.000 F 
ATOM     12  C   UNL     1      -4.426  11.810  18.702  0.00  0.00    +0.000 A 
ATOM     13  C   UNL     1      -3.036  11.910  18.851  0.00  0.00    +0.000 A 
ATOM     14  N   UNL     1      -2.599  12.447  20.079  0.00  0.00    +0.000 NA
ATOM     15  C   UNL     1      -1.541  12.058  20.721  0.00  0.00    +0.000 C 
ATOM     16  N   UNL     1      -1.236  12.530  21.980  0.00  0.00    +0.000 N 
ATOM     17  C   UNL     1      -2.221  12.451  23.058  0.00  0.00    +0.000 C 
ATOM     18  C   UNL     1      -2.524  13.824  23.683  0.00  0.00    +0.000 C 
ATOM     19  N   UNL     1      -1.286  14.505  24.117  0.00  0.00    +0.000 NA
ATOM     20  C   UNL     1      -1.593  15.768  24.781  0.00  0.00    +0.000 C 
ATOM     21  C   UNL     1      -0.436  14.709  22.924  0.00  0.00    +0.000 C 
ATOM     22  C   UNL     1      -0.060  13.374  22.233  0.00  0.00    +0.000 C 
ATOM     23  H   UNL     1      -0.367  11.239  16.971  0.00  0.00    +0.000 HD
ENDROOT
BRANCH   1  25
ATOM     24  C   UNL     1       2.208   7.193  19.668  0.00  0.00    +0.000 C 
ATOM     25  C   UNL     1       1.555   7.939  20.827  0.00  0.00    +0.000 C 
ENDBRANCH   1  25
TORSDOF 1
ENDMDL
MODEL 3
REMARK VINA RESULT:      -6.9      4.373      8.083
REMARK  Name = 
REMARK  3 active torsions:
REMARK  status: ('A' for Active; 'I' for Inactive)
REMARK    1  A    between atoms: C_1  and  C_2
REMARK    2  A    between atoms: C_2  and  C_3
REMARK    3  A    between atoms: N_21  and  C_22
REMARK                            x       y       z     vdW  Elec       q    Type
REMARK                         _______ _______ _______ _____ _____    ______ ____
ROOT
ATOM      1  C   UNL     1       0.628  13.724  19.512  0.00  0.00    +0.000 A 
ATOM      2  C   UNL     1       0.998  12.461  19.098  0.00  0.00    +0.000 A 
ATOM      3  C   UNL     1      -0.117  11.553  18.985  0.00  0.00    +0.000 A 
ATOM      4  C   UNL     1      -1.287  12.183  19.352  0.00  0.00    +0.000 A 
ATOM      5  S   UNL     1      -1.026  13.766  19.941  0.00  0.00    +0.000 S 
ATOM      6  N   UNL     1      -2.554  11.709  19.241  0.00  0.00    +0.000 N 
ATOM      7  C   UNL     1      -2.922  11.183  17.971  0.00  0.00    +0.000 A 
ATOM      8  C   UNL     1      -4.050  11.745  17.336  0.00  0.00    +0.000 A 
ATOM      9  C   UNL     1      -4.397  11.371  16.042  0.00  0.00    +0.000 A 
ATOM     10  C   UNL     1      -3.636  10.418  15.388  0.00  0.00    +0.000 A 
ATOM     11  F   UNL     1      -3.969  10.053  14.141  0.00  0.00    +0.000 F 
ATOM     12  C   UNL     1      -2.526   9.844  15.994  0.00  0.00    +0.000 A 
ATOM     13  C   UNL     1      -2.130  10.234  17.281  0.00  0.00    +0.000 A 
ATOM     14  N   UNL     1      -0.972   9.597  17.773  0.00  0.00    +0.000 NA
ATOM     15  C   UNL     1      -0.070  10.170  18.508  0.00  0.00    +0.000 C 
ATOM     16  N   UNL     1       1.104   9.533  18.851  0.00  0.00    +0.000 N 
ATOM     17  C   UNL     1       1.961   8.954  17.817  0.00  0.00    +0.000 C 
ATOM     18  C   UNL     1       2.227   7.455  18.041  0.00  0.00    +0.000 C 
ATOM     19  N   UNL     1       2.751   7.196  19.398  0.00  0.00    +0.000 NA
ATOM     20  C   UNL     1       3.076   5.784  19.570  0.00  0.00    +0.000 C 
ATOM     21  C   UNL     1       1.733   7.644  20.373  0.00  0.00    +0.000 C 
ATOM     22  C   UNL     1       1.411   9.154  20.237  0.00  0.00    +0.000 C 
ATOM     23  H   UNL     1      -3.274  12.318  19.616  0.00  0.00    +0.000 HD
ENDROOT
BRANCH   1  25
ATOM     24  C   UNL     1       2.745  14.850  18.798  0.00  0.00    +0.000 C 
ATOM     25  C   UNL     1       1.465  14.963  19.619  0.00  0.00    +0.000 C 
ENDBRANCH   1  25
TORSDOF 1
ENDMDL
MODEL 4
REMARK VINA RESULT:      -6.7      3.972      6.353
REMARK  Name = 
REMARK  3 active torsions:
REMARK  status: ('A' for Active; 'I' for Inactive)
REMARK    1  A    between atoms: C_1  and  C_2
REMARK    2  A    between atoms: C_2  and  C_3
REMARK    3  A    between atoms: N_21  and  C_22
REMARK                            x       y       z     vdW  Elec       q    Type
REMARK                         _______ _______ _______ _____ _____    ______ ____
ROOT
ATOM      1  C   UNL     1       2.681  13.802  19.528  0.00  0.00    +0.000 A 
ATOM      2  C   UNL     1       1.683  13.399  20.391  0.00  0.00    +0.000 A 
ATOM      3  C   UNL     1       1.000  12.207  19.951  0.00  0.00    +0.000 A 
ATOM      4  C   UNL     1       1.512  11.781  18.744  0.00  0.00    +0.000 A 
ATOM      5  S   UNL     1       2.675  12.858  18.103  0.00  0.00    +0.000 S 
ATOM      6  N   UNL     1       1.235  10.626  18.087  0.00  0.00    +0.000 N 
ATOM      7  C   UNL     1       1.323   9.428  18.852  0.00  0.00    +0.000 A 
ATOM      8  C   UNL     1       2.190   8.419  18.381  0.00  0.00    +0.000 A 
ATOM      9  C   UNL     1       2.424   7.275  19.138  0.00  0.00    +0.000 A 
ATOM     10  C   UNL     1       1.774   7.123  20.350  0.00  0.00    +0.000 A 
ATOM     11  F   UNL     1       1.995   6.020  21.080  0.00  0.00    +0.000 F 
ATOM     12  C   UNL     1       0.910   8.098  20.830  0.00  0.00    +0.000 A 
ATOM     13  C   UNL     1       0.689   9.279  20.110  0.00  0.00    +0.000 A 
ATOM     14  N   UNL     1      -0.187  10.201  20.717  0.00  0.00    +0.000 NA
ATOM     15  C   UNL     1      -0.053  11.490  20.671  0.00  0.00    +0.000 C 
ATOM     16  N   UNL     1      -0.869  12.336  21.393  0.00  0.00    +0.000 N 
ATOM     17  C   UNL     1      -1.028  12.157  22.836  0.00  0.00    +0.000 C 
ATOM     18  C   UNL     1      -2.498  11.973  23.249  0.00  0.00    +0.000 C 
ATOM     19  N   UNL     1      -3.345  13.070  22.734  0.00  0.00    +0.000 NA
ATOM     20  C   UNL     1      -4.721  12.928  23.201  0.00  0.00    +0.000 C 
ATOM     21  C   UNL     1      -3.266  13.051  21.257  0.00  0.00    +0.000 C 
ATOM     22  C   UNL     1      -1.818  13.248  20.741  0.00  0.00    +0.000 C 
ATOM     23  H   UNL     1       1.686  10.527  17.185  0.00  0.00    +0.000 HD
ENDROOT
BRANCH   1  25
ATOM     24  C   UNL     1       4.732  14.885  18.588  0.00  0.00    +0.000 C 
ATOM     25  C   UNL     1       3.687  14.901  19.698  0.00  0.00    +0.000 C 
ENDBRANCH   1  25
TORSDOF 1
ENDMDL
MODEL 5
REMARK VINA RESULT:      -6.3      7.673      9.549
REMARK  Name = 
REMARK  3 active torsions:
REMARK  status: ('A' for Active; 'I' for Inactive)
REMARK    1  A    between atoms: C_1  and  C_2
REMARK    2  A    between atoms: C_2  and  C_3
REMARK    3  A    between atoms: N_21  and  C_22
REMARK                            x       y       z     vdW  Elec       q    Type
REMARK                         _______ _______ _______ _____ _____    ______ ____
ROOT
ATOM      1  C   UNL     1      -3.006  10.644  17.768  0.00  0.00    +0.000 A 
ATOM      2  C   UNL     1      -1.930  11.117  18.491  0.00  0.00    +0.000 A 
ATOM      3  C   UNL     1      -2.273  12.209  19.368  0.00  0.00    +0.000 A 
ATOM      4  C   UNL     1      -3.608  12.526  19.239  0.00  0.00    +0.000 A 
ATOM      5  S   UNL     1      -4.381  11.630  18.005  0.00  0.00    +0.000 S 
ATOM      6  N   UNL     1      -4.333  13.390  19.994  0.00  0.00    +0.000 N 
ATOM      7  C   UNL     1      -4.232  13.233  21.405  0.00  0.00    +0.000 A 
ATOM      8  C   UNL     1      -5.430  13.029  22.123  0.00  0.00    +0.000 A 
ATOM      9  C   UNL     1      -5.401  12.743  23.485  0.00  0.00    +0.000 A 
ATOM     10  C   UNL     1      -4.182  12.685  24.137  0.00  0.00    +0.000 A 
ATOM     11  F   UNL     1      -4.151  12.413  25.449  0.00  0.00    +0.000 F 
ATOM     12  C   UNL     1      -2.990  12.891  23.454  0.00  0.00    +0.000 A 
ATOM     13  C   UNL     1      -2.988  13.138  22.074  0.00  0.00    +0.000 A 
ATOM     14  N   UNL     1      -1.713  13.301  21.494  0.00  0.00    +0.000 NA
ATOM     15  C   UNL     1      -1.380  12.882  20.313  0.00  0.00    +0.000 C 
ATOM     16  N   UNL     1      -0.082  12.957  19.851  0.00  0.00    +0.000 N 
ATOM     17  C   UNL     1       1.015  12.387  20.633  0.00  0.00    +0.000 C 
ATOM     18  C   UNL     1       2.106  13.420  20.959  0.00  0.00    +0.000 C 
ATOM     19  N   UNL     1       2.594  14.095  19.737  0.00  0.00    +0.000 NA
ATOM     20  C   UNL     1       3.685  15.012  20.049  0.00  0.00    +0.000 C 
ATOM     21  C   UNL     1       1.450  14.798  19.118  0.00  0.00    +0.000 C 
ATOM     22  C   UNL     1       0.300  13.832  18.735  0.00  0.00    +0.000 C 
ATOM     23  H   UNL     1      -5.295  13.514  19.700  0.00  0.00    +0.000 HD
ENDROOT
BRANCH   1  25
ATOM     24  C   UNL     1      -2.979   9.852  15.395  0.00  0.00    +0.000 C 
ATOM     25  C   UNL     1      -3.081   9.452  16.863  0.00  0.00    +0.000 C 
ENDBRANCH   1  25
TORSDOF 1
ENDMDL
MODEL 6
REMARK VINA RESULT:      -6.3      5.964      9.002
REMARK  Name = 
REMARK  3 active torsions:
REMARK  status: ('A' for Active; 'I' for Inactive)
REMARK    1  A    between atoms: C_1  and  C_2
REMARK    2  A    between atoms: C_2  and  C_3
REMARK    3  A    between atoms: N_21  and  C_22
REMARK                            x       y       z     vdW  Elec       q    Type
REMARK                         _______ _______ _______ _____ _____    ______ ____
ROOT
ATOM      1  C   UNL     1       0.112  10.010  19.725  0.00  0.00    +0.000 A 
ATOM      2  C   UNL     1      -0.311  10.883  20.707  0.00  0.00    +0.000 A 
ATOM      3  C   UNL     1      -1.351  11.777  20.260  0.00  0.00    +0.000 A 
ATOM      4  C   UNL     1      -1.645  11.544  18.933  0.00  0.00    +0.000 A 
ATOM      5  S   UNL     1      -0.607  10.387  18.222  0.00  0.00    +0.000 S 
ATOM      6  N   UNL     1      -2.657  12.076  18.202  0.00  0.00    +0.000 N 
ATOM      7  C   UNL     1      -3.957  12.006  18.779  0.00  0.00    +0.000 A 
ATOM      8  C   UNL     1      -4.968  11.369  18.028  0.00  0.00    +0.000 A 
ATOM      9  C   UNL     1      -6.228  11.151  18.575  0.00  0.00    +0.000 A 
ATOM     10  C   UNL     1      -6.491  11.590  19.860  0.00  0.00    +0.000 A 
ATOM     11  F   UNL     1      -7.706  11.384  20.390  0.00  0.00    +0.000 F 
ATOM     12  C   UNL     1      -5.515  12.227  20.617  0.00  0.00    +0.000 A 
ATOM     13  C   UNL     1      -4.225  12.421  20.106  0.00  0.00    +0.000 A 
ATOM     14  N   UNL     1      -3.319  13.053  20.981  0.00  0.00    +0.000 NA
ATOM     15  C   UNL     1      -2.057  12.768  21.073  0.00  0.00    +0.000 C 
ATOM     16  N   UNL     1      -1.249  13.331  22.038  0.00  0.00    +0.000 N 
ATOM     17  C   UNL     1      -1.622  13.254  23.451  0.00  0.00    +0.000 C 
ATOM     18  C   UNL     1      -1.716  14.640  24.113  0.00  0.00    +0.000 C 
ATOM     19  N   UNL     1      -0.476  15.420  23.911  0.00  0.00    +0.000 NA
ATOM     20  C   UNL     1      -0.546  16.698  24.613  0.00  0.00    +0.000 C 
ATOM     21  C   UNL     1      -0.286  15.606  22.457  0.00  0.00    +0.000 C 
ATOM     22  C   UNL     1      -0.161  14.258  21.702  0.00  0.00    +0.000 C 
ATOM     23  H   UNL     1      -2.667  11.807  17.224  0.00  0.00    +0.000 HD
ENDROOT
BRANCH   1  25
ATOM     24  C   UNL     1       1.063   8.257  21.237  0.00  0.00    +0.000 C 
ATOM     25  C   UNL     1       1.068   8.860  19.836  0.00  0.00    +0.000 C 
ENDBRANCH   1  25
TORSDOF 1
ENDMDL
MODEL 7
REMARK VINA RESULT:      -6.3      6.644      9.894
REMARK  Name = 
REMARK  3 active torsions:
REMARK  status: ('A' for Active; 'I' for Inactive)
REMARK    1  A    between atoms: C_1  and  C_2
REMARK    2  A    between atoms: C_2  and  C_3
REMARK    3  A    between atoms: N_21  and  C_22
REMARK                            x       y       z     vdW  Elec       q    Type
REMARK                         _______ _______ _______ _____ _____    ______ ____
ROOT
ATOM      1  C   UNL     1      -0.568  10.675  22.278  0.00  0.00    +0.000 A 
ATOM      2  C   UNL     1      -1.572  11.518  22.711  0.00  0.00    +0.000 A 
ATOM      3  C   UNL     1      -2.182  12.268  21.641  0.00  0.00    +0.000 A 
ATOM      4  C   UNL     1      -1.578  11.966  20.440  0.00  0.00    +0.000 A 
ATOM      5  S   UNL     1      -0.236  10.923  20.620  0.00  0.00    +0.000 S 
ATOM      6  N   UNL     1      -1.964  12.353  19.197  0.00  0.00    +0.000 N 
ATOM      7  C   UNL     1      -3.332  12.143  18.867  0.00  0.00    +0.000 A 
ATOM      8  C   UNL     1      -3.613  11.370  17.720  0.00  0.00    +0.000 A 
ATOM      9  C   UNL     1      -4.922  11.017  17.405  0.00  0.00    +0.000 A 
ATOM     10  C   UNL     1      -5.953  11.456  18.216  0.00  0.00    +0.000 A 
ATOM     11  F   UNL     1      -7.216  11.120  17.913  0.00  0.00    +0.000 F 
ATOM     12  C   UNL     1      -5.703  12.225  19.345  0.00  0.00    +0.000 A 
ATOM     13  C   UNL     1      -4.392  12.558  19.710  0.00  0.00    +0.000 A 
ATOM     14  N   UNL     1      -4.269  13.318  20.891  0.00  0.00    +0.000 NA
ATOM     15  C   UNL     1      -3.314  13.189  21.758  0.00  0.00    +0.000 C 
ATOM     16  N   UNL     1      -3.318  13.870  22.957  0.00  0.00    +0.000 N 
ATOM     17  C   UNL     1      -4.474  13.787  23.851  0.00  0.00    +0.000 C 
ATOM     18  C   UNL     1      -5.063  15.168  24.183  0.00  0.00    +0.000 C 
ATOM     19  N   UNL     1      -4.028  16.086  24.706  0.00  0.00    +0.000 NA
ATOM     20  C   UNL     1      -4.615  17.365  25.094  0.00  0.00    +0.000 C 
ATOM     21  C   UNL     1      -2.998  16.254  23.658  0.00  0.00    +0.000 C 
ATOM     22  C   UNL     1      -2.330  14.912  23.267  0.00  0.00    +0.000 C 
ATOM     23  H   UNL     1      -1.349  12.059  18.446  0.00  0.00    +0.000 HD
ENDROOT
BRANCH   1  25
ATOM     24  C   UNL     1       1.209   8.917  22.177  0.00  0.00    +0.000 C 
ATOM     25  C   UNL     1       0.203   9.652  23.056  0.00  0.00    +0.000 C 
ENDBRANCH   1  25
TORSDOF 1
ENDMDL
MODEL 8
REMARK VINA RESULT:      -6.3      2.271      5.323
REMARK  Name = 
REMARK  3 active torsions:
REMARK  status: ('A' for Active; 'I' for Inactive)
REMARK    1  A    between atoms: C_1  and  C_2
REMARK    2  A    between atoms: C_2  and  C_3
REMARK    3  A    between atoms: N_21  and  C_22
REMARK                            x       y       z     vdW  Elec       q    Type
REMARK                         _______ _______ _______ _____ _____    ______ ____
ROOT
ATOM      1  C   UNL     1       1.979   8.903  18.488  0.00  0.00    +0.000 A 
ATOM      2  C   UNL     1       2.708   8.077  17.657  0.00  0.00    +0.000 A 
ATOM      3  C   UNL     1       3.082   6.832  18.283  0.00  0.00    +0.000 A 
ATOM      4  C   UNL     1       2.629   6.796  19.585  0.00  0.00    +0.000 A 
ATOM      5  S   UNL     1       1.903   8.265  20.071  0.00  0.00    +0.000 S 
ATOM      6  N   UNL     1       2.656   5.745  20.443  0.00  0.00    +0.000 N 
ATOM      7  C   UNL     1       2.142   4.513  19.948  0.00  0.00    +0.000 A 
ATOM      8  C   UNL     1       1.096   3.906  20.674  0.00  0.00    +0.000 A 
ATOM      9  C   UNL     1       0.459   2.769  20.187  0.00  0.00    +0.000 A 
ATOM     10  C   UNL     1       0.880   2.220  18.989  0.00  0.00    +0.000 A 
ATOM     11  F   UNL     1       0.271   1.123  18.517  0.00  0.00    +0.000 F 
ATOM     12  C   UNL     1       1.914   2.794  18.259  0.00  0.00    +0.000 A 
ATOM     13  C   UNL     1       2.544   3.964  18.706  0.00  0.00    +0.000 A 
ATOM     14  N   UNL     1       3.558   4.462  17.862  0.00  0.00    +0.000 NA
ATOM     15  C   UNL     1       3.794   5.720  17.653  0.00  0.00    +0.000 C 
ATOM     16  N   UNL     1       4.714   6.144  16.718  0.00  0.00    +0.000 N 
ATOM     17  C   UNL     1       4.633   5.675  15.334  0.00  0.00    +0.000 C 
ATOM     18  C   UNL     1       5.929   4.993  14.865  0.00  0.00    +0.000 C 
ATOM     19  N   UNL     1       7.106   5.861  15.084  0.00  0.00    +0.000 NA
ATOM     20  C   UNL     1       8.317   5.237  14.560  0.00  0.00    +0.000 C 
ATOM     21  C   UNL     1       7.213   6.126  16.535  0.00  0.00    +0.000 C 
ATOM     22  C   UNL     1       5.955   6.832  17.100  0.00  0.00    +0.000 C 
ATOM     23  H   UNL     1       2.313   5.944  21.376  0.00  0.00    +0.000 HD
ENDROOT
BRANCH   1  25
ATOM     24  C   UNL     1      -0.204  10.122  18.374  0.00  0.00    +0.000 C 
ATOM     25  C   UNL     1       1.305  10.204  18.167  0.00  0.00    +0.000 C 
ENDBRANCH   1  25
TORSDOF 1
ENDMDL
MODEL 9
REMARK VINA RESULT:      -6.0      2.807      5.099
REMARK  Name = 
REMARK  3 active torsions:
REMARK  status: ('A' for Active; 'I' for Inactive)
REMARK    1  A    between atoms: C_1  and  C_2
REMARK    2  A    between atoms: C_2  and  C_3
REMARK    3  A    between atoms: N_21  and  C_22
REMARK                            x       y       z     vdW  Elec       q    Type
REMARK                         _______ _______ _______ _____ _____    ______ ____
ROOT
ATOM      1  C   UNL     1       2.075   3.381  19.916  0.00  0.00    +0.000 A 
ATOM      2  C   UNL     1       1.865   4.627  19.362  0.00  0.00    +0.000 A 
ATOM      3  C   UNL     1       3.087   5.355  19.124  0.00  0.00    +0.000 A 
ATOM      4  C   UNL     1       4.173   4.617  19.543  0.00  0.00    +0.000 A 
ATOM      5  S   UNL     1       3.721   3.163  20.319  0.00  0.00    +0.000 S 
ATOM      6  N   UNL     1       5.488   4.896  19.355  0.00  0.00    +0.000 N 
ATOM      7  C   UNL     1       5.881   5.218  18.025  0.00  0.00    +0.000 A 
ATOM      8  C   UNL     1       6.902   4.437  17.443  0.00  0.00    +0.000 A 
ATOM      9  C   UNL     1       7.253   4.609  16.107  0.00  0.00    +0.000 A 
ATOM     10  C   UNL     1       6.606   5.575  15.358  0.00  0.00    +0.000 A 
ATOM     11  F   UNL     1       6.944   5.745  14.072  0.00  0.00    +0.000 F 
ATOM     12  C   UNL     1       5.604   6.362  15.911  0.00  0.00    +0.000 A 
ATOM     13  C   UNL     1       5.201   6.181  17.241  0.00  0.00    +0.000 A 
ATOM     14  N   UNL     1       4.156   7.022  17.674  0.00  0.00    +0.000 NA
ATOM     15  C   UNL     1       3.210   6.667  18.487  0.00  0.00    +0.000 C 
ATOM     16  N   UNL     1       2.143   7.494  18.772  0.00  0.00    +0.000 N 
ATOM     17  C   UNL     1       1.339   8.063  17.690  0.00  0.00    +0.000 C 
ATOM     18  C   UNL     1       1.284   9.599  17.740  0.00  0.00    +0.000 C 
ATOM     19  N   UNL     1       0.844  10.082  19.066  0.00  0.00    +0.000 NA
ATOM     20  C   UNL     1       0.717  11.536  19.074  0.00  0.00    +0.000 C 
ATOM     21  C   UNL     1       1.824   9.614  20.069  0.00  0.00    +0.000 C 
ATOM     22  C   UNL     1       1.936   8.068  20.108  0.00  0.00    +0.000 C 
ATOM     23  H   UNL     1       6.131   4.242  19.787  0.00  0.00    +0.000 HD
ENDROOT
BRANCH   1  25
ATOM     24  C   UNL     1       0.390   1.832  18.905  0.00  0.00    +0.000 C 
ATOM     25  C   UNL     1       1.083   2.290  20.184  0.00  0.00    +0.000 C 
ENDBRANCH   1  25
TORSDOF 1
ENDMDL
