MODEL 1
REMARK VINA RESULT:      -7.5      0.000      0.000
REMARK  Name = 
REMARK  2 active torsions:
REMARK  status: ('A' for Active; 'I' for Inactive)
REMARK    1  A    between atoms: C_5  and  N_6
REMARK    2  A    between atoms: C_16  and  C_17
REMARK                            x       y       z     vdW  Elec       q    Type
REMARK                         _______ _______ _______ _____ _____    ______ ____
ROOT
ATOM      1  O   UNL     1       1.377   5.962  21.127  0.00  0.00    +0.000 OA
ATOM      2  C   UNL     1       2.089   6.383  20.219  0.00  0.00    +0.000 C 
ATOM      3  C   UNL     1       3.085   5.517  19.542  0.00  0.00    +0.000 C 
ATOM      4 CL   UNL     1       3.327   3.961  20.274  0.00  0.00    +0.000 Cl
ATOM      5  C   UNL     1       3.706   5.869  18.403  0.00  0.00    +0.000 C 
ATOM      6  C   UNL     1       3.399   7.227  17.814  0.00  0.00    +0.000 C 
ATOM      7  O   UNL     1       3.828   7.546  16.705  0.00  0.00    +0.000 OA
ATOM      8  C   UNL     1       2.594   8.177  18.633  0.00  0.00    +0.000 C 
ATOM      9 CL   UNL     1       2.509   9.803  18.027  0.00  0.00    +0.000 Cl
ATOM     10  C   UNL     1       1.982   7.789  19.761  0.00  0.00    +0.000 C 
ENDROOT
BRANCH  10  11
ATOM     11  C   UNL     1       1.226   8.687  20.567  0.00  0.00    +0.000 A 
ATOM     12  C   UNL     1       1.347   9.026  21.898  0.00  0.00    +0.000 A 
ATOM     13  N   UNL     1       0.459   9.976  22.364  0.00  0.00    +0.000 NA
ATOM     14  C   UNL     1      -0.320  10.414  21.396  0.00  0.00    +0.000 A 
ATOM     15  N   UNL     1      -1.313  11.339  21.570  0.00  0.00    +0.000 N 
ATOM     16  C   UNL     1      -1.522  11.868  22.922  0.00  0.00    +0.000 C 
ATOM     17  C   UNL     1      -2.996  12.244  23.085  0.00  0.00    +0.000 C 
ATOM     18  C   UNL     1      -3.466  13.198  21.988  0.00  0.00    +0.000 C 
ATOM     19  C   UNL     1      -3.110  12.672  20.601  0.00  0.00    +0.000 C 
ATOM     20  C   UNL     1      -1.633  12.291  20.504  0.00  0.00    +0.000 C 
ATOM     21  S   UNL     1      -0.034   9.625  19.878  0.00  0.00    +0.000 S 
ENDBRANCH  10  11
BRANCH   5  22
ATOM     22  N   UNL     1       4.584   5.033  17.694  0.00  0.00    +0.000 N 
ATOM     23  C   UNL     1       5.963   4.804  18.139  0.00  0.00    +0.000 C 
ATOM     24  C   UNL     1       6.884   4.998  16.934  0.00  0.00    +0.000 C 
ATOM     25  C   UNL     1       6.491   4.074  15.781  0.00  0.00    +0.000 C 
ATOM     26  C   UNL     1       5.003   4.193  15.439  0.00  0.00    +0.000 C 
ATOM     27  C   UNL     1       4.122   4.077  16.683  0.00  0.00    +0.000 C 
ENDBRANCH   5  22
TORSDOF 2
ENDMDL
MODEL 2
REMARK VINA RESULT:      -7.5      2.625      9.425
REMARK  Name = 
REMARK  2 active torsions:
REMARK  status: ('A' for Active; 'I' for Inactive)
REMARK    1  A    between atoms: C_5  and  N_6
REMARK    2  A    between atoms: C_16  and  C_17
REMARK                            x       y       z     vdW  Elec       q    Type
REMARK                         _______ _______ _______ _____ _____    ______ ____
ROOT
ATOM      1  O   UNL     1      -0.890  10.272  18.170  0.00  0.00    +0.000 OA
ATOM      2  C   UNL     1      -0.646  10.538  19.344  0.00  0.00    +0.000 C 
ATOM      3  C   UNL     1      -1.400  11.581  20.082  0.00  0.00    +0.000 C 
ATOM      4 CL   UNL     1      -2.475  12.539  19.113  0.00  0.00    +0.000 Cl
ATOM      5  C   UNL     1      -1.322  11.733  21.416  0.00  0.00    +0.000 C 
ATOM      6  C   UNL     1      -0.391  10.822  22.185  0.00  0.00    +0.000 C 
ATOM      7  O   UNL     1      -0.383  10.822  23.416  0.00  0.00    +0.000 OA
ATOM      8  C   UNL     1       0.538   9.957  21.406  0.00  0.00    +0.000 C 
ATOM      9 CL   UNL     1       1.763   9.146  22.334  0.00  0.00    +0.000 Cl
ATOM     10  C   UNL     1       0.427   9.823  20.076  0.00  0.00    +0.000 C 
ENDROOT
BRANCH  10  11
ATOM     11  C   UNL     1       1.319   9.017  19.313  0.00  0.00    +0.000 A 
ATOM     12  C   UNL     1       1.983   9.274  18.132  0.00  0.00    +0.000 A 
ATOM     13  N   UNL     1       2.816   8.272  17.675  0.00  0.00    +0.000 NA
ATOM     14  C   UNL     1       2.842   7.257  18.514  0.00  0.00    +0.000 A 
ATOM     15  N   UNL     1       3.562   6.111  18.308  0.00  0.00    +0.000 N 
ATOM     16  C   UNL     1       4.344   6.010  17.072  0.00  0.00    +0.000 C 
ATOM     17  C   UNL     1       4.440   4.538  16.664  0.00  0.00    +0.000 C 
ATOM     18  C   UNL     1       4.990   3.669  17.794  0.00  0.00    +0.000 C 
ATOM     19  C   UNL     1       4.231   3.903  19.097  0.00  0.00    +0.000 C 
ATOM     20  C   UNL     1       4.146   5.389  19.441  0.00  0.00    +0.000 C 
ATOM     21  S   UNL     1       1.790   7.467  19.876  0.00  0.00    +0.000 S 
ENDBRANCH  10  11
BRANCH   5  22
ATOM     22  N   UNL     1      -2.092  12.650  22.150  0.00  0.00    +0.000 N 
ATOM     23  C   UNL     1      -1.638  14.025  22.388  0.00  0.00    +0.000 C 
ATOM     24  C   UNL     1      -1.810  14.325  23.877  0.00  0.00    +0.000 C 
ATOM     25  C   UNL     1      -3.257  14.111  24.323  0.00  0.00    +0.000 C 
ATOM     26  C   UNL     1      -3.780  12.732  23.914  0.00  0.00    +0.000 C 
ATOM     27  C   UNL     1      -3.514  12.437  22.437  0.00  0.00    +0.000 C 
ENDBRANCH   5  22
TORSDOF 2
ENDMDL
MODEL 3
REMARK VINA RESULT:      -7.2      3.132      9.543
REMARK  Name = 
REMARK  2 active torsions:
REMARK  status: ('A' for Active; 'I' for Inactive)
REMARK    1  A    between atoms: C_5  and  N_6
REMARK    2  A    between atoms: C_16  and  C_17
REMARK                            x       y       z     vdW  Elec       q    Type
REMARK                         _______ _______ _______ _____ _____    ______ ____
ROOT
ATOM      1  O   UNL     1       1.318  11.666  20.968  0.00  0.00    +0.000 OA
ATOM      2  C   UNL     1       0.162  11.609  20.557  0.00  0.00    +0.000 C 
ATOM      3  C   UNL     1      -0.943  12.334  21.231  0.00  0.00    +0.000 C 
ATOM      4 CL   UNL     1      -0.528  13.065  22.750  0.00  0.00    +0.000 Cl
ATOM      5  C   UNL     1      -2.161  12.484  20.680  0.00  0.00    +0.000 C 
ATOM      6  C   UNL     1      -2.418  11.851  19.332  0.00  0.00    +0.000 C 
ATOM      7  O   UNL     1      -3.463  12.072  18.719  0.00  0.00    +0.000 OA
ATOM      8  C   UNL     1      -1.386  10.923  18.790  0.00  0.00    +0.000 C 
ATOM      9 CL   UNL     1      -1.855  10.019  17.382  0.00  0.00    +0.000 Cl
ATOM     10  C   UNL     1      -0.179  10.802  19.360  0.00  0.00    +0.000 C 
ENDROOT
BRANCH  10  11
ATOM     11  C   UNL     1       0.813   9.906  18.868  0.00  0.00    +0.000 A 
ATOM     12  C   UNL     1       1.782  10.074  17.901  0.00  0.00    +0.000 A 
ATOM     13  N   UNL     1       2.620   8.996  17.691  0.00  0.00    +0.000 NA
ATOM     14  C   UNL     1       2.342   8.010  18.518  0.00  0.00    +0.000 A 
ATOM     15  N   UNL     1       2.993   6.806  18.521  0.00  0.00    +0.000 N 
ATOM     16  C   UNL     1       4.060   6.606  17.536  0.00  0.00    +0.000 C 
ATOM     17  C   UNL     1       4.138   5.119  17.184  0.00  0.00    +0.000 C 
ATOM     18  C   UNL     1       4.299   4.246  18.427  0.00  0.00    +0.000 C 
ATOM     19  C   UNL     1       3.247   4.580  19.482  0.00  0.00    +0.000 C 
ATOM     20  C   UNL     1       3.198   6.078  19.775  0.00  0.00    +0.000 C 
ATOM     21  S   UNL     1       0.990   8.343  19.551  0.00  0.00    +0.000 S 
ENDBRANCH  10  11
BRANCH   5  22
ATOM     22  N   UNL     1      -3.196  13.241  21.254  0.00  0.00    +0.000 N 
ATOM     23  C   UNL     1      -3.339  14.678  20.992  0.00  0.00    +0.000 C 
ATOM     24  C   UNL     1      -3.530  15.383  22.335  0.00  0.00    +0.000 C 
ATOM     25  C   UNL     1      -4.729  14.814  23.095  0.00  0.00    +0.000 C 
ATOM     26  C   UNL     1      -4.657  13.289  23.210  0.00  0.00    +0.000 C 
ATOM     27  C   UNL     1      -4.382  12.629  21.859  0.00  0.00    +0.000 C 
ENDBRANCH   5  22
TORSDOF 2
ENDMDL
MODEL 4
REMARK VINA RESULT:      -7.2      3.111      9.541
REMARK  Name = 
REMARK  2 active torsions:
REMARK  status: ('A' for Active; 'I' for Inactive)
REMARK    1  A    between atoms: C_5  and  N_6
REMARK    2  A    between atoms: C_16  and  C_17
REMARK                            x       y       z     vdW  Elec       q    Type
REMARK                         _______ _______ _______ _____ _____    ______ ____
ROOT
ATOM      1  O   UNL     1       1.302  11.652  20.939  0.00  0.00    +0.000 OA
ATOM      2  C   UNL     1       0.148  11.586  20.524  0.00  0.00    +0.000 C 
ATOM      3  C   UNL     1      -0.965  12.301  21.194  0.00  0.00    +0.000 C 
ATOM      4 CL   UNL     1      -0.562  13.034  22.715  0.00  0.00    +0.000 Cl
ATOM      5  C   UNL     1      -2.182  12.441  20.640  0.00  0.00    +0.000 C 
ATOM      6  C   UNL     1      -2.429  11.806  19.290  0.00  0.00    +0.000 C 
ATOM      7  O   UNL     1      -3.473  12.019  18.674  0.00  0.00    +0.000 OA
ATOM      8  C   UNL     1      -1.387  10.888  18.751  0.00  0.00    +0.000 C 
ATOM      9 CL   UNL     1      -1.844   9.981  17.341  0.00  0.00    +0.000 Cl
ATOM     10  C   UNL     1      -0.181  10.777  19.325  0.00  0.00    +0.000 C 
ENDROOT
BRANCH  10  11
ATOM     11  C   UNL     1       0.820   9.890  18.836  0.00  0.00    +0.000 A 
ATOM     12  C   UNL     1       1.796  10.070  17.879  0.00  0.00    +0.000 A 
ATOM     13  N   UNL     1       2.642   8.998  17.669  0.00  0.00    +0.000 NA
ATOM     14  C   UNL     1       2.362   8.004  18.487  0.00  0.00    +0.000 A 
ATOM     15  N   UNL     1       3.020   6.804  18.487  0.00  0.00    +0.000 N 
ATOM     16  C   UNL     1       4.097   6.617  17.511  0.00  0.00    +0.000 C 
ATOM     17  C   UNL     1       4.187   5.133  17.149  0.00  0.00    +0.000 C 
ATOM     18  C   UNL     1       4.341   4.252  18.388  0.00  0.00    +0.000 C 
ATOM     19  C   UNL     1       3.278   4.573  19.435  0.00  0.00    +0.000 C 
ATOM     20  C   UNL     1       3.218   6.069  19.739  0.00  0.00    +0.000 C 
ATOM     21  S   UNL     1       0.999   8.323  19.510  0.00  0.00    +0.000 S 
ENDBRANCH  10  11
BRANCH   5  22
ATOM     22  N   UNL     1      -3.226  13.189  21.210  0.00  0.00    +0.000 N 
ATOM     23  C   UNL     1      -4.076  12.643  22.274  0.00  0.00    +0.000 C 
ATOM     24  C   UNL     1      -5.533  12.908  21.892  0.00  0.00    +0.000 C 
ATOM     25  C   UNL     1      -5.784  14.400  21.663  0.00  0.00    +0.000 C 
ATOM     26  C   UNL     1      -4.776  15.001  20.680  0.00  0.00    +0.000 C 
ATOM     27  C   UNL     1      -3.337  14.642  21.050  0.00  0.00    +0.000 C 
ENDBRANCH   5  22
TORSDOF 2
ENDMDL
MODEL 5
REMARK VINA RESULT:      -7.1      2.636      9.476
REMARK  Name = 
REMARK  2 active torsions:
REMARK  status: ('A' for Active; 'I' for Inactive)
REMARK    1  A    between atoms: C_5  and  N_6
REMARK    2  A    between atoms: C_16  and  C_17
REMARK                            x       y       z     vdW  Elec       q    Type
REMARK                         _______ _______ _______ _____ _____    ______ ____
ROOT
ATOM      1  O   UNL     1      -0.966  10.176  18.172  0.00  0.00    +0.000 OA
ATOM      2  C   UNL     1      -0.710  10.498  19.329  0.00  0.00    +0.000 C 
ATOM      3  C   UNL     1      -1.470  11.562  20.031  0.00  0.00    +0.000 C 
ATOM      4 CL   UNL     1      -2.572  12.460  19.034  0.00  0.00    +0.000 Cl
ATOM      5  C   UNL     1      -1.375  11.775  21.355  0.00  0.00    +0.000 C 
ATOM      6  C   UNL     1      -0.422  10.913  22.150  0.00  0.00    +0.000 C 
ATOM      7  O   UNL     1      -0.397  10.969  23.380  0.00  0.00    +0.000 OA
ATOM      8  C   UNL     1       0.510  10.027  21.398  0.00  0.00    +0.000 C 
ATOM      9 CL   UNL     1       1.759   9.276  22.344  0.00  0.00    +0.000 Cl
ATOM     10  C   UNL     1       0.383   9.832  20.078  0.00  0.00    +0.000 C 
ENDROOT
BRANCH  10  11
ATOM     11  C   UNL     1       1.276   9.005  19.339  0.00  0.00    +0.000 A 
ATOM     12  C   UNL     1       1.964   9.240  18.166  0.00  0.00    +0.000 A 
ATOM     13  N   UNL     1       2.790   8.220  17.735  0.00  0.00    +0.000 NA
ATOM     14  C   UNL     1       2.788   7.214  18.586  0.00  0.00    +0.000 A 
ATOM     15  N   UNL     1       3.494   6.056  18.404  0.00  0.00    +0.000 N 
ATOM     16  C   UNL     1       4.296   5.931  17.183  0.00  0.00    +0.000 C 
ATOM     17  C   UNL     1       4.378   4.454  16.793  0.00  0.00    +0.000 C 
ATOM     18  C   UNL     1       4.896   3.589  17.941  0.00  0.00    +0.000 C 
ATOM     19  C   UNL     1       4.119   3.849  19.229  0.00  0.00    +0.000 C 
ATOM     20  C   UNL     1       4.049   5.339  19.555  0.00  0.00    +0.000 C 
ATOM     21  S   UNL     1       1.715   7.454  19.927  0.00  0.00    +0.000 S 
ENDBRANCH  10  11
BRANCH   5  22
ATOM     22  N   UNL     1      -2.149  12.714  22.058  0.00  0.00    +0.000 N 
ATOM     23  C   UNL     1      -3.362  12.324  22.786  0.00  0.00    +0.000 C 
ATOM     24  C   UNL     1      -4.475  13.298  22.397  0.00  0.00    +0.000 C 
ATOM     25  C   UNL     1      -4.071  14.745  22.684  0.00  0.00    +0.000 C 
ATOM     26  C   UNL     1      -2.715  15.090  22.064  0.00  0.00    +0.000 C 
ATOM     27  C   UNL     1      -1.651  14.047  22.408  0.00  0.00    +0.000 C 
ENDBRANCH   5  22
TORSDOF 2
ENDMDL
MODEL 6
REMARK VINA RESULT:      -6.9      3.896     10.352
REMARK  Name = 
REMARK  2 active torsions:
REMARK  status: ('A' for Active; 'I' for Inactive)
REMARK    1  A    between atoms: C_5  and  N_6
REMARK    2  A    between atoms: C_16  and  C_17
REMARK                            x       y       z     vdW  Elec       q    Type
REMARK                         _______ _______ _______ _____ _____    ______ ____
ROOT
ATOM      1  O   UNL     1       0.425  13.007  21.962  0.00  0.00    +0.000 OA
ATOM      2  C   UNL     1      -0.767  12.981  21.666  0.00  0.00    +0.000 C 
ATOM      3  C   UNL     1      -1.786  13.702  22.466  0.00  0.00    +0.000 C 
ATOM      4 CL   UNL     1      -1.209  14.380  23.957  0.00  0.00    +0.000 Cl
ATOM      5  C   UNL     1      -3.049  13.889  22.044  0.00  0.00    +0.000 C 
ATOM      6  C   UNL     1      -3.449  13.301  20.710  0.00  0.00    +0.000 C 
ATOM      7  O   UNL     1      -4.545  13.557  20.211  0.00  0.00    +0.000 OA
ATOM      8  C   UNL     1      -2.494  12.374  20.042  0.00  0.00    +0.000 C 
ATOM      9 CL   UNL     1      -3.117  11.521  18.663  0.00  0.00    +0.000 Cl
ATOM     10  C   UNL     1      -1.239  12.217  20.486  0.00  0.00    +0.000 C 
ENDROOT
BRANCH  10  11
ATOM     11  C   UNL     1      -0.318  11.320  19.872  0.00  0.00    +0.000 A 
ATOM     12  C   UNL     1       0.558  11.504  18.823  0.00  0.00    +0.000 A 
ATOM     13  N   UNL     1       1.349  10.419  18.498  0.00  0.00    +0.000 NA
ATOM     14  C   UNL     1       1.130   9.410  19.316  0.00  0.00    +0.000 A 
ATOM     15  N   UNL     1       1.753   8.195  19.217  0.00  0.00    +0.000 N 
ATOM     16  C   UNL     1       2.717   8.010  18.128  0.00  0.00    +0.000 C 
ATOM     17  C   UNL     1       2.730   6.535  17.722  0.00  0.00    +0.000 C 
ATOM     18  C   UNL     1       2.990   5.617  18.915  0.00  0.00    +0.000 C 
ATOM     19  C   UNL     1       2.050   5.933  20.076  0.00  0.00    +0.000 C 
ATOM     20  C   UNL     1       2.061   7.421  20.422  0.00  0.00    +0.000 C 
ATOM     21  S   UNL     1      -0.110   9.732  20.484  0.00  0.00    +0.000 S 
ENDBRANCH  10  11
BRANCH   5  22
ATOM     22  N   UNL     1      -4.008  14.645  22.739  0.00  0.00    +0.000 N 
ATOM     23  C   UNL     1      -4.788  14.075  23.844  0.00  0.00    +0.000 C 
ATOM     24  C   UNL     1      -6.259  14.415  23.604  0.00  0.00    +0.000 C 
ATOM     25  C   UNL     1      -6.465  15.925  23.472  0.00  0.00    +0.000 C 
ATOM     26  C   UNL     1      -5.520  16.539  22.436  0.00  0.00    +0.000 C 
ATOM     27  C   UNL     1      -4.070  16.107  22.661  0.00  0.00    +0.000 C 
ENDBRANCH   5  22
TORSDOF 2
ENDMDL
MODEL 7
REMARK VINA RESULT:      -6.9      2.600      3.714
REMARK  Name = 
REMARK  2 active torsions:
REMARK  status: ('A' for Active; 'I' for Inactive)
REMARK    1  A    between atoms: C_5  and  N_6
REMARK    2  A    between atoms: C_16  and  C_17
REMARK                            x       y       z     vdW  Elec       q    Type
REMARK                         _______ _______ _______ _____ _____    ______ ____
ROOT
ATOM      1  O   UNL     1       2.470  10.182  17.650  0.00  0.00    +0.000 OA
ATOM      2  C   UNL     1       2.109   9.255  18.371  0.00  0.00    +0.000 C 
ATOM      3  C   UNL     1       2.568   7.863  18.142  0.00  0.00    +0.000 C 
ATOM      4 CL   UNL     1       3.450   7.611  16.668  0.00  0.00    +0.000 Cl
ATOM      5  C   UNL     1       2.386   6.877  19.037  0.00  0.00    +0.000 C 
ATOM      6  C   UNL     1       1.645   7.201  20.315  0.00  0.00    +0.000 C 
ATOM      7  O   UNL     1       1.571   6.378  21.228  0.00  0.00    +0.000 OA
ATOM      8  C   UNL     1       0.978   8.529  20.416  0.00  0.00    +0.000 C 
ATOM      9 CL   UNL     1      -0.080   8.735  21.779  0.00  0.00    +0.000 Cl
ATOM     10  C   UNL     1       1.188   9.493  19.508  0.00  0.00    +0.000 C 
ENDROOT
BRANCH  10  11
ATOM     11  C   UNL     1       0.543  10.761  19.578  0.00  0.00    +0.000 A 
ATOM     12  C   UNL     1      -0.617  11.218  18.987  0.00  0.00    +0.000 A 
ATOM     13  N   UNL     1      -0.986  12.512  19.300  0.00  0.00    +0.000 NA
ATOM     14  C   UNL     1      -0.150  13.048  20.166  0.00  0.00    +0.000 A 
ATOM     15  N   UNL     1      -0.252  14.329  20.636  0.00  0.00    +0.000 N 
ATOM     16  C   UNL     1      -1.358  15.152  20.138  0.00  0.00    +0.000 C 
ATOM     17  C   UNL     1      -0.927  16.620  20.145  0.00  0.00    +0.000 C 
ATOM     18  C   UNL     1      -0.424  17.060  21.519  0.00  0.00    +0.000 C 
ATOM     19  C   UNL     1       0.632  16.101  22.059  0.00  0.00    +0.000 C 
ATOM     20  C   UNL     1       0.156  14.650  22.006  0.00  0.00    +0.000 C 
ATOM     21  S   UNL     1       1.167  12.001  20.584  0.00  0.00    +0.000 S 
ENDBRANCH  10  11
BRANCH   5  22
ATOM     22  N   UNL     1       2.889   5.574  18.887  0.00  0.00    +0.000 N 
ATOM     23  C   UNL     1       4.223   5.200  19.369  0.00  0.00    +0.000 C 
ATOM     24  C   UNL     1       4.937   4.454  18.242  0.00  0.00    +0.000 C 
ATOM     25  C   UNL     1       4.130   3.239  17.781  0.00  0.00    +0.000 C 
ATOM     26  C   UNL     1       2.684   3.612  17.447  0.00  0.00    +0.000 C 
ATOM     27  C   UNL     1       2.033   4.428  18.563  0.00  0.00    +0.000 C 
ENDBRANCH   5  22
TORSDOF 2
ENDMDL
MODEL 8
REMARK VINA RESULT:      -6.7      2.770      9.262
REMARK  Name = 
REMARK  2 active torsions:
REMARK  status: ('A' for Active; 'I' for Inactive)
REMARK    1  A    between atoms: C_5  and  N_6
REMARK    2  A    between atoms: C_16  and  C_17
REMARK                            x       y       z     vdW  Elec       q    Type
REMARK                         _______ _______ _______ _____ _____    ______ ____
ROOT
ATOM      1  O   UNL     1       0.858  10.409  22.344  0.00  0.00    +0.000 OA
ATOM      2  C   UNL     1       0.046  10.649  21.455  0.00  0.00    +0.000 C 
ATOM      3  C   UNL     1      -1.032  11.652  21.631  0.00  0.00    +0.000 C 
ATOM      4 CL   UNL     1      -1.198  12.282  23.240  0.00  0.00    +0.000 Cl
ATOM      5  C   UNL     1      -1.783  12.105  20.611  0.00  0.00    +0.000 C 
ATOM      6  C   UNL     1      -1.537  11.531  19.234  0.00  0.00    +0.000 C 
ATOM      7  O   UNL     1      -2.095  12.005  18.244  0.00  0.00    +0.000 OA
ATOM      8  C   UNL     1      -0.632  10.353  19.121  0.00  0.00    +0.000 C 
ATOM      9 CL   UNL     1      -0.606   9.573  17.569  0.00  0.00    +0.000 Cl
ATOM     10  C   UNL     1       0.109   9.933  20.157  0.00  0.00    +0.000 C 
ENDROOT
BRANCH  10  11
ATOM     11  C   UNL     1       0.965   8.798  20.073  0.00  0.00    +0.000 A 
ATOM     12  C   UNL     1       1.037   7.663  20.853  0.00  0.00    +0.000 A 
ATOM     13  N   UNL     1       1.973   6.723  20.467  0.00  0.00    +0.000 NA
ATOM     14  C   UNL     1       2.594   7.095  19.367  0.00  0.00    +0.000 A 
ATOM     15  N   UNL     1       3.591   6.372  18.769  0.00  0.00    +0.000 N 
ATOM     16  C   UNL     1       3.990   5.110  19.399  0.00  0.00    +0.000 C 
ATOM     17  C   UNL     1       5.468   4.851  19.097  0.00  0.00    +0.000 C 
ATOM     18  C   UNL     1       5.759   4.890  17.598  0.00  0.00    +0.000 C 
ATOM     19  C   UNL     1       5.209   6.162  16.957  0.00  0.00    +0.000 C 
ATOM     20  C   UNL     1       3.739   6.381  17.311  0.00  0.00    +0.000 C 
ATOM     21  S   UNL     1       2.097   8.654  18.794  0.00  0.00    +0.000 S 
ENDBRANCH  10  11
BRANCH   5  22
ATOM     22  N   UNL     1      -2.747  13.119  20.733  0.00  0.00    +0.000 N 
ATOM     23  C   UNL     1      -2.391  14.539  20.637  0.00  0.00    +0.000 C 
ATOM     24  C   UNL     1      -3.035  15.265  21.818  0.00  0.00    +0.000 C 
ATOM     25  C   UNL     1      -4.549  15.052  21.843  0.00  0.00    +0.000 C 
ATOM     26  C   UNL     1      -4.915  13.568  21.766  0.00  0.00    +0.000 C 
ATOM     27  C   UNL     1      -4.186  12.860  20.623  0.00  0.00    +0.000 C 
ENDBRANCH   5  22
TORSDOF 2
ENDMDL
MODEL 9
REMARK VINA RESULT:      -6.6      1.760      2.275
REMARK  Name = 
REMARK  2 active torsions:
REMARK  status: ('A' for Active; 'I' for Inactive)
REMARK    1  A    between atoms: C_5  and  N_6
REMARK    2  A    between atoms: C_16  and  C_17
REMARK                            x       y       z     vdW  Elec       q    Type
REMARK                         _______ _______ _______ _____ _____    ______ ____
ROOT
ATOM      1  O   UNL     1       0.266   7.896  21.570  0.00  0.00    +0.000 OA
ATOM      2  C   UNL     1       1.037   8.009  20.620  0.00  0.00    +0.000 C 
ATOM      3  C   UNL     1       1.861   6.872  20.143  0.00  0.00    +0.000 C 
ATOM      4 CL   UNL     1       1.829   5.462  21.156  0.00  0.00    +0.000 Cl
ATOM      5  C   UNL     1       2.530   6.893  18.977  0.00  0.00    +0.000 C 
ATOM      6  C   UNL     1       2.463   8.149  18.138  0.00  0.00    +0.000 C 
ATOM      7  O   UNL     1       2.937   8.176  17.002  0.00  0.00    +0.000 OA
ATOM      8  C   UNL     1       1.843   9.360  18.745  0.00  0.00    +0.000 C 
ATOM      9 CL   UNL     1       2.043  10.834  17.848  0.00  0.00    +0.000 Cl
ATOM     10  C   UNL     1       1.177   9.302  19.907  0.00  0.00    +0.000 C 
ENDROOT
BRANCH  10  11
ATOM     11  C   UNL     1       0.595  10.453  20.512  0.00  0.00    +0.000 A 
ATOM     12  C   UNL     1       1.163  11.468  21.254  0.00  0.00    +0.000 A 
ATOM     13  N   UNL     1       0.305  12.469  21.665  0.00  0.00    +0.000 NA
ATOM     14  C   UNL     1      -0.915  12.267  21.209  0.00  0.00    +0.000 A 
ATOM     15  N   UNL     1      -1.978  13.084  21.480  0.00  0.00    +0.000 N 
ATOM     16  C   UNL     1      -1.742  14.251  22.335  0.00  0.00    +0.000 C 
ATOM     17  C   UNL     1      -3.027  14.576  23.098  0.00  0.00    +0.000 C 
ATOM     18  C   UNL     1      -4.219  14.754  22.159  0.00  0.00    +0.000 C 
ATOM     19  C   UNL     1      -4.350  13.576  21.196  0.00  0.00    +0.000 C 
ATOM     20  C   UNL     1      -3.032  13.284  20.481  0.00  0.00    +0.000 C 
ATOM     21  S   UNL     1      -1.072  10.796  20.305  0.00  0.00    +0.000 S 
ENDBRANCH  10  11
BRANCH   5  22
ATOM     22  N   UNL     1       3.243   5.799  18.458  0.00  0.00    +0.000 N 
ATOM     23  C   UNL     1       2.597   4.782  17.621  0.00  0.00    +0.000 C 
ATOM     24  C   UNL     1       2.989   3.408  18.165  0.00  0.00    +0.000 C 
ATOM     25  C   UNL     1       4.509   3.240  18.205  0.00  0.00    +0.000 C 
ATOM     26  C   UNL     1       5.190   4.403  18.932  0.00  0.00    +0.000 C 
ATOM     27  C   UNL     1       4.707   5.758  18.416  0.00  0.00    +0.000 C 
ENDBRANCH   5  22
TORSDOF 2
ENDMDL
