MODEL 1
REMARK VINA RESULT:      -8.3      0.000      0.000
REMARK  Name = 
REMARK  4 active torsions:
REMARK  status: ('A' for Active; 'I' for Inactive)
REMARK    1  A    between atoms: C_1  and  C_2
REMARK    2  A    between atoms: C_2  and  C_3
REMARK    3  A    between atoms: C_5  and  C_6
REMARK    4  A    between atoms: N_12  and  C_13
REMARK                            x       y       z     vdW  Elec       q    Type
REMARK                         _______ _______ _______ _____ _____    ______ ____
ROOT
ATOM      1  C   UNL     1       5.424   5.613  16.129  0.00  0.00    +0.000 A 
ATOM      2  N   UNL     1       5.833   6.863  16.540  0.00  0.00    +0.000 NA
ATOM      3  C   UNL     1       5.097   7.139  17.592  0.00  0.00    +0.000 A 
ATOM      4  N   UNL     1       4.250   6.111  17.919  0.00  0.00    +0.000 N 
ATOM      5  C   UNL     1       4.402   5.150  16.944  0.00  0.00    +0.000 A 
ATOM      6  C   UNL     1       3.513   3.969  16.874  0.00  0.00    +0.000 C 
ATOM      7  N   UNL     1       3.810   3.115  18.003  0.00  0.00    +0.000 N 
ATOM      8  C   UNL     1       3.985   1.694  17.766  0.00  0.00    +0.000 C 
ATOM      9  C   UNL     1       3.663   3.519  19.322  0.00  0.00    +0.000 C 
ATOM     10  O   UNL     1       3.958   2.798  20.273  0.00  0.00    +0.000 OA
ATOM     11  C   UNL     1       3.017   4.830  19.607  0.00  0.00    +0.000 A 
ATOM     12  C   UNL     1       2.049   4.803  20.623  0.00  0.00    +0.000 A 
ATOM     13  C   UNL     1       1.369   5.963  20.988  0.00  0.00    +0.000 A 
ATOM     14  C   UNL     1       1.684   7.171  20.372  0.00  0.00    +0.000 A 
ATOM     15  C   UNL     1       2.679   7.228  19.392  0.00  0.00    +0.000 A 
ATOM     16  C   UNL     1       3.329   6.052  18.987  0.00  0.00    +0.000 A 
ENDROOT
BRANCH   1  19
ATOM     17  C   UNL     1       6.046   3.801  13.204  0.00  0.00    +0.000 A 
ATOM     18  N   UNL     1       5.206   4.180  14.136  0.00  0.00    +0.000 NA
ATOM     19  C   UNL     1       6.000   4.964  14.944  0.00  0.00    +0.000 A 
ATOM     20  N   UNL     1       7.273   5.068  14.538  0.00  0.00    +0.000 NA
ATOM     21  O   UNL     1       7.307   4.290  13.377  0.00  0.00    +0.000 OA
BRANCH  17  23
ATOM     22  C   UNL     1       4.408   3.182  11.449  0.00  0.00    +0.000 C 
ATOM     23  C   UNL     1       5.797   2.953  12.019  0.00  0.00    +0.000 C 
ENDBRANCH  17  23
ENDBRANCH   1  19
TORSDOF 2
ENDMDL
MODEL 2
REMARK VINA RESULT:      -7.9      3.469      7.543
REMARK  Name = 
REMARK  4 active torsions:
REMARK  status: ('A' for Active; 'I' for Inactive)
REMARK    1  A    between atoms: C_1  and  C_2
REMARK    2  A    between atoms: C_2  and  C_3
REMARK    3  A    between atoms: C_5  and  C_6
REMARK    4  A    between atoms: N_12  and  C_13
REMARK                            x       y       z     vdW  Elec       q    Type
REMARK                         _______ _______ _______ _____ _____    ______ ____
ROOT
ATOM      1  C   UNL     1       1.648   8.402  19.499  0.00  0.00    +0.000 A 
ATOM      2  N   UNL     1       1.905   9.262  18.453  0.00  0.00    +0.000 NA
ATOM      3  C   UNL     1       2.666   8.583  17.626  0.00  0.00    +0.000 A 
ATOM      4  N   UNL     1       2.889   7.300  18.059  0.00  0.00    +0.000 N 
ATOM      5  C   UNL     1       2.297   7.193  19.297  0.00  0.00    +0.000 A 
ATOM      6  C   UNL     1       2.487   5.996  20.146  0.00  0.00    +0.000 C 
ATOM      7  N   UNL     1       1.790   4.890  19.528  0.00  0.00    +0.000 N 
ATOM      8  C   UNL     1       0.939   4.059  20.359  0.00  0.00    +0.000 C 
ATOM      9  C   UNL     1       2.098   4.408  18.263  0.00  0.00    +0.000 C 
ATOM     10  O   UNL     1       1.472   3.494  17.732  0.00  0.00    +0.000 OA
ATOM     11  C   UNL     1       3.304   4.934  17.565  0.00  0.00    +0.000 A 
ATOM     12  C   UNL     1       4.117   3.956  16.973  0.00  0.00    +0.000 A 
ATOM     13  C   UNL     1       5.275   4.315  16.288  0.00  0.00    +0.000 A 
ATOM     14  C   UNL     1       5.608   5.659  16.150  0.00  0.00    +0.000 A 
ATOM     15  C   UNL     1       4.785   6.651  16.691  0.00  0.00    +0.000 A 
ATOM     16  C   UNL     1       3.645   6.290  17.425  0.00  0.00    +0.000 A 
ENDROOT
BRANCH   1  19
ATOM     17  C   UNL     1      -0.150  10.119  21.957  0.00  0.00    +0.000 A 
ATOM     18  N   UNL     1       0.587  10.151  20.873  0.00  0.00    +0.000 NA
ATOM     19  C   UNL     1       0.844   8.815  20.657  0.00  0.00    +0.000 A 
ATOM     20  N   UNL     1       0.297   7.991  21.561  0.00  0.00    +0.000 NA
ATOM     21  O   UNL     1      -0.365   8.860  22.433  0.00  0.00    +0.000 OA
BRANCH  17  23
ATOM     22  C   UNL     1      -1.547  12.158  21.760  0.00  0.00    +0.000 C 
ATOM     23  C   UNL     1      -0.770  11.244  22.690  0.00  0.00    +0.000 C 
ENDBRANCH  17  23
ENDBRANCH   1  19
TORSDOF 2
ENDMDL
MODEL 3
REMARK VINA RESULT:      -7.5      3.251      7.235
REMARK  Name = 
REMARK  4 active torsions:
REMARK  status: ('A' for Active; 'I' for Inactive)
REMARK    1  A    between atoms: C_1  and  C_2
REMARK    2  A    between atoms: C_2  and  C_3
REMARK    3  A    between atoms: C_5  and  C_6
REMARK    4  A    between atoms: N_12  and  C_13
REMARK                            x       y       z     vdW  Elec       q    Type
REMARK                         _______ _______ _______ _____ _____    ______ ____
ROOT
ATOM      1  C   UNL     1       2.000   8.339  18.790  0.00  0.00    +0.000 A 
ATOM      2  N   UNL     1       2.437   9.048  17.692  0.00  0.00    +0.000 NA
ATOM      3  C   UNL     1       3.245   8.234  17.053  0.00  0.00    +0.000 A 
ATOM      4  N   UNL     1       3.330   7.005  17.658  0.00  0.00    +0.000 N 
ATOM      5  C   UNL     1       2.587   7.083  18.815  0.00  0.00    +0.000 A 
ATOM      6  C   UNL     1       2.595   5.993  19.816  0.00  0.00    +0.000 C 
ATOM      7  N   UNL     1       1.906   4.855  19.247  0.00  0.00    +0.000 N 
ATOM      8  C   UNL     1       0.909   4.178  20.055  0.00  0.00    +0.000 C 
ATOM      9  C   UNL     1       2.331   4.205  18.097  0.00  0.00    +0.000 C 
ATOM     10  O   UNL     1       1.714   3.265  17.601  0.00  0.00    +0.000 OA
ATOM     11  C   UNL     1       3.644   4.578  17.501  0.00  0.00    +0.000 A 
ATOM     12  C   UNL     1       4.456   3.494  17.135  0.00  0.00    +0.000 A 
ATOM     13  C   UNL     1       5.710   3.706  16.566  0.00  0.00    +0.000 A 
ATOM     14  C   UNL     1       6.144   5.004  16.315  0.00  0.00    +0.000 A 
ATOM     15  C   UNL     1       5.329   6.096  16.627  0.00  0.00    +0.000 A 
ATOM     16  C   UNL     1       4.088   5.887  17.248  0.00  0.00    +0.000 A 
ENDROOT
BRANCH   1  19
ATOM     17  C   UNL     1       0.299   9.356  21.670  0.00  0.00    +0.000 A 
ATOM     18  N   UNL     1       1.258   8.653  21.119  0.00  0.00    +0.000 NA
ATOM     19  C   UNL     1       1.092   8.933  19.780  0.00  0.00    +0.000 A 
ATOM     20  N   UNL     1       0.080   9.767  19.509  0.00  0.00    +0.000 NA
ATOM     21  O   UNL     1      -0.454  10.050  20.770  0.00  0.00    +0.000 OA
BRANCH  17  23
ATOM     22  C   UNL     1      -1.105  10.558  23.323  0.00  0.00    +0.000 C 
ATOM     23  C   UNL     1      -0.042   9.498  23.102  0.00  0.00    +0.000 C 
ENDBRANCH  17  23
ENDBRANCH   1  19
TORSDOF 2
ENDMDL
MODEL 4
REMARK VINA RESULT:      -7.4      6.791     10.928
REMARK  Name = 
REMARK  4 active torsions:
REMARK  status: ('A' for Active; 'I' for Inactive)
REMARK    1  A    between atoms: C_1  and  C_2
REMARK    2  A    between atoms: C_2  and  C_3
REMARK    3  A    between atoms: C_5  and  C_6
REMARK    4  A    between atoms: N_12  and  C_13
REMARK                            x       y       z     vdW  Elec       q    Type
REMARK                         _______ _______ _______ _____ _____    ______ ____
ROOT
ATOM      1  C   UNL     1      -0.552  10.832  22.519  0.00  0.00    +0.000 A 
ATOM      2  N   UNL     1       0.203  10.070  23.383  0.00  0.00    +0.000 NA
ATOM      3  C   UNL     1       0.943   9.305  22.614  0.00  0.00    +0.000 A 
ATOM      4  N   UNL     1       0.740   9.557  21.281  0.00  0.00    +0.000 N 
ATOM      5  C   UNL     1      -0.271  10.490  21.205  0.00  0.00    +0.000 A 
ATOM      6  C   UNL     1      -0.878  10.870  19.910  0.00  0.00    +0.000 C 
ATOM      7  N   UNL     1       0.103  11.619  19.156  0.00  0.00    +0.000 N 
ATOM      8  C   UNL     1      -0.311  12.859  18.526  0.00  0.00    +0.000 C 
ATOM      9  C   UNL     1       1.327  11.094  18.766  0.00  0.00    +0.000 C 
ATOM     10  O   UNL     1       2.169  11.754  18.161  0.00  0.00    +0.000 OA
ATOM     11  C   UNL     1       1.591   9.645  18.983  0.00  0.00    +0.000 A 
ATOM     12  C   UNL     1       2.157   8.977  17.886  0.00  0.00    +0.000 A 
ATOM     13  C   UNL     1       2.455   7.618  17.958  0.00  0.00    +0.000 A 
ATOM     14  C   UNL     1       2.231   6.923  19.143  0.00  0.00    +0.000 A 
ATOM     15  C   UNL     1       1.714   7.582  20.263  0.00  0.00    +0.000 A 
ATOM     16  C   UNL     1       1.366   8.938  20.177  0.00  0.00    +0.000 A 
ENDROOT
BRANCH   1  19
ATOM     17  C   UNL     1      -3.345  12.483  23.823  0.00  0.00    +0.000 A 
ATOM     18  N   UNL     1      -2.762  11.363  23.471  0.00  0.00    +0.000 NA
ATOM     19  C   UNL     1      -1.541  11.802  23.008  0.00  0.00    +0.000 A 
ATOM     20  N   UNL     1      -1.371  13.129  23.067  0.00  0.00    +0.000 NA
ATOM     21  O   UNL     1      -2.575  13.588  23.609  0.00  0.00    +0.000 OA
BRANCH  17  23
ATOM     22  C   UNL     1      -5.501  13.691  23.635  0.00  0.00    +0.000 C 
ATOM     23  C   UNL     1      -4.681  12.686  24.422  0.00  0.00    +0.000 C 
ENDBRANCH  17  23
ENDBRANCH   1  19
TORSDOF 2
ENDMDL
MODEL 5
REMARK VINA RESULT:      -7.2      6.783     10.994
REMARK  Name = 
REMARK  4 active torsions:
REMARK  status: ('A' for Active; 'I' for Inactive)
REMARK    1  A    between atoms: C_1  and  C_2
REMARK    2  A    between atoms: C_2  and  C_3
REMARK    3  A    between atoms: C_5  and  C_6
REMARK    4  A    between atoms: N_12  and  C_13
REMARK                            x       y       z     vdW  Elec       q    Type
REMARK                         _______ _______ _______ _____ _____    ______ ____
ROOT
ATOM      1  C   UNL     1      -0.504  10.793  22.544  0.00  0.00    +0.000 A 
ATOM      2  N   UNL     1       0.251  10.017  23.397  0.00  0.00    +0.000 NA
ATOM      3  C   UNL     1       0.978   9.252  22.616  0.00  0.00    +0.000 A 
ATOM      4  N   UNL     1       0.767   9.516  21.286  0.00  0.00    +0.000 N 
ATOM      5  C   UNL     1      -0.236  10.459  21.226  0.00  0.00    +0.000 A 
ATOM      6  C   UNL     1      -0.850  10.855  19.940  0.00  0.00    +0.000 C 
ATOM      7  N   UNL     1       0.131  11.601  19.183  0.00  0.00    +0.000 N 
ATOM      8  C   UNL     1      -0.277  12.850  18.566  0.00  0.00    +0.000 C 
ATOM      9  C   UNL     1       1.347  11.068  18.779  0.00  0.00    +0.000 C 
ATOM     10  O   UNL     1       2.190  11.725  18.172  0.00  0.00    +0.000 OA
ATOM     11  C   UNL     1       1.600   9.615  18.982  0.00  0.00    +0.000 A 
ATOM     12  C   UNL     1       2.150   8.950  17.875  0.00  0.00    +0.000 A 
ATOM     13  C   UNL     1       2.436   7.588  17.934  0.00  0.00    +0.000 A 
ATOM     14  C   UNL     1       2.216   6.887  19.115  0.00  0.00    +0.000 A 
ATOM     15  C   UNL     1       1.713   7.541  20.244  0.00  0.00    +0.000 A 
ATOM     16  C   UNL     1       1.377   8.901  20.172  0.00  0.00    +0.000 A 
ENDROOT
BRANCH   1  19
ATOM     17  C   UNL     1      -2.215  13.625  23.675  0.00  0.00    +0.000 A 
ATOM     18  N   UNL     1      -1.103  13.078  23.249  0.00  0.00    +0.000 NA
ATOM     19  C   UNL     1      -1.480  11.768  23.049  0.00  0.00    +0.000 A 
ATOM     20  N   UNL     1      -2.763  11.511  23.338  0.00  0.00    +0.000 NA
ATOM     21  O   UNL     1      -3.256  12.749  23.759  0.00  0.00    +0.000 OA
BRANCH  17  23
ATOM     22  C   UNL     1      -2.284  15.265  25.533  0.00  0.00    +0.000 C 
ATOM     23  C   UNL     1      -2.473  15.033  24.045  0.00  0.00    +0.000 C 
ENDBRANCH  17  23
ENDBRANCH   1  19
TORSDOF 2
ENDMDL
MODEL 6
REMARK VINA RESULT:      -6.7      3.667      6.598
REMARK  Name = 
REMARK  4 active torsions:
REMARK  status: ('A' for Active; 'I' for Inactive)
REMARK    1  A    between atoms: C_1  and  C_2
REMARK    2  A    between atoms: C_2  and  C_3
REMARK    3  A    between atoms: C_5  and  C_6
REMARK    4  A    between atoms: N_12  and  C_13
REMARK                            x       y       z     vdW  Elec       q    Type
REMARK                         _______ _______ _______ _____ _____    ______ ____
ROOT
ATOM      1  C   UNL     1       1.750   8.412  19.616  0.00  0.00    +0.000 A 
ATOM      2  N   UNL     1       1.134   8.293  20.843  0.00  0.00    +0.000 NA
ATOM      3  C   UNL     1       1.261   7.029  21.173  0.00  0.00    +0.000 A 
ATOM      4  N   UNL     1       1.969   6.316  20.239  0.00  0.00    +0.000 N 
ATOM      5  C   UNL     1       2.230   7.180  19.198  0.00  0.00    +0.000 A 
ATOM      6  C   UNL     1       2.827   6.707  17.930  0.00  0.00    +0.000 C 
ATOM      7  N   UNL     1       4.200   6.333  18.190  0.00  0.00    +0.000 N 
ATOM      8  C   UNL     1       5.228   6.809  17.283  0.00  0.00    +0.000 C 
ATOM      9  C   UNL     1       4.560   5.330  19.079  0.00  0.00    +0.000 C 
ATOM     10  O   UNL     1       5.732   5.050  19.322  0.00  0.00    +0.000 OA
ATOM     11  C   UNL     1       3.495   4.480  19.678  0.00  0.00    +0.000 A 
ATOM     12  C   UNL     1       3.764   3.103  19.670  0.00  0.00    +0.000 A 
ATOM     13  C   UNL     1       2.848   2.197  20.201  0.00  0.00    +0.000 A 
ATOM     14  C   UNL     1       1.675   2.663  20.785  0.00  0.00    +0.000 A 
ATOM     15  C   UNL     1       1.411   4.035  20.847  0.00  0.00    +0.000 A 
ATOM     16  C   UNL     1       2.307   4.945  20.267  0.00  0.00    +0.000 A 
ENDROOT
BRANCH   1  19
ATOM     17  C   UNL     1       1.480  11.732  18.552  0.00  0.00    +0.000 A 
ATOM     18  N   UNL     1       1.247  10.819  19.464  0.00  0.00    +0.000 NA
ATOM     19  C   UNL     1       1.789   9.689  18.892  0.00  0.00    +0.000 A 
ATOM     20  N   UNL     1       2.332   9.886  17.683  0.00  0.00    +0.000 NA
ATOM     21  O   UNL     1       2.125  11.249  17.452  0.00  0.00    +0.000 OA
BRANCH  17  23
ATOM     22  C   UNL     1      -0.328  13.420  18.384  0.00  0.00    +0.000 C 
ATOM     23  C   UNL     1       1.158  13.174  18.579  0.00  0.00    +0.000 C 
ENDBRANCH  17  23
ENDBRANCH   1  19
TORSDOF 2
ENDMDL
MODEL 7
REMARK VINA RESULT:      -6.7      1.051      1.352
REMARK  Name = 
REMARK  4 active torsions:
REMARK  status: ('A' for Active; 'I' for Inactive)
REMARK    1  A    between atoms: C_1  and  C_2
REMARK    2  A    between atoms: C_2  and  C_3
REMARK    3  A    between atoms: C_5  and  C_6
REMARK    4  A    between atoms: N_12  and  C_13
REMARK                            x       y       z     vdW  Elec       q    Type
REMARK                         _______ _______ _______ _____ _____    ______ ____
ROOT
ATOM      1  C   UNL     1       5.233   5.526  16.385  0.00  0.00    +0.000 A 
ATOM      2  N   UNL     1       5.718   6.757  16.772  0.00  0.00    +0.000 NA
ATOM      3  C   UNL     1       4.976   7.115  17.795  0.00  0.00    +0.000 A 
ATOM      4  N   UNL     1       4.050   6.158  18.126  0.00  0.00    +0.000 N 
ATOM      5  C   UNL     1       4.159   5.160  17.182  0.00  0.00    +0.000 A 
ATOM      6  C   UNL     1       3.191   4.043  17.120  0.00  0.00    +0.000 C 
ATOM      7  N   UNL     1       3.397   3.205  18.280  0.00  0.00    +0.000 N 
ATOM      8  C   UNL     1       3.477   1.768  18.088  0.00  0.00    +0.000 C 
ATOM      9  C   UNL     1       3.245   3.657  19.584  0.00  0.00    +0.000 C 
ATOM     10  O   UNL     1       3.463   2.946  20.562  0.00  0.00    +0.000 OA
ATOM     11  C   UNL     1       2.686   5.018  19.813  0.00  0.00    +0.000 A 
ATOM     12  C   UNL     1       1.691   5.089  20.801  0.00  0.00    +0.000 A 
ATOM     13  C   UNL     1       1.086   6.304  21.115  0.00  0.00    +0.000 A 
ATOM     14  C   UNL     1       1.502   7.468  20.474  0.00  0.00    +0.000 A 
ATOM     15  C   UNL     1       2.524   7.426  19.522  0.00  0.00    +0.000 A 
ATOM     16  C   UNL     1       3.100   6.196  19.169  0.00  0.00    +0.000 A 
ENDROOT
BRANCH   1  19
ATOM     17  C   UNL     1       6.766   4.542  13.400  0.00  0.00    +0.000 A 
ATOM     18  N   UNL     1       6.387   5.503  14.207  0.00  0.00    +0.000 NA
ATOM     19  C   UNL     1       5.793   4.804  15.235  0.00  0.00    +0.000 A 
ATOM     20  N   UNL     1       5.800   3.473  15.077  0.00  0.00    +0.000 NA
ATOM     21  O   UNL     1       6.447   3.296  13.851  0.00  0.00    +0.000 OA
BRANCH  17  23
ATOM     22  C   UNL     1       8.149   5.999  11.947  0.00  0.00    +0.000 C 
ATOM     23  C   UNL     1       7.489   4.642  12.115  0.00  0.00    +0.000 C 
ENDBRANCH  17  23
ENDBRANCH   1  19
TORSDOF 2
ENDMDL
MODEL 8
REMARK VINA RESULT:      -6.7      2.995      5.140
REMARK  Name = 
REMARK  4 active torsions:
REMARK  status: ('A' for Active; 'I' for Inactive)
REMARK    1  A    between atoms: C_1  and  C_2
REMARK    2  A    between atoms: C_2  and  C_3
REMARK    3  A    between atoms: C_5  and  C_6
REMARK    4  A    between atoms: N_12  and  C_13
REMARK                            x       y       z     vdW  Elec       q    Type
REMARK                         _______ _______ _______ _____ _____    ______ ____
ROOT
ATOM      1  C   UNL     1       6.363   5.549  17.720  0.00  0.00    +0.000 A 
ATOM      2  N   UNL     1       6.752   4.532  16.875  0.00  0.00    +0.000 NA
ATOM      3  C   UNL     1       5.761   3.670  16.892  0.00  0.00    +0.000 A 
ATOM      4  N   UNL     1       4.719   4.092  17.678  0.00  0.00    +0.000 N 
ATOM      5  C   UNL     1       5.122   5.268  18.272  0.00  0.00    +0.000 A 
ATOM      6  C   UNL     1       4.317   5.919  19.328  0.00  0.00    +0.000 C 
ATOM      7  N   UNL     1       3.113   6.440  18.718  0.00  0.00    +0.000 N 
ATOM      8  C   UNL     1       2.713   7.800  19.032  0.00  0.00    +0.000 C 
ATOM      9  C   UNL     1       2.175   5.640  18.081  0.00  0.00    +0.000 C 
ATOM     10  O   UNL     1       1.176   6.100  17.531  0.00  0.00    +0.000 OA
ATOM     11  C   UNL     1       2.316   4.160  18.161  0.00  0.00    +0.000 A 
ATOM     12  C   UNL     1       1.132   3.470  18.463  0.00  0.00    +0.000 A 
ATOM     13  C   UNL     1       1.126   2.080  18.566  0.00  0.00    +0.000 A 
ATOM     14  C   UNL     1       2.295   1.365  18.326  0.00  0.00    +0.000 A 
ATOM     15  C   UNL     1       3.474   2.031  17.976  0.00  0.00    +0.000 A 
ATOM     16  C   UNL     1       3.494   3.433  17.921  0.00  0.00    +0.000 A 
ENDROOT
BRANCH   1  19
ATOM     17  C   UNL     1       7.968   8.654  17.825  0.00  0.00    +0.000 A 
ATOM     18  N   UNL     1       7.037   7.884  17.314  0.00  0.00    +0.000 NA
ATOM     19  C   UNL     1       7.233   6.701  17.992  0.00  0.00    +0.000 A 
ATOM     20  N   UNL     1       8.235   6.730  18.880  0.00  0.00    +0.000 NA
ATOM     21  O   UNL     1       8.730   8.033  18.769  0.00  0.00    +0.000 OA
BRANCH  17  23
ATOM     22  C   UNL     1       9.258  10.655  18.515  0.00  0.00    +0.000 C 
ATOM     23  C   UNL     1       8.267  10.070  17.525  0.00  0.00    +0.000 C 
ENDBRANCH  17  23
ENDBRANCH   1  19
TORSDOF 2
ENDMDL
MODEL 9
REMARK VINA RESULT:      -6.5      7.798     11.990
REMARK  Name = 
REMARK  4 active torsions:
REMARK  status: ('A' for Active; 'I' for Inactive)
REMARK    1  A    between atoms: C_1  and  C_2
REMARK    2  A    between atoms: C_2  and  C_3
REMARK    3  A    between atoms: C_5  and  C_6
REMARK    4  A    between atoms: N_12  and  C_13
REMARK                            x       y       z     vdW  Elec       q    Type
REMARK                         _______ _______ _______ _____ _____    ______ ____
ROOT
ATOM      1  C   UNL     1      -1.353  11.453  22.760  0.00  0.00    +0.000 A 
ATOM      2  N   UNL     1      -0.717  10.451  23.461  0.00  0.00    +0.000 NA
ATOM      3  C   UNL     1       0.094   9.885  22.598  0.00  0.00    +0.000 A 
ATOM      4  N   UNL     1       0.054  10.495  21.370  0.00  0.00    +0.000 N 
ATOM      5  C   UNL     1      -0.925  11.462  21.441  0.00  0.00    +0.000 A 
ATOM      6  C   UNL     1      -1.369  12.204  20.241  0.00  0.00    +0.000 C 
ATOM      7  N   UNL     1      -0.294  13.079  19.829  0.00  0.00    +0.000 N 
ATOM      8  C   UNL     1      -0.610  14.461  19.518  0.00  0.00    +0.000 C 
ATOM      9  C   UNL     1       0.958  12.619  19.446  0.00  0.00    +0.000 C 
ATOM     10  O   UNL     1       1.877  13.375  19.137  0.00  0.00    +0.000 OA
ATOM     11  C   UNL     1       1.170  11.153  19.288  0.00  0.00    +0.000 A 
ATOM     12  C   UNL     1       1.849  10.777  18.119  0.00  0.00    +0.000 A 
ATOM     13  C   UNL     1       2.112   9.435  17.851  0.00  0.00    +0.000 A 
ATOM     14  C   UNL     1       1.739   8.461  18.772  0.00  0.00    +0.000 A 
ATOM     15  C   UNL     1       1.105   8.819  19.965  0.00  0.00    +0.000 A 
ATOM     16  C   UNL     1       0.794  10.165  20.213  0.00  0.00    +0.000 A 
ENDROOT
BRANCH   1  19
ATOM     17  C   UNL     1      -3.243  14.055  24.132  0.00  0.00    +0.000 A 
ATOM     18  N   UNL     1      -2.125  13.643  23.586  0.00  0.00    +0.000 NA
ATOM     19  C   UNL     1      -2.375  12.303  23.384  0.00  0.00    +0.000 A 
ATOM     20  N   UNL     1      -3.588  11.899  23.784  0.00  0.00    +0.000 NA
ATOM     21  O   UNL     1      -4.169  13.067  24.287  0.00  0.00    +0.000 OA
BRANCH  17  23
ATOM     22  C   UNL     1      -4.984  15.818  24.045  0.00  0.00    +0.000 C 
ATOM     23  C   UNL     1      -3.616  15.418  24.566  0.00  0.00    +0.000 C 
ENDBRANCH  17  23
ENDBRANCH   1  19
TORSDOF 2
ENDMDL
