MODEL 1
REMARK VINA RESULT:      -8.6      0.000      0.000
REMARK  Name = 
REMARK  5 active torsions:
REMARK  status: ('A' for Active; 'I' for Inactive)
REMARK    1  A    between atoms: C_1  and  C_2
REMARK    2  A    between atoms: N_6  and  C_7
REMARK    3  A    between atoms: C_8  and  C_9
REMARK    4  A    between atoms: C_9  and  O_11
REMARK    5  A    between atoms: N_18  and  C_19
REMARK                            x       y       z     vdW  Elec       q    Type
REMARK                         _______ _______ _______ _____ _____    ______ ____
ROOT
ATOM      1  C   UNL     1       2.673   4.423  19.562  0.00  0.00    +0.000 A 
ATOM      2  C   UNL     1       2.599   3.225  20.280  0.00  0.00    +0.000 A 
ATOM      3  C   UNL     1       3.782   2.520  20.484  0.00  0.00    +0.000 A 
ATOM      4  N   UNL     1       5.023   2.945  20.083  0.00  0.00    +0.000 NA
ATOM      5  C   UNL     1       4.944   3.993  19.216  0.00  0.00    +0.000 A 
ATOM      6  C   UNL     1       3.747   4.463  18.674  0.00  0.00    +0.000 A 
ATOM      7  C   UNL     1       3.988   3.892  17.365  0.00  0.00    +0.000 A 
ATOM      8  N   UNL     1       5.303   3.861  17.054  0.00  0.00    +0.000 NA
ATOM      9  N   UNL     1       5.824   4.416  18.204  0.00  0.00    +0.000 N 
ENDROOT
BRANCH   1  15
ATOM     10  C   UNL     1       1.403  10.952  18.531  0.00  0.00    +0.000 C 
ATOM     11  C   UNL     1       1.642   9.522  18.884  0.00  0.00    +0.000 A 
ATOM     12  C   UNL     1       1.848   8.552  17.904  0.00  0.00    +0.000 A 
ATOM     13  C   UNL     1       2.002   7.215  18.271  0.00  0.00    +0.000 A 
ATOM     14  C   UNL     1       1.963   6.876  19.611  0.00  0.00    +0.000 A 
ATOM     15  N   UNL     1       1.963   5.548  20.058  0.00  0.00    +0.000 N 
ATOM     16  N   UNL     1       1.789   7.800  20.580  0.00  0.00    +0.000 NA
ATOM     17  C   UNL     1       1.629   9.089  20.202  0.00  0.00    +0.000 A 
ATOM     18  H   UNL     1       2.090   5.652  21.075  0.00  0.00    +0.000 HD
ENDBRANCH   1  15
BRANCH   9  19
ATOM     19  C   UNL     1       6.447   5.705  18.102  0.00  0.00    +0.000 A 
ATOM     20  C   UNL     1       6.036   6.624  17.123  0.00  0.00    +0.000 A 
ATOM     21  C   UNL     1       6.775   7.793  16.915  0.00  0.00    +0.000 A 
ATOM     22  C   UNL     1       7.899   8.063  17.697  0.00  0.00    +0.000 A 
ATOM     23  C   UNL     1       8.300   7.157  18.677  0.00  0.00    +0.000 A 
ATOM     24  C   UNL     1       7.584   5.974  18.876  0.00  0.00    +0.000 A 
ENDBRANCH   9  19
BRANCH   2  25
ATOM     25  C   UNL     1       1.338   2.760  20.887  0.00  0.00    +0.000 C 
ATOM     26  O   UNL     1       1.309   2.285  22.000  0.00  0.00    +0.000 OA
BRANCH  25  27
ATOM     27  O   UNL     1       0.241   2.856  20.114  0.00  0.00    +0.000 OA
ATOM     28  H   UNL     1       0.162   3.682  19.586  0.00  0.00    +0.000 HD
ENDBRANCH  25  27
ENDBRANCH   2  25
TORSDOF 4
ENDMDL
MODEL 2
REMARK VINA RESULT:      -8.1      0.316      1.174
REMARK  Name = 
REMARK  5 active torsions:
REMARK  status: ('A' for Active; 'I' for Inactive)
REMARK    1  A    between atoms: C_1  and  C_2
REMARK    2  A    between atoms: N_6  and  C_7
REMARK    3  A    between atoms: C_8  and  C_9
REMARK    4  A    between atoms: C_9  and  O_11
REMARK    5  A    between atoms: N_18  and  C_19
REMARK                            x       y       z     vdW  Elec       q    Type
REMARK                         _______ _______ _______ _____ _____    ______ ____
ROOT
ATOM      1  C   UNL     1       2.779   4.355  19.300  0.00  0.00    +0.000 A 
ATOM      2  C   UNL     1       2.704   3.179  20.052  0.00  0.00    +0.000 A 
ATOM      3  C   UNL     1       3.886   2.476  20.271  0.00  0.00    +0.000 A 
ATOM      4  N   UNL     1       5.127   2.886  19.853  0.00  0.00    +0.000 NA
ATOM      5  C   UNL     1       5.047   3.908  18.956  0.00  0.00    +0.000 A 
ATOM      6  C   UNL     1       3.849   4.367  18.406  0.00  0.00    +0.000 A 
ATOM      7  C   UNL     1       4.083   3.758  17.113  0.00  0.00    +0.000 A 
ATOM      8  N   UNL     1       5.396   3.714  16.798  0.00  0.00    +0.000 NA
ATOM      9  N   UNL     1       5.924   4.300  17.929  0.00  0.00    +0.000 N 
ENDROOT
BRANCH   1  15
ATOM     10  C   UNL     1       1.731  10.920  18.244  0.00  0.00    +0.000 C 
ATOM     11  C   UNL     1       1.915   9.482  18.601  0.00  0.00    +0.000 A 
ATOM     12  C   UNL     1       2.144   8.512  17.627  0.00  0.00    +0.000 A 
ATOM     13  C   UNL     1       2.246   7.170  17.993  0.00  0.00    +0.000 A 
ATOM     14  C   UNL     1       2.131   6.826  19.328  0.00  0.00    +0.000 A 
ATOM     15  N   UNL     1       2.074   5.496  19.766  0.00  0.00    +0.000 N 
ATOM     16  N   UNL     1       1.932   7.749  20.292  0.00  0.00    +0.000 NA
ATOM     17  C   UNL     1       1.825   9.045  19.914  0.00  0.00    +0.000 A 
ATOM     18  H   UNL     1       2.153   5.592  20.789  0.00  0.00    +0.000 HD
ENDBRANCH   1  15
BRANCH   9  19
ATOM     19  C   UNL     1       6.550   5.583  17.787  0.00  0.00    +0.000 A 
ATOM     20  C   UNL     1       7.679   5.919  18.551  0.00  0.00    +0.000 A 
ATOM     21  C   UNL     1       8.161   7.232  18.539  0.00  0.00    +0.000 A 
ATOM     22  C   UNL     1       7.542   8.200  17.747  0.00  0.00    +0.000 A 
ATOM     23  C   UNL     1       6.429   7.865  16.978  0.00  0.00    +0.000 A 
ATOM     24  C   UNL     1       5.925   6.562  17.003  0.00  0.00    +0.000 A 
ENDBRANCH   9  19
BRANCH   2  25
ATOM     25  C   UNL     1       1.445   2.735  20.678  0.00  0.00    +0.000 C 
ATOM     26  O   UNL     1       0.410   2.687  20.053  0.00  0.00    +0.000 OA
BRANCH  25  27
ATOM     27  O   UNL     1       1.512   2.432  21.988  0.00  0.00    +0.000 OA
ATOM     28  H   UNL     1       1.143   1.558  22.242  0.00  0.00    +0.000 HD
ENDBRANCH  25  27
ENDBRANCH   2  25
TORSDOF 4
ENDMDL
MODEL 3
REMARK VINA RESULT:      -7.8      3.030      6.029
REMARK  Name = 
REMARK  5 active torsions:
REMARK  status: ('A' for Active; 'I' for Inactive)
REMARK    1  A    between atoms: C_1  and  C_2
REMARK    2  A    between atoms: N_6  and  C_7
REMARK    3  A    between atoms: C_8  and  C_9
REMARK    4  A    between atoms: C_9  and  O_11
REMARK    5  A    between atoms: N_18  and  C_19
REMARK                            x       y       z     vdW  Elec       q    Type
REMARK                         _______ _______ _______ _____ _____    ______ ____
ROOT
ATOM      1  C   UNL     1       5.707   5.782  17.344  0.00  0.00    +0.000 A 
ATOM      2  C   UNL     1       5.619   4.664  16.509  0.00  0.00    +0.000 A 
ATOM      3  C   UNL     1       4.381   4.038  16.397  0.00  0.00    +0.000 A 
ATOM      4  N   UNL     1       3.228   4.474  16.999  0.00  0.00    +0.000 NA
ATOM      5  C   UNL     1       3.478   5.420  17.947  0.00  0.00    +0.000 A 
ATOM      6  C   UNL     1       4.760   5.778  18.367  0.00  0.00    +0.000 A 
ATOM      7  C   UNL     1       4.656   5.084  19.634  0.00  0.00    +0.000 A 
ATOM      8  N   UNL     1       3.393   5.080  20.114  0.00  0.00    +0.000 NA
ATOM      9  N   UNL     1       2.762   5.774  19.104  0.00  0.00    +0.000 N 
ENDROOT
BRANCH   1  15
ATOM     10  C   UNL     1       9.895  10.736  19.143  0.00  0.00    +0.000 C 
ATOM     11  C   UNL     1       8.936   9.710  18.637  0.00  0.00    +0.000 A 
ATOM     12  C   UNL     1       8.928   8.408  19.136  0.00  0.00    +0.000 A 
ATOM     13  C   UNL     1       8.061   7.461  18.592  0.00  0.00    +0.000 A 
ATOM     14  C   UNL     1       7.208   7.837  17.570  0.00  0.00    +0.000 A 
ATOM     15  N   UNL     1       6.412   6.920  16.870  0.00  0.00    +0.000 N 
ATOM     16  N   UNL     1       7.180   9.097  17.087  0.00  0.00    +0.000 NA
ATOM     17  C   UNL     1       8.038   9.998  17.620  0.00  0.00    +0.000 A 
ATOM     18  H   UNL     1       5.801   7.533  16.312  0.00  0.00    +0.000 HD
ENDBRANCH   1  15
BRANCH   9  19
ATOM     19  C   UNL     1       2.233   7.072  19.414  0.00  0.00    +0.000 A 
ATOM     20  C   UNL     1       1.679   7.337  20.677  0.00  0.00    +0.000 A 
ATOM     21  C   UNL     1       1.002   8.540  20.900  0.00  0.00    +0.000 A 
ATOM     22  C   UNL     1       0.902   9.489  19.881  0.00  0.00    +0.000 A 
ATOM     23  C   UNL     1       1.462   9.232  18.631  0.00  0.00    +0.000 A 
ATOM     24  C   UNL     1       2.119   8.023  18.391  0.00  0.00    +0.000 A 
ENDBRANCH   9  19
BRANCH   2  25
ATOM     25  C   UNL     1       6.762   4.209  15.696  0.00  0.00    +0.000 C 
ATOM     26  O   UNL     1       7.904   4.441  16.024  0.00  0.00    +0.000 OA
BRANCH  25  27
ATOM     27  O   UNL     1       6.455   3.565  14.555  0.00  0.00    +0.000 OA
ATOM     28  H   UNL     1       6.714   2.617  14.518  0.00  0.00    +0.000 HD
ENDBRANCH  25  27
ENDBRANCH   2  25
TORSDOF 4
ENDMDL
MODEL 4
REMARK VINA RESULT:      -7.4      6.084      8.940
REMARK  Name = 
REMARK  5 active torsions:
REMARK  status: ('A' for Active; 'I' for Inactive)
REMARK    1  A    between atoms: C_1  and  C_2
REMARK    2  A    between atoms: N_6  and  C_7
REMARK    3  A    between atoms: C_8  and  C_9
REMARK    4  A    between atoms: C_9  and  O_11
REMARK    5  A    between atoms: N_18  and  C_19
REMARK                            x       y       z     vdW  Elec       q    Type
REMARK                         _______ _______ _______ _____ _____    ______ ____
ROOT
ATOM      1  C   UNL     1      -2.342  12.307  20.660  0.00  0.00    +0.000 A 
ATOM      2  C   UNL     1      -2.200  13.664  20.968  0.00  0.00    +0.000 A 
ATOM      3  C   UNL     1      -0.908  14.177  21.046  0.00  0.00    +0.000 A 
ATOM      4  N   UNL     1       0.233  13.462  20.783  0.00  0.00    +0.000 NA
ATOM      5  C   UNL     1      -0.012  12.124  20.714  0.00  0.00    +0.000 A 
ATOM      6  C   UNL     1      -1.239  11.542  21.037  0.00  0.00    +0.000 A 
ATOM      7  C   UNL     1      -0.776  11.005  22.300  0.00  0.00    +0.000 A 
ATOM      8  N   UNL     1       0.532  10.667  22.264  0.00  0.00    +0.000 NA
ATOM      9  N   UNL     1       0.825  11.022  20.965  0.00  0.00    +0.000 N 
ENDROOT
BRANCH   1  15
ATOM     10  C   UNL     1      -3.251   9.932  14.427  0.00  0.00    +0.000 C 
ATOM     11  C   UNL     1      -3.175  10.501  15.806  0.00  0.00    +0.000 A 
ATOM     12  C   UNL     1      -2.143  10.164  16.679  0.00  0.00    +0.000 A 
ATOM     13  C   UNL     1      -2.142  10.665  17.981  0.00  0.00    +0.000 A 
ATOM     14  C   UNL     1      -3.166  11.505  18.379  0.00  0.00    +0.000 A 
ATOM     15  N   UNL     1      -3.323  11.935  19.704  0.00  0.00    +0.000 N 
ATOM     16  N   UNL     1      -4.163  11.865  17.544  0.00  0.00    +0.000 NA
ATOM     17  C   UNL     1      -4.152  11.358  16.289  0.00  0.00    +0.000 A 
ATOM     18  H   UNL     1      -4.057  12.653  19.622  0.00  0.00    +0.000 HD
ENDBRANCH   1  15
BRANCH   9  19
ATOM     19  C   UNL     1       1.149   9.972  20.042  0.00  0.00    +0.000 A 
ATOM     20  C   UNL     1       1.443   8.678  20.502  0.00  0.00    +0.000 A 
ATOM     21  C   UNL     1       1.938   7.720  19.612  0.00  0.00    +0.000 A 
ATOM     22  C   UNL     1       2.110   8.036  18.263  0.00  0.00    +0.000 A 
ATOM     23  C   UNL     1       1.806   9.316  17.803  0.00  0.00    +0.000 A 
ATOM     24  C   UNL     1       1.335  10.288  18.689  0.00  0.00    +0.000 A 
ENDBRANCH   9  19
BRANCH   2  25
ATOM     25  C   UNL     1      -3.367  14.553  21.114  0.00  0.00    +0.000 C 
ATOM     26  O   UNL     1      -3.595  15.134  22.152  0.00  0.00    +0.000 OA
BRANCH  25  27
ATOM     27  O   UNL     1      -4.178  14.642  20.044  0.00  0.00    +0.000 OA
ATOM     28  H   UNL     1      -5.033  14.162  20.117  0.00  0.00    +0.000 HD
ENDBRANCH  25  27
ENDBRANCH   2  25
TORSDOF 4
ENDMDL
MODEL 5
REMARK VINA RESULT:      -7.3      8.798     11.398
REMARK  Name = 
REMARK  5 active torsions:
REMARK  status: ('A' for Active; 'I' for Inactive)
REMARK    1  A    between atoms: C_1  and  C_2
REMARK    2  A    between atoms: N_6  and  C_7
REMARK    3  A    between atoms: C_8  and  C_9
REMARK    4  A    between atoms: C_9  and  O_11
REMARK    5  A    between atoms: N_18  and  C_19
REMARK                            x       y       z     vdW  Elec       q    Type
REMARK                         _______ _______ _______ _____ _____    ______ ____
ROOT
ATOM      1  C   UNL     1      -5.725  12.822  21.102  0.00  0.00    +0.000 A 
ATOM      2  C   UNL     1      -6.866  12.387  21.782  0.00  0.00    +0.000 A 
ATOM      3  C   UNL     1      -7.623  11.378  21.193  0.00  0.00    +0.000 A 
ATOM      4  N   UNL     1      -7.298  10.739  20.024  0.00  0.00    +0.000 NA
ATOM      5  C   UNL     1      -6.307  11.388  19.351  0.00  0.00    +0.000 A 
ATOM      6  C   UNL     1      -5.805  12.636  19.722  0.00  0.00    +0.000 A 
ATOM      7  C   UNL     1      -6.475  13.345  18.652  0.00  0.00    +0.000 A 
ATOM      8  N   UNL     1      -6.602  12.591  17.539  0.00  0.00    +0.000 NA
ATOM      9  N   UNL     1      -6.003  11.429  17.979  0.00  0.00    +0.000 N 
ENDROOT
BRANCH   1  15
ATOM     10  C   UNL     1       0.918  11.733  21.112  0.00  0.00    +0.000 C 
ATOM     11  C   UNL     1      -0.546  11.994  21.242  0.00  0.00    +0.000 A 
ATOM     12  C   UNL     1      -1.339  12.271  20.129  0.00  0.00    +0.000 A 
ATOM     13  C   UNL     1      -2.691  12.573  20.297  0.00  0.00    +0.000 A 
ATOM     14  C   UNL     1      -3.226  12.578  21.573  0.00  0.00    +0.000 A 
ATOM     15  N   UNL     1      -4.530  13.010  21.846  0.00  0.00    +0.000 N 
ATOM     16  N   UNL     1      -2.484  12.289  22.662  0.00  0.00    +0.000 NA
ATOM     17  C   UNL     1      -1.172  12.010  22.478  0.00  0.00    +0.000 A 
ATOM     18  H   UNL     1      -4.657  12.737  22.831  0.00  0.00    +0.000 HD
ENDBRANCH   1  15
BRANCH   9  19
ATOM     19  C   UNL     1      -4.762  11.044  17.369  0.00  0.00    +0.000 A 
ATOM     20  C   UNL     1      -4.444  11.460  16.066  0.00  0.00    +0.000 A 
ATOM     21  C   UNL     1      -3.324  10.925  15.421  0.00  0.00    +0.000 A 
ATOM     22  C   UNL     1      -2.508  10.004  16.078  0.00  0.00    +0.000 A 
ATOM     23  C   UNL     1      -2.816   9.600  17.376  0.00  0.00    +0.000 A 
ATOM     24  C   UNL     1      -3.946  10.110  18.020  0.00  0.00    +0.000 A 
ENDBRANCH   9  19
BRANCH   2  25
ATOM     25  C   UNL     1      -7.216  12.899  23.119  0.00  0.00    +0.000 C 
ATOM     26  O   UNL     1      -6.857  13.994  23.492  0.00  0.00    +0.000 OA
BRANCH  25  27
ATOM     27  O   UNL     1      -7.916  12.062  23.907  0.00  0.00    +0.000 OA
ATOM     28  H   UNL     1      -8.690  12.457  24.367  0.00  0.00    +0.000 HD
ENDBRANCH  25  27
ENDBRANCH   2  25
TORSDOF 4
ENDMDL
MODEL 6
REMARK VINA RESULT:      -7.3      7.550     10.060
REMARK  Name = 
REMARK  5 active torsions:
REMARK  status: ('A' for Active; 'I' for Inactive)
REMARK    1  A    between atoms: C_1  and  C_2
REMARK    2  A    between atoms: N_6  and  C_7
REMARK    3  A    between atoms: C_8  and  C_9
REMARK    4  A    between atoms: C_9  and  O_11
REMARK    5  A    between atoms: N_18  and  C_19
REMARK                            x       y       z     vdW  Elec       q    Type
REMARK                         _______ _______ _______ _____ _____    ______ ____
ROOT
ATOM      1  C   UNL     1      -2.542  11.861  17.876  0.00  0.00    +0.000 A 
ATOM      2  C   UNL     1      -2.126  10.770  17.107  0.00  0.00    +0.000 A 
ATOM      3  C   UNL     1      -1.112   9.967  17.620  0.00  0.00    +0.000 A 
ATOM      4  N   UNL     1      -0.532  10.134  18.852  0.00  0.00    +0.000 NA
ATOM      5  C   UNL     1      -0.854  11.337  19.405  0.00  0.00    +0.000 A 
ATOM      6  C   UNL     1      -1.548  12.341  18.728  0.00  0.00    +0.000 A 
ATOM      7  C   UNL     1      -0.378  13.172  18.536  0.00  0.00    +0.000 A 
ATOM      8  N   UNL     1       0.506  13.054  19.551  0.00  0.00    +0.000 NA
ATOM      9  N   UNL     1      -0.163  12.136  20.333  0.00  0.00    +0.000 N 
ENDROOT
BRANCH   1  15
ATOM     10  C   UNL     1      -7.556  12.489  22.324  0.00  0.00    +0.000 C 
ATOM     11  C   UNL     1      -6.537  12.328  21.245  0.00  0.00    +0.000 A 
ATOM     12  C   UNL     1      -5.215  12.735  21.422  0.00  0.00    +0.000 A 
ATOM     13  C   UNL     1      -4.308  12.628  20.368  0.00  0.00    +0.000 A 
ATOM     14  C   UNL     1      -4.736  12.103  19.162  0.00  0.00    +0.000 A 
ATOM     15  N   UNL     1      -3.936  12.095  18.011  0.00  0.00    +0.000 N 
ATOM     16  N   UNL     1      -6.004  11.681  18.973  0.00  0.00    +0.000 NA
ATOM     17  C   UNL     1      -6.871  11.804  20.005  0.00  0.00    +0.000 A 
ATOM     18  H   UNL     1      -4.478  11.506  17.364  0.00  0.00    +0.000 HD
ENDBRANCH   1  15
BRANCH   9  19
ATOM     19  C   UNL     1      -0.651  12.575  21.609  0.00  0.00    +0.000 A 
ATOM     20  C   UNL     1      -1.532  11.774  22.354  0.00  0.00    +0.000 A 
ATOM     21  C   UNL     1      -2.143  12.293  23.499  0.00  0.00    +0.000 A 
ATOM     22  C   UNL     1      -1.857  13.593  23.920  0.00  0.00    +0.000 A 
ATOM     23  C   UNL     1      -0.973  14.384  23.188  0.00  0.00    +0.000 A 
ATOM     24  C   UNL     1      -0.377  13.883  22.029  0.00  0.00    +0.000 A 
ENDBRANCH   9  19
BRANCH   2  25
ATOM     25  C   UNL     1      -2.793  10.413  15.841  0.00  0.00    +0.000 C 
ATOM     26  O   UNL     1      -2.830   9.270  15.445  0.00  0.00    +0.000 OA
BRANCH  25  27
ATOM     27  O   UNL     1      -3.312  11.438  15.139  0.00  0.00    +0.000 OA
ATOM     28  H   UNL     1      -4.236  11.684  15.365  0.00  0.00    +0.000 HD
ENDBRANCH  25  27
ENDBRANCH   2  25
TORSDOF 4
ENDMDL
MODEL 7
REMARK VINA RESULT:      -7.2      2.175      5.395
REMARK  Name = 
REMARK  5 active torsions:
REMARK  status: ('A' for Active; 'I' for Inactive)
REMARK    1  A    between atoms: C_1  and  C_2
REMARK    2  A    between atoms: N_6  and  C_7
REMARK    3  A    between atoms: C_8  and  C_9
REMARK    4  A    between atoms: C_9  and  O_11
REMARK    5  A    between atoms: N_18  and  C_19
REMARK                            x       y       z     vdW  Elec       q    Type
REMARK                         _______ _______ _______ _____ _____    ______ ____
ROOT
ATOM      1  C   UNL     1       4.065   4.206  19.562  0.00  0.00    +0.000 A 
ATOM      2  C   UNL     1       3.497   2.957  19.291  0.00  0.00    +0.000 A 
ATOM      3  C   UNL     1       2.149   2.922  18.945  0.00  0.00    +0.000 A 
ATOM      4  N   UNL     1       1.353   4.028  18.791  0.00  0.00    +0.000 NA
ATOM      5  C   UNL     1       1.944   5.150  19.289  0.00  0.00    +0.000 A 
ATOM      6  C   UNL     1       3.136   5.143  20.014  0.00  0.00    +0.000 A 
ATOM      7  C   UNL     1       2.490   5.379  21.289  0.00  0.00    +0.000 A 
ATOM      8  N   UNL     1       1.379   6.138  21.166  0.00  0.00    +0.000 NA
ATOM      9  N   UNL     1       1.383   6.334  19.802  0.00  0.00    +0.000 N 
ENDROOT
BRANCH   1  15
ATOM     10  C   UNL     1       7.391   5.213  13.797  0.00  0.00    +0.000 C 
ATOM     11  C   UNL     1       6.771   4.968  15.133  0.00  0.00    +0.000 A 
ATOM     12  C   UNL     1       5.452   5.329  15.403  0.00  0.00    +0.000 A 
ATOM     13  C   UNL     1       4.929   5.144  16.683  0.00  0.00    +0.000 A 
ATOM     14  C   UNL     1       5.731   4.587  17.663  0.00  0.00    +0.000 A 
ATOM     15  N   UNL     1       5.337   4.500  19.005  0.00  0.00    +0.000 N 
ATOM     16  N   UNL     1       7.002   4.207  17.420  0.00  0.00    +0.000 NA
ATOM     17  C   UNL     1       7.494   4.407  16.174  0.00  0.00    +0.000 A 
ATOM     18  H   UNL     1       6.071   3.907  19.418  0.00  0.00    +0.000 HD
ENDBRANCH   1  15
BRANCH   9  19
ATOM     19  C   UNL     1       1.616   7.665  19.318  0.00  0.00    +0.000 A 
ATOM     20  C   UNL     1       1.091   8.776  19.998  0.00  0.00    +0.000 A 
ATOM     21  C   UNL     1       1.166  10.045  19.415  0.00  0.00    +0.000 A 
ATOM     22  C   UNL     1       1.786  10.214  18.176  0.00  0.00    +0.000 A 
ATOM     23  C   UNL     1       2.318   9.113  17.506  0.00  0.00    +0.000 A 
ATOM     24  C   UNL     1       2.226   7.838  18.069  0.00  0.00    +0.000 A 
ENDBRANCH   9  19
BRANCH   2  25
ATOM     25  C   UNL     1       4.304   1.724  19.276  0.00  0.00    +0.000 C 
ATOM     26  O   UNL     1       5.140   1.503  20.123  0.00  0.00    +0.000 OA
BRANCH  25  27
ATOM     27  O   UNL     1       4.085   0.888  18.244  0.00  0.00    +0.000 OA
ATOM     28  H   UNL     1       3.405   0.194  18.395  0.00  0.00    +0.000 HD
ENDBRANCH  25  27
ENDBRANCH   2  25
TORSDOF 4
ENDMDL
MODEL 8
REMARK VINA RESULT:      -7.2      8.540     11.362
REMARK  Name = 
REMARK  5 active torsions:
REMARK  status: ('A' for Active; 'I' for Inactive)
REMARK    1  A    between atoms: C_1  and  C_2
REMARK    2  A    between atoms: N_6  and  C_7
REMARK    3  A    between atoms: C_8  and  C_9
REMARK    4  A    between atoms: C_9  and  O_11
REMARK    5  A    between atoms: N_18  and  C_19
REMARK                            x       y       z     vdW  Elec       q    Type
REMARK                         _______ _______ _______ _____ _____    ______ ____
ROOT
ATOM      1  C   UNL     1      -5.460  12.844  21.274  0.00  0.00    +0.000 A 
ATOM      2  C   UNL     1      -6.596  12.511  22.019  0.00  0.00    +0.000 A 
ATOM      3  C   UNL     1      -7.465  11.565  21.484  0.00  0.00    +0.000 A 
ATOM      4  N   UNL     1      -7.258  10.891  20.308  0.00  0.00    +0.000 NA
ATOM      5  C   UNL     1      -6.254  11.449  19.575  0.00  0.00    +0.000 A 
ATOM      6  C   UNL     1      -5.630  12.654  19.903  0.00  0.00    +0.000 A 
ATOM      7  C   UNL     1      -6.295  13.408  18.861  0.00  0.00    +0.000 A 
ATOM      8  N   UNL     1      -6.544  12.658  17.765  0.00  0.00    +0.000 NA
ATOM      9  N   UNL     1      -6.022  11.454  18.188  0.00  0.00    +0.000 N 
ENDROOT
BRANCH   1  15
ATOM     10  C   UNL     1       1.106  11.430  20.830  0.00  0.00    +0.000 C 
ATOM     11  C   UNL     1      -0.333  11.756  21.060  0.00  0.00    +0.000 A 
ATOM     12  C   UNL     1      -1.175  12.125  20.012  0.00  0.00    +0.000 A 
ATOM     13  C   UNL     1      -2.496  12.485  20.275  0.00  0.00    +0.000 A 
ATOM     14  C   UNL     1      -2.954  12.455  21.580  0.00  0.00    +0.000 A 
ATOM     15  N   UNL     1      -4.216  12.938  21.951  0.00  0.00    +0.000 N 
ATOM     16  N   UNL     1      -2.166  12.079  22.608  0.00  0.00    +0.000 NA
ATOM     17  C   UNL     1      -0.884  11.744  22.332  0.00  0.00    +0.000 A 
ATOM     18  H   UNL     1      -4.299  12.624  22.929  0.00  0.00    +0.000 HD
ENDBRANCH   1  15
BRANCH   9  19
ATOM     19  C   UNL     1      -4.852  10.961  17.518  0.00  0.00    +0.000 A 
ATOM     20  C   UNL     1      -4.017  10.015  18.136  0.00  0.00    +0.000 A 
ATOM     21  C   UNL     1      -2.788   9.689  17.553  0.00  0.00    +0.000 A 
ATOM     22  C   UNL     1      -2.403  10.276  16.348  0.00  0.00    +0.000 A 
ATOM     23  C   UNL     1      -3.237  11.207  15.728  0.00  0.00    +0.000 A 
ATOM     24  C   UNL     1      -4.455  11.558  16.314  0.00  0.00    +0.000 A 
ENDBRANCH   9  19
BRANCH   2  25
ATOM     25  C   UNL     1      -6.830  13.063  23.367  0.00  0.00    +0.000 C 
ATOM     26  O   UNL     1      -6.063  13.853  23.869  0.00  0.00    +0.000 OA
BRANCH  25  27
ATOM     27  O   UNL     1      -7.916  12.600  24.012  0.00  0.00    +0.000 OA
ATOM     28  H   UNL     1      -8.640  12.261  23.440  0.00  0.00    +0.000 HD
ENDBRANCH  25  27
ENDBRANCH   2  25
TORSDOF 4
ENDMDL
MODEL 9
REMARK VINA RESULT:      -7.1      8.187     10.919
REMARK  Name = 
REMARK  5 active torsions:
REMARK  status: ('A' for Active; 'I' for Inactive)
REMARK    1  A    between atoms: C_1  and  C_2
REMARK    2  A    between atoms: N_6  and  C_7
REMARK    3  A    between atoms: C_8  and  C_9
REMARK    4  A    between atoms: C_9  and  O_11
REMARK    5  A    between atoms: N_18  and  C_19
REMARK                            x       y       z     vdW  Elec       q    Type
REMARK                         _______ _______ _______ _____ _____    ______ ____
ROOT
ATOM      1  C   UNL     1      -4.544  13.132  20.771  0.00  0.00    +0.000 A 
ATOM      2  C   UNL     1      -4.622  14.523  20.644  0.00  0.00    +0.000 A 
ATOM      3  C   UNL     1      -3.512  15.270  21.026  0.00  0.00    +0.000 A 
ATOM      4  N   UNL     1      -2.324  14.738  21.460  0.00  0.00    +0.000 NA
ATOM      5  C   UNL     1      -2.440  13.412  21.750  0.00  0.00    +0.000 A 
ATOM      6  C   UNL     1      -3.653  12.722  21.763  0.00  0.00    +0.000 A 
ATOM      7  C   UNL     1      -3.724  12.654  23.208  0.00  0.00    +0.000 A 
ATOM      8  N   UNL     1      -2.502  12.571  23.777  0.00  0.00    +0.000 NA
ATOM      9  N   UNL     1      -1.718  12.600  22.643  0.00  0.00    +0.000 N 
ENDROOT
BRANCH   1  15
ATOM     10  C   UNL     1      -2.790  10.219  14.961  0.00  0.00    +0.000 C 
ATOM     11  C   UNL     1      -3.306  10.851  16.212  0.00  0.00    +0.000 A 
ATOM     12  C   UNL     1      -2.494  11.022  17.332  0.00  0.00    +0.000 A 
ATOM     13  C   UNL     1      -3.030  11.557  18.503  0.00  0.00    +0.000 A 
ATOM     14  C   UNL     1      -4.363  11.925  18.527  0.00  0.00    +0.000 A 
ATOM     15  N   UNL     1      -5.016  12.332  19.698  0.00  0.00    +0.000 N 
ATOM     16  N   UNL     1      -5.162  11.792  17.448  0.00  0.00    +0.000 NA
ATOM     17  C   UNL     1      -4.626  11.259  16.325  0.00  0.00    +0.000 A 
ATOM     18  H   UNL     1      -5.919  12.679  19.343  0.00  0.00    +0.000 HD
ENDBRANCH   1  15
BRANCH   9  19
ATOM     19  C   UNL     1      -0.980  11.415  22.310  0.00  0.00    +0.000 A 
ATOM     20  C   UNL     1      -0.866  10.359  23.229  0.00  0.00    +0.000 A 
ATOM     21  C   UNL     1       0.007   9.299  22.965  0.00  0.00    +0.000 A 
ATOM     22  C   UNL     1       0.742   9.273  21.779  0.00  0.00    +0.000 A 
ATOM     23  C   UNL     1       0.620  10.315  20.860  0.00  0.00    +0.000 A 
ATOM     24  C   UNL     1      -0.231  11.390  21.126  0.00  0.00    +0.000 A 
ENDBRANCH   9  19
BRANCH   2  25
ATOM     25  C   UNL     1      -5.795  15.182  20.041  0.00  0.00    +0.000 C 
ATOM     26  O   UNL     1      -6.921  14.791  20.254  0.00  0.00    +0.000 OA
BRANCH  25  27
ATOM     27  O   UNL     1      -5.532  16.210  19.212  0.00  0.00    +0.000 OA
ATOM     28  H   UNL     1      -5.059  15.978  18.383  0.00  0.00    +0.000 HD
ENDBRANCH  25  27
ENDBRANCH   2  25
TORSDOF 4
ENDMDL
