MODEL 1
REMARK VINA RESULT:      -7.1      0.000      0.000
REMARK  Name = 
REMARK  7 active torsions:
REMARK  status: ('A' for Active; 'I' for Inactive)
REMARK    1  A    between atoms: C_1  and  C_2
REMARK    2  A    between atoms: C_4  and  C_5
REMARK    3  A    between atoms: N_7  and  S_8
REMARK    4  A    between atoms: S_8  and  C_11
REMARK    5  A    between atoms: C_12  and  C_13
REMARK    6  A    between atoms: N_15  and  C_16
REMARK    7  A    between atoms: C_17  and  C_18
REMARK                            x       y       z     vdW  Elec       q    Type
REMARK                         _______ _______ _______ _____ _____    ______ ____
ROOT
ATOM      1  S   UNL     1       5.194   4.406  18.664  0.00  0.00    +0.000 S 
ATOM      2  O   UNL     1       5.809   4.730  19.935  0.00  0.00    +0.000 OA
ATOM      3  O   UNL     1       6.003   4.099  17.507  0.00  0.00    +0.000 OA
ENDROOT
BRANCH   1  10
ATOM      4  C   UNL     1       1.767   2.555  21.848  0.00  0.00    +0.000 C 
ATOM      5  C   UNL     1       2.246   2.636  20.427  0.00  0.00    +0.000 C 
ATOM      6  C   UNL     1       1.377   2.648  19.402  0.00  0.00    +0.000 C 
ATOM      7  C   UNL     1       1.809   2.782  17.967  0.00  0.00    +0.000 C 
ATOM      8  C   UNL     1       1.315   4.128  17.439  0.00  0.00    +0.000 C 
ATOM      9  C   UNL     1       3.326   2.591  17.785  0.00  0.00    +0.000 C 
ATOM     10  N   UNL     1       4.097   3.164  18.898  0.00  0.00    +0.000 NA
ATOM     11  C   UNL     1       3.742   2.735  20.252  0.00  0.00    +0.000 C 
ENDBRANCH   1  10
BRANCH   1  12
ATOM     12  C   UNL     1       4.315   5.830  18.239  0.00  0.00    +0.000 A 
ATOM     13  C   UNL     1       4.430   6.572  17.038  0.00  0.00    +0.000 A 
ATOM     14  C   UNL     1       5.261   6.344  15.828  0.00  0.00    +0.000 C 
ATOM     15  N   UNL     1       3.581   7.611  17.028  0.00  0.00    +0.000 NA
ATOM     16  N   UNL     1       2.927   7.525  18.198  0.00  0.00    +0.000 N 
ATOM     17  C   UNL     1       1.914   8.510  18.498  0.00  0.00    +0.000 C 
ATOM     18  C   UNL     1       3.296   6.446  18.958  0.00  0.00    +0.000 A 
ATOM     19  C   UNL     1       2.658   6.096  20.253  0.00  0.00    +0.000 C 
ENDBRANCH   1  12
TORSDOF 2
ENDMDL
MODEL 2
REMARK VINA RESULT:      -6.7      2.315      4.017
REMARK  Name = 
REMARK  7 active torsions:
REMARK  status: ('A' for Active; 'I' for Inactive)
REMARK    1  A    between atoms: C_1  and  C_2
REMARK    2  A    between atoms: C_4  and  C_5
REMARK    3  A    between atoms: N_7  and  S_8
REMARK    4  A    between atoms: S_8  and  C_11
REMARK    5  A    between atoms: C_12  and  C_13
REMARK    6  A    between atoms: N_15  and  C_16
REMARK    7  A    between atoms: C_17  and  C_18
REMARK                            x       y       z     vdW  Elec       q    Type
REMARK                         _______ _______ _______ _____ _____    ______ ____
ROOT
ATOM      1  S   UNL     1       5.729   4.606  19.161  0.00  0.00    +0.000 S 
ATOM      2  O   UNL     1       6.664   5.230  20.073  0.00  0.00    +0.000 OA
ATOM      3  O   UNL     1       5.580   3.170  19.120  0.00  0.00    +0.000 OA
ENDROOT
BRANCH   1  10
ATOM      4  C   UNL     1       2.611   8.184  17.491  0.00  0.00    +0.000 C 
ATOM      5  C   UNL     1       2.745   6.864  18.194  0.00  0.00    +0.000 C 
ATOM      6  C   UNL     1       1.820   5.901  18.044  0.00  0.00    +0.000 C 
ATOM      7  C   UNL     1       1.940   4.545  18.685  0.00  0.00    +0.000 C 
ATOM      8  C   UNL     1       2.134   3.506  17.581  0.00  0.00    +0.000 C 
ATOM      9  C   UNL     1       3.047   4.492  19.754  0.00  0.00    +0.000 C 
ATOM     10  N   UNL     1       4.220   5.296  19.382  0.00  0.00    +0.000 NA
ATOM     11  C   UNL     1       3.990   6.698  19.033  0.00  0.00    +0.000 C 
ENDBRANCH   1  10
BRANCH   1  12
ATOM     12  C   UNL     1       6.300   5.048  17.593  0.00  0.00    +0.000 A 
ATOM     13  C   UNL     1       7.176   6.116  17.278  0.00  0.00    +0.000 A 
ATOM     14  C   UNL     1       7.868   7.098  18.152  0.00  0.00    +0.000 C 
ATOM     15  N   UNL     1       7.431   6.161  15.962  0.00  0.00    +0.000 NA
ATOM     16  N   UNL     1       6.737   5.133  15.447  0.00  0.00    +0.000 N 
ATOM     17  C   UNL     1       6.808   4.893  14.025  0.00  0.00    +0.000 C 
ATOM     18  C   UNL     1       6.065   4.396  16.387  0.00  0.00    +0.000 A 
ATOM     19  C   UNL     1       5.296   3.165  16.070  0.00  0.00    +0.000 C 
ENDBRANCH   1  12
TORSDOF 2
ENDMDL
MODEL 3
REMARK VINA RESULT:      -6.3      1.653      2.846
REMARK  Name = 
REMARK  7 active torsions:
REMARK  status: ('A' for Active; 'I' for Inactive)
REMARK    1  A    between atoms: C_1  and  C_2
REMARK    2  A    between atoms: C_4  and  C_5
REMARK    3  A    between atoms: N_7  and  S_8
REMARK    4  A    between atoms: S_8  and  C_11
REMARK    5  A    between atoms: C_12  and  C_13
REMARK    6  A    between atoms: N_15  and  C_16
REMARK    7  A    between atoms: C_17  and  C_18
REMARK                            x       y       z     vdW  Elec       q    Type
REMARK                         _______ _______ _______ _____ _____    ______ ____
ROOT
ATOM      1  S   UNL     1       4.947   5.131  19.238  0.00  0.00    +0.000 S 
ATOM      2  O   UNL     1       4.070   6.204  19.658  0.00  0.00    +0.000 OA
ATOM      3  O   UNL     1       6.218   4.915  19.888  0.00  0.00    +0.000 OA
ENDROOT
BRANCH   1  10
ATOM      4  C   UNL     1       1.545   2.452  21.798  0.00  0.00    +0.000 C 
ATOM      5  C   UNL     1       2.184   2.725  20.467  0.00  0.00    +0.000 C 
ATOM      6  C   UNL     1       1.473   2.656  19.329  0.00  0.00    +0.000 C 
ATOM      7  C   UNL     1       2.058   2.973  17.980  0.00  0.00    +0.000 C 
ATOM      8  C   UNL     1       1.390   4.242  17.452  0.00  0.00    +0.000 C 
ATOM      9  C   UNL     1       3.594   3.077  18.010  0.00  0.00    +0.000 C 
ATOM     10  N   UNL     1       4.086   3.696  19.249  0.00  0.00    +0.000 NA
ATOM     11  C   UNL     1       3.644   3.109  20.515  0.00  0.00    +0.000 C 
ENDBRANCH   1  10
BRANCH   1  12
ATOM     12  C   UNL     1       5.335   5.514  17.599  0.00  0.00    +0.000 A 
ATOM     13  C   UNL     1       4.647   6.417  16.752  0.00  0.00    +0.000 A 
ATOM     14  C   UNL     1       3.476   7.295  17.010  0.00  0.00    +0.000 C 
ATOM     15  N   UNL     1       5.231   6.491  15.547  0.00  0.00    +0.000 NA
ATOM     16  N   UNL     1       6.281   5.658  15.628  0.00  0.00    +0.000 N 
ATOM     17  C   UNL     1       7.141   5.514  14.477  0.00  0.00    +0.000 C 
ATOM     18  C   UNL     1       6.423   5.067  16.857  0.00  0.00    +0.000 A 
ATOM     19  C   UNL     1       7.553   4.171  17.212  0.00  0.00    +0.000 C 
ENDBRANCH   1  12
TORSDOF 2
ENDMDL
MODEL 4
REMARK VINA RESULT:      -6.3      2.240      3.486
REMARK  Name = 
REMARK  7 active torsions:
REMARK  status: ('A' for Active; 'I' for Inactive)
REMARK    1  A    between atoms: C_1  and  C_2
REMARK    2  A    between atoms: C_4  and  C_5
REMARK    3  A    between atoms: N_7  and  S_8
REMARK    4  A    between atoms: S_8  and  C_11
REMARK    5  A    between atoms: C_12  and  C_13
REMARK    6  A    between atoms: N_15  and  C_16
REMARK    7  A    between atoms: C_17  and  C_18
REMARK                            x       y       z     vdW  Elec       q    Type
REMARK                         _______ _______ _______ _____ _____    ______ ____
ROOT
ATOM      1  S   UNL     1       5.402   4.762  19.041  0.00  0.00    +0.000 S 
ATOM      2  O   UNL     1       5.567   6.005  19.766  0.00  0.00    +0.000 OA
ATOM      3  O   UNL     1       6.039   3.548  19.497  0.00  0.00    +0.000 OA
ENDROOT
BRANCH   1  10
ATOM      4  C   UNL     1       1.340   2.732  21.205  0.00  0.00    +0.000 C 
ATOM      5  C   UNL     1       1.869   3.729  20.215  0.00  0.00    +0.000 C 
ATOM      6  C   UNL     1       1.253   4.909  20.023  0.00  0.00    +0.000 C 
ATOM      7  C   UNL     1       1.777   5.959  19.083  0.00  0.00    +0.000 C 
ATOM      8  C   UNL     1       2.224   7.165  19.909  0.00  0.00    +0.000 C 
ATOM      9  C   UNL     1       2.886   5.426  18.157  0.00  0.00    +0.000 C 
ATOM     10  N   UNL     1       3.767   4.468  18.839  0.00  0.00    +0.000 NA
ATOM     11  C   UNL     1       3.135   3.325  19.499  0.00  0.00    +0.000 C 
ENDBRANCH   1  10
BRANCH   1  12
ATOM     12  C   UNL     1       6.089   5.079  17.489  0.00  0.00    +0.000 A 
ATOM     13  C   UNL     1       7.063   6.057  17.174  0.00  0.00    +0.000 A 
ATOM     14  C   UNL     1       7.785   7.026  18.039  0.00  0.00    +0.000 C 
ATOM     15  N   UNL     1       7.389   6.016  15.874  0.00  0.00    +0.000 NA
ATOM     16  N   UNL     1       6.643   5.020  15.370  0.00  0.00    +0.000 N 
ATOM     17  C   UNL     1       6.769   4.703  13.966  0.00  0.00    +0.000 C 
ATOM     18  C   UNL     1       5.866   4.386  16.303  0.00  0.00    +0.000 A 
ATOM     19  C   UNL     1       5.018   3.204  16.001  0.00  0.00    +0.000 C 
ENDBRANCH   1  12
TORSDOF 2
ENDMDL
MODEL 5
REMARK VINA RESULT:      -6.2      2.405      5.246
REMARK  Name = 
REMARK  7 active torsions:
REMARK  status: ('A' for Active; 'I' for Inactive)
REMARK    1  A    between atoms: C_1  and  C_2
REMARK    2  A    between atoms: C_4  and  C_5
REMARK    3  A    between atoms: N_7  and  S_8
REMARK    4  A    between atoms: S_8  and  C_11
REMARK    5  A    between atoms: C_12  and  C_13
REMARK    6  A    between atoms: N_15  and  C_16
REMARK    7  A    between atoms: C_17  and  C_18
REMARK                            x       y       z     vdW  Elec       q    Type
REMARK                         _______ _______ _______ _____ _____    ______ ____
ROOT
ATOM      1  S   UNL     1       3.482   5.244  17.886  0.00  0.00    +0.000 S 
ATOM      2  O   UNL     1       3.772   6.627  18.202  0.00  0.00    +0.000 OA
ATOM      3  O   UNL     1       2.452   4.903  16.934  0.00  0.00    +0.000 OA
ENDROOT
BRANCH   1  10
ATOM      4  C   UNL     1       6.293   3.893  13.939  0.00  0.00    +0.000 C 
ATOM      5  C   UNL     1       6.262   4.228  15.402  0.00  0.00    +0.000 C 
ATOM      6  C   UNL     1       7.285   4.875  15.987  0.00  0.00    +0.000 C 
ATOM      7  C   UNL     1       7.274   5.278  17.436  0.00  0.00    +0.000 C 
ATOM      8  C   UNL     1       7.231   6.804  17.511  0.00  0.00    +0.000 C 
ATOM      9  C   UNL     1       6.135   4.611  18.228  0.00  0.00    +0.000 C 
ATOM     10  N   UNL     1       4.904   4.486  17.435  0.00  0.00    +0.000 NA
ATOM     11  C   UNL     1       5.007   3.820  16.135  0.00  0.00    +0.000 C 
ENDBRANCH   1  10
BRANCH   1  12
ATOM     12  C   UNL     1       2.960   4.564  19.384  0.00  0.00    +0.000 A 
ATOM     13  C   UNL     1       2.311   5.242  20.445  0.00  0.00    +0.000 A 
ATOM     14  C   UNL     1       1.867   6.654  20.571  0.00  0.00    +0.000 C 
ATOM     15  N   UNL     1       2.026   4.404  21.454  0.00  0.00    +0.000 NA
ATOM     16  N   UNL     1       2.475   3.209  21.037  0.00  0.00    +0.000 N 
ATOM     17  C   UNL     1       2.307   2.066  21.904  0.00  0.00    +0.000 C 
ATOM     18  C   UNL     1       3.013   3.230  19.777  0.00  0.00    +0.000 A 
ATOM     19  C   UNL     1       3.502   2.018  19.071  0.00  0.00    +0.000 C 
ENDBRANCH   1  12
TORSDOF 2
ENDMDL
MODEL 6
REMARK VINA RESULT:      -6.2      2.370      4.509
REMARK  Name = 
REMARK  7 active torsions:
REMARK  status: ('A' for Active; 'I' for Inactive)
REMARK    1  A    between atoms: C_1  and  C_2
REMARK    2  A    between atoms: C_4  and  C_5
REMARK    3  A    between atoms: N_7  and  S_8
REMARK    4  A    between atoms: S_8  and  C_11
REMARK    5  A    between atoms: C_12  and  C_13
REMARK    6  A    between atoms: N_15  and  C_16
REMARK    7  A    between atoms: C_17  and  C_18
REMARK                            x       y       z     vdW  Elec       q    Type
REMARK                         _______ _______ _______ _____ _____    ______ ____
ROOT
ATOM      1  S   UNL     1       3.383   4.632  18.261  0.00  0.00    +0.000 S 
ATOM      2  O   UNL     1       2.466   4.435  17.158  0.00  0.00    +0.000 OA
ATOM      3  O   UNL     1       3.830   3.515  19.060  0.00  0.00    +0.000 OA
ENDROOT
BRANCH   1  10
ATOM      4  C   UNL     1       8.274   5.473  19.081  0.00  0.00    +0.000 C 
ATOM      5  C   UNL     1       7.152   5.463  18.083  0.00  0.00    +0.000 C 
ATOM      6  C   UNL     1       7.364   5.109  16.805  0.00  0.00    +0.000 C 
ATOM      7  C   UNL     1       6.261   5.033  15.785  0.00  0.00    +0.000 C 
ATOM      8  C   UNL     1       6.073   3.569  15.387  0.00  0.00    +0.000 C 
ATOM      9  C   UNL     1       4.957   5.690  16.272  0.00  0.00    +0.000 C 
ATOM     10  N   UNL     1       4.723   5.466  17.706  0.00  0.00    +0.000 NA
ATOM     11  C   UNL     1       5.796   5.840  18.629  0.00  0.00    +0.000 C 
ENDBRANCH   1  10
BRANCH   1  12
ATOM     12  C   UNL     1       2.524   5.656  19.353  0.00  0.00    +0.000 A 
ATOM     13  C   UNL     1       1.968   5.289  20.604  0.00  0.00    +0.000 A 
ATOM     14  C   UNL     1       1.989   3.998  21.337  0.00  0.00    +0.000 C 
ATOM     15  N   UNL     1       1.388   6.340  21.203  0.00  0.00    +0.000 NA
ATOM     16  N   UNL     1       1.581   7.362  20.354  0.00  0.00    +0.000 N 
ATOM     17  C   UNL     1       1.076   8.667  20.716  0.00  0.00    +0.000 C 
ATOM     18  C   UNL     1       2.297   7.024  19.236  0.00  0.00    +0.000 A 
ATOM     19  C   UNL     1       2.705   8.001  18.194  0.00  0.00    +0.000 C 
ENDBRANCH   1  12
TORSDOF 2
ENDMDL
MODEL 7
REMARK VINA RESULT:      -6.2      2.561      4.678
REMARK  Name = 
REMARK  7 active torsions:
REMARK  status: ('A' for Active; 'I' for Inactive)
REMARK    1  A    between atoms: C_1  and  C_2
REMARK    2  A    between atoms: C_4  and  C_5
REMARK    3  A    between atoms: N_7  and  S_8
REMARK    4  A    between atoms: S_8  and  C_11
REMARK    5  A    between atoms: C_12  and  C_13
REMARK    6  A    between atoms: N_15  and  C_16
REMARK    7  A    between atoms: C_17  and  C_18
REMARK                            x       y       z     vdW  Elec       q    Type
REMARK                         _______ _______ _______ _____ _____    ______ ____
ROOT
ATOM      1  S   UNL     1       4.434   4.247  17.227  0.00  0.00    +0.000 S 
ATOM      2  O   UNL     1       4.979   3.136  17.979  0.00  0.00    +0.000 OA
ATOM      3  O   UNL     1       3.288   4.068  16.366  0.00  0.00    +0.000 OA
ENDROOT
BRANCH   1  10
ATOM      4  C   UNL     1       1.945   8.588  17.748  0.00  0.00    +0.000 C 
ATOM      5  C   UNL     1       2.567   7.407  18.437  0.00  0.00    +0.000 C 
ATOM      6  C   UNL     1       2.027   6.892  19.554  0.00  0.00    +0.000 C 
ATOM      7  C   UNL     1       2.584   5.679  20.246  0.00  0.00    +0.000 C 
ATOM      8  C   UNL     1       1.571   4.542  20.117  0.00  0.00    +0.000 C 
ATOM      9  C   UNL     1       3.982   5.292  19.730  0.00  0.00    +0.000 C 
ATOM     10  N   UNL     1       4.120   5.508  18.282  0.00  0.00    +0.000 NA
ATOM     11  C   UNL     1       3.795   6.839  17.768  0.00  0.00    +0.000 C 
ENDBRANCH   1  10
BRANCH   1  12
ATOM     12  C   UNL     1       5.719   4.727  16.179  0.00  0.00    +0.000 A 
ATOM     13  C   UNL     1       6.907   5.405  16.548  0.00  0.00    +0.000 A 
ATOM     14  C   UNL     1       7.405   5.846  17.876  0.00  0.00    +0.000 C 
ATOM     15  N   UNL     1       7.701   5.603  15.485  0.00  0.00    +0.000 NA
ATOM     16  N   UNL     1       7.035   5.051  14.458  0.00  0.00    +0.000 N 
ATOM     17  C   UNL     1       7.636   5.086  13.145  0.00  0.00    +0.000 C 
ATOM     18  C   UNL     1       5.849   4.468  14.819  0.00  0.00    +0.000 A 
ATOM     19  C   UNL     1       4.976   3.725  13.874  0.00  0.00    +0.000 C 
ENDBRANCH   1  12
TORSDOF 2
ENDMDL
MODEL 8
REMARK VINA RESULT:      -6.1      2.354      3.544
REMARK  Name = 
REMARK  7 active torsions:
REMARK  status: ('A' for Active; 'I' for Inactive)
REMARK    1  A    between atoms: C_1  and  C_2
REMARK    2  A    between atoms: C_4  and  C_5
REMARK    3  A    between atoms: N_7  and  S_8
REMARK    4  A    between atoms: S_8  and  C_11
REMARK    5  A    between atoms: C_12  and  C_13
REMARK    6  A    between atoms: N_15  and  C_16
REMARK    7  A    between atoms: C_17  and  C_18
REMARK                            x       y       z     vdW  Elec       q    Type
REMARK                         _______ _______ _______ _____ _____    ______ ____
ROOT
ATOM      1  S   UNL     1       4.680   5.738  18.467  0.00  0.00    +0.000 S 
ATOM      2  O   UNL     1       3.701   6.736  18.090  0.00  0.00    +0.000 OA
ATOM      3  O   UNL     1       5.530   5.932  19.619  0.00  0.00    +0.000 OA
ENDROOT
BRANCH   1  10
ATOM      4  C   UNL     1       4.647   1.403  21.019  0.00  0.00    +0.000 C 
ATOM      5  C   UNL     1       3.861   2.379  20.192  0.00  0.00    +0.000 C 
ATOM      6  C   UNL     1       2.559   2.605  20.438  0.00  0.00    +0.000 C 
ATOM      7  C   UNL     1       1.746   3.612  19.671  0.00  0.00    +0.000 C 
ATOM      8  C   UNL     1       1.363   4.746  20.622  0.00  0.00    +0.000 C 
ATOM      9  C   UNL     1       2.464   4.113  18.405  0.00  0.00    +0.000 C 
ATOM     10  N   UNL     1       3.913   4.257  18.607  0.00  0.00    +0.000 NA
ATOM     11  C   UNL     1       4.640   3.093  19.114  0.00  0.00    +0.000 C 
ENDBRANCH   1  10
BRANCH   1  12
ATOM     12  C   UNL     1       5.755   5.663  17.118  0.00  0.00    +0.000 A 
ATOM     13  C   UNL     1       6.993   6.337  16.979  0.00  0.00    +0.000 A 
ATOM     14  C   UNL     1       7.726   7.229  17.914  0.00  0.00    +0.000 C 
ATOM     15  N   UNL     1       7.581   6.036  15.812  0.00  0.00    +0.000 NA
ATOM     16  N   UNL     1       6.737   5.175  15.220  0.00  0.00    +0.000 N 
ATOM     17  C   UNL     1       7.088   4.640  13.925  0.00  0.00    +0.000 C 
ATOM     18  C   UNL     1       5.633   4.877  15.977  0.00  0.00    +0.000 A 
ATOM     19  C   UNL     1       4.600   3.890  15.570  0.00  0.00    +0.000 C 
ENDBRANCH   1  12
TORSDOF 2
ENDMDL
MODEL 9
REMARK VINA RESULT:      -6.1      0.640      1.971
REMARK  Name = 
REMARK  7 active torsions:
REMARK  status: ('A' for Active; 'I' for Inactive)
REMARK    1  A    between atoms: C_1  and  C_2
REMARK    2  A    between atoms: C_4  and  C_5
REMARK    3  A    between atoms: N_7  and  S_8
REMARK    4  A    between atoms: S_8  and  C_11
REMARK    5  A    between atoms: C_12  and  C_13
REMARK    6  A    between atoms: N_15  and  C_16
REMARK    7  A    between atoms: C_17  and  C_18
REMARK                            x       y       z     vdW  Elec       q    Type
REMARK                         _______ _______ _______ _____ _____    ______ ____
ROOT
ATOM      1  S   UNL     1       4.921   4.500  18.742  0.00  0.00    +0.000 S 
ATOM      2  O   UNL     1       5.704   4.711  19.941  0.00  0.00    +0.000 OA
ATOM      3  O   UNL     1       5.556   4.413  17.447  0.00  0.00    +0.000 OA
ENDROOT
BRANCH   1  10
ATOM      4  C   UNL     1       1.725   2.252  21.911  0.00  0.00    +0.000 C 
ATOM      5  C   UNL     1       2.182   2.407  20.489  0.00  0.00    +0.000 C 
ATOM      6  C   UNL     1       1.308   2.350  19.470  0.00  0.00    +0.000 C 
ATOM      7  C   UNL     1       1.712   2.553  18.035  0.00  0.00    +0.000 C 
ATOM      8  C   UNL     1       1.079   3.852  17.536  0.00  0.00    +0.000 C 
ATOM      9  C   UNL     1       3.239   2.521  17.840  0.00  0.00    +0.000 C 
ATOM     10  N   UNL     1       3.957   3.149  18.959  0.00  0.00    +0.000 NA
ATOM     11  C   UNL     1       3.659   2.662  20.306  0.00  0.00    +0.000 C 
ENDBRANCH   1  10
BRANCH   1  12
ATOM     12  C   UNL     1       3.894   5.885  18.652  0.00  0.00    +0.000 A 
ATOM     13  C   UNL     1       2.895   6.264  19.582  0.00  0.00    +0.000 A 
ATOM     14  C   UNL     1       2.477   5.647  20.867  0.00  0.00    +0.000 C 
ATOM     15  N   UNL     1       2.300   7.409  19.216  0.00  0.00    +0.000 NA
ATOM     16  N   UNL     1       2.919   7.761  18.077  0.00  0.00    +0.000 N 
ATOM     17  C   UNL     1       2.513   8.981  17.417  0.00  0.00    +0.000 C 
ATOM     18  C   UNL     1       3.921   6.903  17.704  0.00  0.00    +0.000 A 
ATOM     19  C   UNL     1       4.798   7.125  16.526  0.00  0.00    +0.000 C 
ENDBRANCH   1  12
TORSDOF 2
ENDMDL
