MODEL 1
REMARK VINA RESULT:      -7.0      0.000      0.000
REMARK  Name = 
REMARK  10 active torsions:
REMARK  status: ('A' for Active; 'I' for Inactive)
REMARK    1  A    between atoms: C_1  and  O_2
REMARK    2  A    between atoms: O_2  and  C_3
REMARK    3  A    between atoms: C_3  and  C_5
REMARK    4  A    between atoms: C_6  and  C_7
REMARK    5  A    between atoms: C_9  and  C_10
REMARK    6  A    between atoms: C_11  and  C_12
REMARK    7  A    between atoms: C_12  and  O_14
REMARK    8  A    between atoms: O_14  and  C_15
REMARK    9  A    between atoms: C_16  and  C_17
REMARK   10  A    between atoms: C_21  and  C_22
REMARK                            x       y       z     vdW  Elec       q    Type
REMARK                         _______ _______ _______ _____ _____    ______ ____
ROOT
ATOM      1  C   UNL     1       2.365   7.185  19.590  0.00  0.00    +0.000 C 
ATOM      2  C   UNL     1       2.382   7.788  18.376  0.00  0.00    +0.000 C 
ATOM      3  C   UNL     1       1.508   8.932  17.924  0.00  0.00    +0.000 C 
ATOM      4  N   UNL     1       3.270   7.338  17.407  0.00  0.00    +0.000 N 
ATOM      5  C   UNL     1       4.312   6.453  17.641  0.00  0.00    +0.000 C 
ATOM      6  C   UNL     1       5.294   6.273  16.514  0.00  0.00    +0.000 C 
ATOM      7  C   UNL     1       4.375   5.797  18.824  0.00  0.00    +0.000 C 
ATOM      8  C   UNL     1       3.240   5.943  19.843  0.00  0.00    +0.000 C 
ATOM      9  H   UNL     1       3.266   7.827  16.515  0.00  0.00    +0.000 HD
ENDROOT
BRANCH   8  10
ATOM     10  C   UNL     1       2.379   4.663  19.911  0.00  0.00    +0.000 A 
ATOM     11  S   UNL     1       2.262   3.829  21.413  0.00  0.00    +0.000 S 
ATOM     12  C   UNL     1       1.218   2.649  20.757  0.00  0.00    +0.000 A 
ATOM     13  C   UNL     1       0.968   2.866  19.424  0.00  0.00    +0.000 A 
ATOM     14  C   UNL     1       1.637   4.033  18.915  0.00  0.00    +0.000 A 
ATOM     15  C   UNL     1       1.496   4.465  17.490  0.00  0.00    +0.000 C 
ENDBRANCH   8  10
BRANCH   1  16
ATOM     16  C   UNL     1       1.488   7.628  20.711  0.00  0.00    +0.000 C 
ATOM     17  O   UNL     1       0.505   7.030  21.119  0.00  0.00    +0.000 OA
BRANCH  16  19
ATOM     18  C   UNL     1       1.086   9.396  22.204  0.00  0.00    +0.000 C 
ATOM     19  O   UNL     1       1.925   8.817  21.203  0.00  0.00    +0.000 OA
ENDBRANCH  16  19
ENDBRANCH   1  16
BRANCH   7  20
ATOM     20  C   UNL     1       5.519   4.907  19.158  0.00  0.00    +0.000 C 
ATOM     21  O   UNL     1       5.592   3.723  18.863  0.00  0.00    +0.000 OA
BRANCH  20  22
ATOM     22  O   UNL     1       6.505   5.604  19.778  0.00  0.00    +0.000 OA
ATOM     23  C   UNL     1       7.738   5.630  19.052  0.00  0.00    +0.000 C 
ENDBRANCH  20  22
ENDBRANCH   7  20
TORSDOF 5
ENDMDL
MODEL 2
REMARK VINA RESULT:      -7.0      0.973      1.401
REMARK  Name = 
REMARK  10 active torsions:
REMARK  status: ('A' for Active; 'I' for Inactive)
REMARK    1  A    between atoms: C_1  and  O_2
REMARK    2  A    between atoms: O_2  and  C_3
REMARK    3  A    between atoms: C_3  and  C_5
REMARK    4  A    between atoms: C_6  and  C_7
REMARK    5  A    between atoms: C_9  and  C_10
REMARK    6  A    between atoms: C_11  and  C_12
REMARK    7  A    between atoms: C_12  and  O_14
REMARK    8  A    between atoms: O_14  and  C_15
REMARK    9  A    between atoms: C_16  and  C_17
REMARK   10  A    between atoms: C_21  and  C_22
REMARK                            x       y       z     vdW  Elec       q    Type
REMARK                         _______ _______ _______ _____ _____    ______ ____
ROOT
ATOM      1  C   UNL     1       2.410   7.065  19.518  0.00  0.00    +0.000 C 
ATOM      2  C   UNL     1       2.502   7.837  18.407  0.00  0.00    +0.000 C 
ATOM      3  C   UNL     1       1.658   9.043  18.075  0.00  0.00    +0.000 C 
ATOM      4  N   UNL     1       3.447   7.523  17.439  0.00  0.00    +0.000 N 
ATOM      5  C   UNL     1       4.471   6.604  17.603  0.00  0.00    +0.000 C 
ATOM      6  C   UNL     1       5.520   6.580  16.523  0.00  0.00    +0.000 C 
ATOM      7  C   UNL     1       4.462   5.783  18.681  0.00  0.00    +0.000 C 
ATOM      8  C   UNL     1       3.267   5.791  19.640  0.00  0.00    +0.000 C 
ATOM      9  H   UNL     1       3.498   8.137  16.628  0.00  0.00    +0.000 HD
ENDROOT
BRANCH   8  10
ATOM     10  C   UNL     1       2.403   4.523  19.469  0.00  0.00    +0.000 A 
ATOM     11  S   UNL     1       1.813   4.136  17.898  0.00  0.00    +0.000 S 
ATOM     12  C   UNL     1       1.041   2.721  18.460  0.00  0.00    +0.000 A 
ATOM     13  C   UNL     1       1.209   2.544  19.812  0.00  0.00    +0.000 A 
ATOM     14  C   UNL     1       1.998   3.585  20.415  0.00  0.00    +0.000 A 
ATOM     15  C   UNL     1       2.316   3.587  21.876  0.00  0.00    +0.000 C 
ENDBRANCH   8  10
BRANCH   1  16
ATOM     16  C   UNL     1       1.467   7.350  20.636  0.00  0.00    +0.000 C 
ATOM     17  O   UNL     1       0.479   6.688  20.914  0.00  0.00    +0.000 OA
BRANCH  16  19
ATOM     18  C   UNL     1       0.775   9.283  21.777  0.00  0.00    +0.000 C 
ATOM     19  O   UNL     1       1.851   8.474  21.295  0.00  0.00    +0.000 OA
ENDBRANCH  16  19
ENDBRANCH   1  16
BRANCH   7  20
ATOM     20  C   UNL     1       5.583   4.843  18.949  0.00  0.00    +0.000 C 
ATOM     21  O   UNL     1       5.709   3.741  18.437  0.00  0.00    +0.000 OA
BRANCH  20  22
ATOM     22  O   UNL     1       6.487   5.403  19.793  0.00  0.00    +0.000 OA
ATOM     23  C   UNL     1       7.762   5.650  19.192  0.00  0.00    +0.000 C 
ENDBRANCH  20  22
ENDBRANCH   7  20
TORSDOF 5
ENDMDL
MODEL 3
REMARK VINA RESULT:      -6.5      0.564      1.128
REMARK  Name = 
REMARK  10 active torsions:
REMARK  status: ('A' for Active; 'I' for Inactive)
REMARK    1  A    between atoms: C_1  and  O_2
REMARK    2  A    between atoms: O_2  and  C_3
REMARK    3  A    between atoms: C_3  and  C_5
REMARK    4  A    between atoms: C_6  and  C_7
REMARK    5  A    between atoms: C_9  and  C_10
REMARK    6  A    between atoms: C_11  and  C_12
REMARK    7  A    between atoms: C_12  and  O_14
REMARK    8  A    between atoms: O_14  and  C_15
REMARK    9  A    between atoms: C_16  and  C_17
REMARK   10  A    between atoms: C_21  and  C_22
REMARK                            x       y       z     vdW  Elec       q    Type
REMARK                         _______ _______ _______ _____ _____    ______ ____
ROOT
ATOM      1  C   UNL     1       2.283   7.270  19.623  0.00  0.00    +0.000 C 
ATOM      2  C   UNL     1       2.290   7.888  18.416  0.00  0.00    +0.000 C 
ATOM      3  C   UNL     1       1.427   9.050  17.992  0.00  0.00    +0.000 C 
ATOM      4  N   UNL     1       3.155   7.436  17.427  0.00  0.00    +0.000 N 
ATOM      5  C   UNL     1       4.187   6.533  17.633  0.00  0.00    +0.000 C 
ATOM      6  C   UNL     1       5.149   6.353  16.489  0.00  0.00    +0.000 C 
ATOM      7  C   UNL     1       4.259   5.862  18.807  0.00  0.00    +0.000 C 
ATOM      8  C   UNL     1       3.142   6.012  19.847  0.00  0.00    +0.000 C 
ATOM      9  H   UNL     1       3.145   7.937  16.541  0.00  0.00    +0.000 HD
ENDROOT
BRANCH   8  10
ATOM     10  C   UNL     1       2.263   4.745  19.912  0.00  0.00    +0.000 A 
ATOM     11  S   UNL     1       2.090   3.941  21.426  0.00  0.00    +0.000 S 
ATOM     12  C   UNL     1       1.050   2.762  20.760  0.00  0.00    +0.000 A 
ATOM     13  C   UNL     1       0.843   2.956  19.416  0.00  0.00    +0.000 A 
ATOM     14  C   UNL     1       1.543   4.105  18.906  0.00  0.00    +0.000 A 
ATOM     15  C   UNL     1       1.451   4.511  17.470  0.00  0.00    +0.000 C 
ENDBRANCH   8  10
BRANCH   1  16
ATOM     16  C   UNL     1       1.431   7.713  20.762  0.00  0.00    +0.000 C 
ATOM     17  O   UNL     1       0.411   7.158  21.140  0.00  0.00    +0.000 OA
BRANCH  16  19
ATOM     18  C   UNL     1       0.963   9.735  21.861  0.00  0.00    +0.000 C 
ATOM     19  O   UNL     1       1.938   8.847  21.311  0.00  0.00    +0.000 OA
ENDBRANCH  16  19
ENDBRANCH   1  16
BRANCH   7  20
ATOM     20  C   UNL     1       5.394   4.950  19.112  0.00  0.00    +0.000 C 
ATOM     21  O   UNL     1       6.366   5.246  19.791  0.00  0.00    +0.000 OA
BRANCH  20  22
ATOM     22  O   UNL     1       5.173   3.717  18.588  0.00  0.00    +0.000 OA
ATOM     23  C   UNL     1       4.899   2.713  19.569  0.00  0.00    +0.000 C 
ENDBRANCH  20  22
ENDBRANCH   7  20
TORSDOF 5
ENDMDL
MODEL 4
REMARK VINA RESULT:      -6.4      1.102      1.790
REMARK  Name = 
REMARK  10 active torsions:
REMARK  status: ('A' for Active; 'I' for Inactive)
REMARK    1  A    between atoms: C_1  and  O_2
REMARK    2  A    between atoms: O_2  and  C_3
REMARK    3  A    between atoms: C_3  and  C_5
REMARK    4  A    between atoms: C_6  and  C_7
REMARK    5  A    between atoms: C_9  and  C_10
REMARK    6  A    between atoms: C_11  and  C_12
REMARK    7  A    between atoms: C_12  and  O_14
REMARK    8  A    between atoms: O_14  and  C_15
REMARK    9  A    between atoms: C_16  and  C_17
REMARK   10  A    between atoms: C_21  and  C_22
REMARK                            x       y       z     vdW  Elec       q    Type
REMARK                         _______ _______ _______ _____ _____    ______ ____
ROOT
ATOM      1  C   UNL     1       2.303   7.203  19.562  0.00  0.00    +0.000 C 
ATOM      2  C   UNL     1       2.413   7.968  18.448  0.00  0.00    +0.000 C 
ATOM      3  C   UNL     1       1.610   9.202  18.118  0.00  0.00    +0.000 C 
ATOM      4  N   UNL     1       3.336   7.617  17.472  0.00  0.00    +0.000 N 
ATOM      5  C   UNL     1       4.328   6.662  17.631  0.00  0.00    +0.000 C 
ATOM      6  C   UNL     1       5.366   6.596  16.541  0.00  0.00    +0.000 C 
ATOM      7  C   UNL     1       4.299   5.845  18.711  0.00  0.00    +0.000 C 
ATOM      8  C   UNL     1       3.114   5.900  19.681  0.00  0.00    +0.000 C 
ATOM      9  H   UNL     1       3.402   8.226  16.659  0.00  0.00    +0.000 HD
ENDROOT
BRANCH   8  10
ATOM     10  C   UNL     1       2.202   4.663  19.523  0.00  0.00    +0.000 A 
ATOM     11  S   UNL     1       1.547   4.319  17.967  0.00  0.00    +0.000 S 
ATOM     12  C   UNL     1       0.748   2.922  18.536  0.00  0.00    +0.000 A 
ATOM     13  C   UNL     1       0.956   2.720  19.879  0.00  0.00    +0.000 A 
ATOM     14  C   UNL     1       1.799   3.725  20.469  0.00  0.00    +0.000 A 
ATOM     15  C   UNL     1       2.166   3.695  21.918  0.00  0.00    +0.000 C 
ENDBRANCH   8  10
BRANCH   1  16
ATOM     16  C   UNL     1       1.381   7.526  20.688  0.00  0.00    +0.000 C 
ATOM     17  O   UNL     1       0.322   6.963  20.918  0.00  0.00    +0.000 OA
BRANCH  16  19
ATOM     18  C   UNL     1       0.887   9.421  21.985  0.00  0.00    +0.000 C 
ATOM     19  O   UNL     1       1.876   8.562  21.414  0.00  0.00    +0.000 OA
ENDBRANCH  16  19
ENDBRANCH   1  16
BRANCH   7  20
ATOM     20  C   UNL     1       5.387   4.865  18.973  0.00  0.00    +0.000 C 
ATOM     21  O   UNL     1       6.365   5.078  19.674  0.00  0.00    +0.000 OA
BRANCH  20  22
ATOM     22  O   UNL     1       5.113   3.675  18.381  0.00  0.00    +0.000 OA
ATOM     23  C   UNL     1       4.836   2.620  19.307  0.00  0.00    +0.000 C 
ENDBRANCH  20  22
ENDBRANCH   7  20
TORSDOF 5
ENDMDL
MODEL 5
REMARK VINA RESULT:      -6.3      2.377      4.554
REMARK  Name = 
REMARK  10 active torsions:
REMARK  status: ('A' for Active; 'I' for Inactive)
REMARK    1  A    between atoms: C_1  and  O_2
REMARK    2  A    between atoms: O_2  and  C_3
REMARK    3  A    between atoms: C_3  and  C_5
REMARK    4  A    between atoms: C_6  and  C_7
REMARK    5  A    between atoms: C_9  and  C_10
REMARK    6  A    between atoms: C_11  and  C_12
REMARK    7  A    between atoms: C_12  and  O_14
REMARK    8  A    between atoms: O_14  and  C_15
REMARK    9  A    between atoms: C_16  and  C_17
REMARK   10  A    between atoms: C_21  and  C_22
REMARK                            x       y       z     vdW  Elec       q    Type
REMARK                         _______ _______ _______ _____ _____    ______ ____
ROOT
ATOM      1  C   UNL     1       2.832   6.274  18.797  0.00  0.00    +0.000 C 
ATOM      2  C   UNL     1       2.460   6.398  20.095  0.00  0.00    +0.000 C 
ATOM      3  C   UNL     1       2.058   7.670  20.800  0.00  0.00    +0.000 C 
ATOM      4  N   UNL     1       2.440   5.271  20.906  0.00  0.00    +0.000 N 
ATOM      5  C   UNL     1       2.559   3.967  20.450  0.00  0.00    +0.000 C 
ATOM      6  C   UNL     1       2.281   2.884  21.458  0.00  0.00    +0.000 C 
ATOM      7  C   UNL     1       2.932   3.743  19.168  0.00  0.00    +0.000 C 
ATOM      8  C   UNL     1       3.335   4.918  18.269  0.00  0.00    +0.000 C 
ATOM      9  H   UNL     1       2.138   5.401  21.870  0.00  0.00    +0.000 HD
ENDROOT
BRANCH   8  10
ATOM     10  C   UNL     1       4.861   4.946  18.034  0.00  0.00    +0.000 A 
ATOM     11  S   UNL     1       5.889   5.356  19.355  0.00  0.00    +0.000 S 
ATOM     12  C   UNL     1       7.297   5.163  18.409  0.00  0.00    +0.000 A 
ATOM     13  C   UNL     1       7.004   4.809  17.115  0.00  0.00    +0.000 A 
ATOM     14  C   UNL     1       5.591   4.680  16.879  0.00  0.00    +0.000 A 
ATOM     15  C   UNL     1       5.047   4.292  15.541  0.00  0.00    +0.000 C 
ENDBRANCH   8  10
BRANCH   1  16
ATOM     16  C   UNL     1       2.834   7.412  17.835  0.00  0.00    +0.000 C 
ATOM     17  O   UNL     1       3.809   7.816  17.220  0.00  0.00    +0.000 OA
BRANCH  16  19
ATOM     18  C   UNL     1       1.565   9.387  17.767  0.00  0.00    +0.000 C 
ATOM     19  O   UNL     1       1.593   7.958  17.755  0.00  0.00    +0.000 OA
ENDBRANCH  16  19
ENDBRANCH   1  16
BRANCH   7  20
ATOM     20  C   UNL     1       2.988   2.367  18.605  0.00  0.00    +0.000 C 
ATOM     21  O   UNL     1       3.848   1.539  18.866  0.00  0.00    +0.000 OA
BRANCH  20  22
ATOM     22  O   UNL     1       1.913   2.130  17.810  0.00  0.00    +0.000 OA
ATOM     23  C   UNL     1       0.660   2.197  18.497  0.00  0.00    +0.000 C 
ENDBRANCH  20  22
ENDBRANCH   7  20
TORSDOF 5
ENDMDL
MODEL 6
REMARK VINA RESULT:      -6.3      2.428      4.326
REMARK  Name = 
REMARK  10 active torsions:
REMARK  status: ('A' for Active; 'I' for Inactive)
REMARK    1  A    between atoms: C_1  and  O_2
REMARK    2  A    between atoms: O_2  and  C_3
REMARK    3  A    between atoms: C_3  and  C_5
REMARK    4  A    between atoms: C_6  and  C_7
REMARK    5  A    between atoms: C_9  and  C_10
REMARK    6  A    between atoms: C_11  and  C_12
REMARK    7  A    between atoms: C_12  and  O_14
REMARK    8  A    between atoms: O_14  and  C_15
REMARK    9  A    between atoms: C_16  and  C_17
REMARK   10  A    between atoms: C_21  and  C_22
REMARK                            x       y       z     vdW  Elec       q    Type
REMARK                         _______ _______ _______ _____ _____    ______ ____
ROOT
ATOM      1  C   UNL     1       2.605   6.550  18.734  0.00  0.00    +0.000 C 
ATOM      2  C   UNL     1       2.172   6.597  20.018  0.00  0.00    +0.000 C 
ATOM      3  C   UNL     1       1.881   7.837  20.827  0.00  0.00    +0.000 C 
ATOM      4  N   UNL     1       1.968   5.410  20.710  0.00  0.00    +0.000 N 
ATOM      5  C   UNL     1       1.959   4.151  20.132  0.00  0.00    +0.000 C 
ATOM      6  C   UNL     1       1.494   3.020  21.011  0.00  0.00    +0.000 C 
ATOM      7  C   UNL     1       2.381   4.003  18.853  0.00  0.00    +0.000 C 
ATOM      8  C   UNL     1       2.975   5.198  18.099  0.00  0.00    +0.000 C 
ATOM      9  H   UNL     1       1.625   5.486  21.666  0.00  0.00    +0.000 HD
ENDROOT
BRANCH   8  10
ATOM     10  C   UNL     1       4.505   5.058  17.944  0.00  0.00    +0.000 A 
ATOM     11  S   UNL     1       5.494   5.237  19.343  0.00  0.00    +0.000 S 
ATOM     12  C   UNL     1       6.923   4.948  18.457  0.00  0.00    +0.000 A 
ATOM     13  C   UNL     1       6.669   4.733  17.124  0.00  0.00    +0.000 A 
ATOM     14  C   UNL     1       5.267   4.795  16.808  0.00  0.00    +0.000 A 
ATOM     15  C   UNL     1       4.761   4.580  15.417  0.00  0.00    +0.000 C 
ENDBRANCH   8  10
BRANCH   1  16
ATOM     16  C   UNL     1       2.802   7.764  17.893  0.00  0.00    +0.000 C 
ATOM     17  O   UNL     1       3.877   8.176  17.486  0.00  0.00    +0.000 OA
BRANCH  16  19
ATOM     18  C   UNL     1       1.602   9.783  17.870  0.00  0.00    +0.000 C 
ATOM     19  O   UNL     1       1.608   8.369  17.660  0.00  0.00    +0.000 OA
ENDBRANCH  16  19
ENDBRANCH   1  16
BRANCH   7  20
ATOM     20  C   UNL     1       2.308   2.689  18.158  0.00  0.00    +0.000 C 
ATOM     21  O   UNL     1       1.277   2.160  17.773  0.00  0.00    +0.000 OA
BRANCH  20  22
ATOM     22  O   UNL     1       3.552   2.187  17.949  0.00  0.00    +0.000 OA
ATOM     23  C   UNL     1       3.928   1.169  18.881  0.00  0.00    +0.000 C 
ENDBRANCH  20  22
ENDBRANCH   7  20
TORSDOF 5
ENDMDL
MODEL 7
REMARK VINA RESULT:      -5.9      2.780      4.703
REMARK  Name = 
REMARK  10 active torsions:
REMARK  status: ('A' for Active; 'I' for Inactive)
REMARK    1  A    between atoms: C_1  and  O_2
REMARK    2  A    between atoms: O_2  and  C_3
REMARK    3  A    between atoms: C_3  and  C_5
REMARK    4  A    between atoms: C_6  and  C_7
REMARK    5  A    between atoms: C_9  and  C_10
REMARK    6  A    between atoms: C_11  and  C_12
REMARK    7  A    between atoms: C_12  and  O_14
REMARK    8  A    between atoms: O_14  and  C_15
REMARK    9  A    between atoms: C_16  and  C_17
REMARK   10  A    between atoms: C_21  and  C_22
REMARK                            x       y       z     vdW  Elec       q    Type
REMARK                         _______ _______ _______ _____ _____    ______ ____
ROOT
ATOM      1  C   UNL     1       3.355   3.944  18.117  0.00  0.00    +0.000 C 
ATOM      2  C   UNL     1       4.267   3.228  18.820  0.00  0.00    +0.000 C 
ATOM      3  C   UNL     1       4.041   1.900  19.500  0.00  0.00    +0.000 C 
ATOM      4  N   UNL     1       5.554   3.727  18.968  0.00  0.00    +0.000 N 
ATOM      5  C   UNL     1       6.067   4.809  18.269  0.00  0.00    +0.000 C 
ATOM      6  C   UNL     1       7.548   5.045  18.406  0.00  0.00    +0.000 C 
ATOM      7  C   UNL     1       5.231   5.589  17.543  0.00  0.00    +0.000 C 
ATOM      8  C   UNL     1       3.718   5.346  17.594  0.00  0.00    +0.000 C 
ATOM      9  H   UNL     1       6.215   3.152  19.487  0.00  0.00    +0.000 HD
ENDROOT
BRANCH   8  10
ATOM     10  C   UNL     1       3.001   6.445  18.409  0.00  0.00    +0.000 A 
ATOM     11  S   UNL     1       2.652   7.945  17.637  0.00  0.00    +0.000 S 
ATOM     12  C   UNL     1       1.902   8.570  19.037  0.00  0.00    +0.000 A 
ATOM     13  C   UNL     1       1.923   7.674  20.078  0.00  0.00    +0.000 A 
ATOM     14  C   UNL     1       2.561   6.432  19.730  0.00  0.00    +0.000 A 
ATOM     15  C   UNL     1       2.686   5.308  20.708  0.00  0.00    +0.000 C 
ENDBRANCH   8  10
BRANCH   1  16
ATOM     16  C   UNL     1       1.966   3.470  17.857  0.00  0.00    +0.000 C 
ATOM     17  O   UNL     1       1.175   3.987  17.084  0.00  0.00    +0.000 OA
BRANCH  16  19
ATOM     18  C   UNL     1       0.567   2.537  19.498  0.00  0.00    +0.000 C 
ATOM     19  O   UNL     1       1.692   2.385  18.629  0.00  0.00    +0.000 OA
ENDBRANCH  16  19
ENDBRANCH   1  16
BRANCH   7  20
ATOM     20  C   UNL     1       5.743   6.706  16.705  0.00  0.00    +0.000 C 
ATOM     21  O   UNL     1       6.431   7.629  17.116  0.00  0.00    +0.000 OA
BRANCH  20  22
ATOM     22  O   UNL     1       5.400   6.527  15.404  0.00  0.00    +0.000 OA
ATOM     23  C   UNL     1       5.953   5.345  14.818  0.00  0.00    +0.000 C 
ENDBRANCH  20  22
ENDBRANCH   7  20
TORSDOF 5
ENDMDL
MODEL 8
REMARK VINA RESULT:      -5.8      2.490      4.494
REMARK  Name = 
REMARK  10 active torsions:
REMARK  status: ('A' for Active; 'I' for Inactive)
REMARK    1  A    between atoms: C_1  and  O_2
REMARK    2  A    between atoms: O_2  and  C_3
REMARK    3  A    between atoms: C_3  and  C_5
REMARK    4  A    between atoms: C_6  and  C_7
REMARK    5  A    between atoms: C_9  and  C_10
REMARK    6  A    between atoms: C_11  and  C_12
REMARK    7  A    between atoms: C_12  and  O_14
REMARK    8  A    between atoms: O_14  and  C_15
REMARK    9  A    between atoms: C_16  and  C_17
REMARK   10  A    between atoms: C_21  and  C_22
REMARK                            x       y       z     vdW  Elec       q    Type
REMARK                         _______ _______ _______ _____ _____    ______ ____
ROOT
ATOM      1  C   UNL     1       3.242   3.900  18.260  0.00  0.00    +0.000 C 
ATOM      2  C   UNL     1       4.203   3.131  18.830  0.00  0.00    +0.000 C 
ATOM      3  C   UNL     1       4.037   1.732  19.368  0.00  0.00    +0.000 C 
ATOM      4  N   UNL     1       5.488   3.641  18.966  0.00  0.00    +0.000 N 
ATOM      5  C   UNL     1       5.943   4.805  18.367  0.00  0.00    +0.000 C 
ATOM      6  C   UNL     1       7.425   5.059  18.452  0.00  0.00    +0.000 C 
ATOM      7  C   UNL     1       5.056   5.641  17.777  0.00  0.00    +0.000 C 
ATOM      8  C   UNL     1       3.552   5.359  17.879  0.00  0.00    +0.000 C 
ATOM      9  H   UNL     1       6.186   3.028  19.382  0.00  0.00    +0.000 HD
ENDROOT
BRANCH   8  10
ATOM     10  C   UNL     1       2.862   6.344  18.848  0.00  0.00    +0.000 A 
ATOM     11  S   UNL     1       2.567   5.835  20.466  0.00  0.00    +0.000 S 
ATOM     12  C   UNL     1       1.869   7.335  20.885  0.00  0.00    +0.000 A 
ATOM     13  C   UNL     1       1.843   8.206  19.824  0.00  0.00    +0.000 A 
ATOM     14  C   UNL     1       2.415   7.645  18.629  0.00  0.00    +0.000 A 
ATOM     15  C   UNL     1       2.501   8.422  17.355  0.00  0.00    +0.000 C 
ENDBRANCH   8  10
BRANCH   1  16
ATOM     16  C   UNL     1       1.850   3.425  18.022  0.00  0.00    +0.000 C 
ATOM     17  O   UNL     1       1.090   3.862  17.171  0.00  0.00    +0.000 OA
BRANCH  16  19
ATOM     18  C   UNL     1       0.639   2.848  19.950  0.00  0.00    +0.000 C 
ATOM     19  O   UNL     1       1.532   2.446  18.909  0.00  0.00    +0.000 OA
ENDBRANCH  16  19
ENDBRANCH   1  16
BRANCH   7  20
ATOM     20  C   UNL     1       5.502   6.856  17.044  0.00  0.00    +0.000 C 
ATOM     21  O   UNL     1       6.138   7.776  17.537  0.00  0.00    +0.000 OA
BRANCH  20  22
ATOM     22  O   UNL     1       5.167   6.775  15.731  0.00  0.00    +0.000 OA
ATOM     23  C   UNL     1       5.674   5.608  15.077  0.00  0.00    +0.000 C 
ENDBRANCH  20  22
ENDBRANCH   7  20
TORSDOF 5
ENDMDL
MODEL 9
REMARK VINA RESULT:      -5.8      1.982      2.656
REMARK  Name = 
REMARK  10 active torsions:
REMARK  status: ('A' for Active; 'I' for Inactive)
REMARK    1  A    between atoms: C_1  and  O_2
REMARK    2  A    between atoms: O_2  and  C_3
REMARK    3  A    between atoms: C_3  and  C_5
REMARK    4  A    between atoms: C_6  and  C_7
REMARK    5  A    between atoms: C_9  and  C_10
REMARK    6  A    between atoms: C_11  and  C_12
REMARK    7  A    between atoms: C_12  and  O_14
REMARK    8  A    between atoms: O_14  and  C_15
REMARK    9  A    between atoms: C_16  and  C_17
REMARK   10  A    between atoms: C_21  and  C_22
REMARK                            x       y       z     vdW  Elec       q    Type
REMARK                         _______ _______ _______ _____ _____    ______ ____
ROOT
ATOM      1  C   UNL     1       3.065   6.148  19.130  0.00  0.00    +0.000 C 
ATOM      2  C   UNL     1       3.074   7.115  18.181  0.00  0.00    +0.000 C 
ATOM      3  C   UNL     1       1.970   8.099  17.885  0.00  0.00    +0.000 C 
ATOM      4  N   UNL     1       4.187   7.251  17.360  0.00  0.00    +0.000 N 
ATOM      5  C   UNL     1       5.402   6.617  17.567  0.00  0.00    +0.000 C 
ATOM      6  C   UNL     1       6.545   7.076  16.700  0.00  0.00    +0.000 C 
ATOM      7  C   UNL     1       5.490   5.632  18.492  0.00  0.00    +0.000 C 
ATOM      8  C   UNL     1       4.229   5.143  19.213  0.00  0.00    +0.000 C 
ATOM      9  H   UNL     1       4.164   8.000  16.672  0.00  0.00    +0.000 HD
ENDROOT
BRANCH   8  10
ATOM     10  C   UNL     1       3.797   3.750  18.705  0.00  0.00    +0.000 A 
ATOM     11  S   UNL     1       2.985   3.644  17.190  0.00  0.00    +0.000 S 
ATOM     12  C   UNL     1       2.868   1.944  17.293  0.00  0.00    +0.000 A 
ATOM     13  C   UNL     1       3.417   1.459  18.455  0.00  0.00    +0.000 A 
ATOM     14  C   UNL     1       3.961   2.497  19.289  0.00  0.00    +0.000 A 
ATOM     15  C   UNL     1       4.619   2.194  20.597  0.00  0.00    +0.000 C 
ENDBRANCH   8  10
BRANCH   1  16
ATOM     16  C   UNL     1       1.943   5.957  20.092  0.00  0.00    +0.000 C 
ATOM     17  O   UNL     1       1.704   6.674  21.051  0.00  0.00    +0.000 OA
BRANCH  16  19
ATOM     18  C   UNL     1       1.084   3.896  20.823  0.00  0.00    +0.000 C 
ATOM     19  O   UNL     1       1.232   4.846  19.765  0.00  0.00    +0.000 OA
ENDBRANCH  16  19
ENDBRANCH   1  16
BRANCH   7  20
ATOM     20  C   UNL     1       6.790   4.983  18.814  0.00  0.00    +0.000 C 
ATOM     21  O   UNL     1       7.466   4.343  18.023  0.00  0.00    +0.000 OA
BRANCH  20  22
ATOM     22  O   UNL     1       7.158   5.255  20.092  0.00  0.00    +0.000 OA
ATOM     23  C   UNL     1       8.560   5.489  20.251  0.00  0.00    +0.000 C 
ENDBRANCH  20  22
ENDBRANCH   7  20
TORSDOF 5
ENDMDL
