MODEL 1
REMARK VINA RESULT:      -7.3      0.000      0.000
REMARK  Name = 
REMARK  4 active torsions:
REMARK  status: ('A' for Active; 'I' for Inactive)
REMARK    1  A    between atoms: C_1  and  N_2
REMARK    2  A    between atoms: C_3  and  C_5
REMARK    3  A    between atoms: C_9  and  C_10
REMARK    4  A    between atoms: N_12  and  C_13
REMARK                            x       y       z     vdW  Elec       q    Type
REMARK                         _______ _______ _______ _____ _____    ______ ____
ROOT
ATOM      1  C   UNL     1       4.834   3.810  19.156  0.00  0.00    +0.000 A 
ATOM      2  N   UNL     1       5.169   2.596  19.721  0.00  0.00    +0.000 N 
ATOM      3  C   UNL     1       4.094   2.128  20.415  0.00  0.00    +0.000 A 
ATOM      4  N   UNL     1       3.046   2.904  20.259  0.00  0.00    +0.000 NA
ATOM      5  C   UNL     1       3.493   3.977  19.500  0.00  0.00    +0.000 A 
ATOM      6  H   UNL     1       6.084   2.169  19.648  0.00  0.00    +0.000 HD
ENDROOT
BRANCH   1   9
ATOM      7  C   UNL     1       7.167   4.627  16.329  0.00  0.00    +0.000 C 
ATOM      8  N   UNL     1       6.222   3.996  17.210  0.00  0.00    +0.000 N 
ATOM      9  C   UNL     1       5.793   4.562  18.381  0.00  0.00    +0.000 C 
ATOM     10  O   UNL     1       6.164   5.676  18.738  0.00  0.00    +0.000 OA
ATOM     11  H   UNL     1       5.940   3.043  16.984  0.00  0.00    +0.000 HD
ENDBRANCH   1   9
BRANCH   5  12
ATOM     12  C   UNL     1       2.634   5.099  19.134  0.00  0.00    +0.000 C 
ATOM     13  O   UNL     1       1.662   4.933  18.403  0.00  0.00    +0.000 OA
ATOM     14  N   UNL     1       3.030   6.324  19.646  0.00  0.00    +0.000 N 
ATOM     15  H   UNL     1       3.966   6.352  20.040  0.00  0.00    +0.000 HD
BRANCH  14  16
ATOM     16  C   UNL     1       2.302   7.523  19.477  0.00  0.00    +0.000 A 
ATOM     17  C   UNL     1       1.556   8.100  20.517  0.00  0.00    +0.000 A 
ATOM     18  C   UNL     1       0.752   9.219  20.295  0.00  0.00    +0.000 A 
ATOM     19  C   UNL     1       0.705   9.782  19.028  0.00  0.00    +0.000 A 
ATOM     20 CL   UNL     1      -0.340  11.116  18.731  0.00  0.00    +0.000 Cl
ATOM     21  C   UNL     1       1.496   9.267  18.000  0.00  0.00    +0.000 A 
ATOM     22  C   UNL     1       2.306   8.146  18.228  0.00  0.00    +0.000 A 
ENDBRANCH  14  16
ENDBRANCH   5  12
TORSDOF 3
ENDMDL
MODEL 2
REMARK VINA RESULT:      -7.2      0.554      1.229
REMARK  Name = 
REMARK  4 active torsions:
REMARK  status: ('A' for Active; 'I' for Inactive)
REMARK    1  A    between atoms: C_1  and  N_2
REMARK    2  A    between atoms: C_3  and  C_5
REMARK    3  A    between atoms: C_9  and  C_10
REMARK    4  A    between atoms: N_12  and  C_13
REMARK                            x       y       z     vdW  Elec       q    Type
REMARK                         _______ _______ _______ _____ _____    ______ ____
ROOT
ATOM      1  C   UNL     1       4.741   3.770  19.038  0.00  0.00    +0.000 A 
ATOM      2  N   UNL     1       5.243   2.581  19.526  0.00  0.00    +0.000 N 
ATOM      3  C   UNL     1       4.352   2.067  20.420  0.00  0.00    +0.000 A 
ATOM      4  N   UNL     1       3.254   2.788  20.474  0.00  0.00    +0.000 NA
ATOM      5  C   UNL     1       3.487   3.873  19.640  0.00  0.00    +0.000 A 
ATOM      6  H   UNL     1       6.146   2.199  19.274  0.00  0.00    +0.000 HD
ENDROOT
BRANCH   1   9
ATOM      7  C   UNL     1       7.059   4.526  16.182  0.00  0.00    +0.000 C 
ATOM      8  N   UNL     1       6.266   3.878  17.191  0.00  0.00    +0.000 N 
ATOM      9  C   UNL     1       5.488   4.561  18.089  0.00  0.00    +0.000 C 
ATOM     10  O   UNL     1       5.387   5.784  18.063  0.00  0.00    +0.000 OA
ATOM     11  H   UNL     1       6.372   2.869  17.289  0.00  0.00    +0.000 HD
ENDBRANCH   1   9
BRANCH   5  12
ATOM     12  C   UNL     1       2.516   4.947  19.450  0.00  0.00    +0.000 C 
ATOM     13  O   UNL     1       1.401   4.711  18.992  0.00  0.00    +0.000 OA
ATOM     14  N   UNL     1       2.972   6.209  19.792  0.00  0.00    +0.000 N 
ATOM     15  H   UNL     1       3.975   6.287  19.938  0.00  0.00    +0.000 HD
BRANCH  14  16
ATOM     16  C   UNL     1       2.173   7.374  19.757  0.00  0.00    +0.000 A 
ATOM     17  C   UNL     1       2.111   8.206  18.628  0.00  0.00    +0.000 A 
ATOM     18  C   UNL     1       1.409   9.411  18.657  0.00  0.00    +0.000 A 
ATOM     19  C   UNL     1       0.744   9.784  19.817  0.00  0.00    +0.000 A 
ATOM     20 CL   UNL     1      -0.061  11.303  19.883  0.00  0.00    +0.000 Cl
ATOM     21  C   UNL     1       0.735   8.936  20.925  0.00  0.00    +0.000 A 
ATOM     22  C   UNL     1       1.438   7.723  20.890  0.00  0.00    +0.000 A 
ENDBRANCH  14  16
ENDBRANCH   5  12
TORSDOF 3
ENDMDL
MODEL 3
REMARK VINA RESULT:      -7.1      3.775      5.272
REMARK  Name = 
REMARK  4 active torsions:
REMARK  status: ('A' for Active; 'I' for Inactive)
REMARK    1  A    between atoms: C_1  and  N_2
REMARK    2  A    between atoms: C_3  and  C_5
REMARK    3  A    between atoms: C_9  and  C_10
REMARK    4  A    between atoms: N_12  and  C_13
REMARK                            x       y       z     vdW  Elec       q    Type
REMARK                         _______ _______ _______ _____ _____    ______ ____
ROOT
ATOM      1  C   UNL     1       7.152   5.768  16.705  0.00  0.00    +0.000 A 
ATOM      2  N   UNL     1       7.521   5.782  15.375  0.00  0.00    +0.000 N 
ATOM      3  C   UNL     1       6.932   4.726  14.748  0.00  0.00    +0.000 A 
ATOM      4  N   UNL     1       6.121   4.080  15.554  0.00  0.00    +0.000 NA
ATOM      5  C   UNL     1       6.264   4.695  16.790  0.00  0.00    +0.000 A 
ATOM      6  H   UNL     1       8.160   6.456  14.970  0.00  0.00    +0.000 HD
ENDROOT
BRANCH   1   9
ATOM      7  C   UNL     1       8.156   9.149  17.992  0.00  0.00    +0.000 C 
ATOM      8  N   UNL     1       7.691   8.054  17.186  0.00  0.00    +0.000 N 
ATOM      9  C   UNL     1       7.653   6.758  17.628  0.00  0.00    +0.000 C 
ATOM     10  O   UNL     1       7.981   6.452  18.771  0.00  0.00    +0.000 OA
ATOM     11  H   UNL     1       7.472   8.254  16.211  0.00  0.00    +0.000 HD
ENDBRANCH   1   9
BRANCH   5  12
ATOM     12  C   UNL     1       5.556   4.246  17.985  0.00  0.00    +0.000 C 
ATOM     13  O   UNL     1       6.170   3.971  19.011  0.00  0.00    +0.000 OA
ATOM     14  N   UNL     1       4.183   4.133  17.838  0.00  0.00    +0.000 N 
ATOM     15  H   UNL     1       3.840   4.172  16.882  0.00  0.00    +0.000 HD
BRANCH  14  16
ATOM     16  C   UNL     1       3.302   3.787  18.887  0.00  0.00    +0.000 A 
ATOM     17  C   UNL     1       2.917   4.706  19.876  0.00  0.00    +0.000 A 
ATOM     18  C   UNL     1       2.142   4.311  20.966  0.00  0.00    +0.000 A 
ATOM     19  C   UNL     1       1.726   2.991  21.063  0.00  0.00    +0.000 A 
ATOM     20 CL   UNL     1       0.831   2.481  22.441  0.00  0.00    +0.000 Cl
ATOM     21  C   UNL     1       2.037   2.080  20.052  0.00  0.00    +0.000 A 
ATOM     22  C   UNL     1       2.813   2.482  18.956  0.00  0.00    +0.000 A 
ENDBRANCH  14  16
ENDBRANCH   5  12
TORSDOF 3
ENDMDL
MODEL 4
REMARK VINA RESULT:      -6.9      4.163      5.468
REMARK  Name = 
REMARK  4 active torsions:
REMARK  status: ('A' for Active; 'I' for Inactive)
REMARK    1  A    between atoms: C_1  and  N_2
REMARK    2  A    between atoms: C_3  and  C_5
REMARK    3  A    between atoms: C_9  and  C_10
REMARK    4  A    between atoms: N_12  and  C_13
REMARK                            x       y       z     vdW  Elec       q    Type
REMARK                         _______ _______ _______ _____ _____    ______ ____
ROOT
ATOM      1  C   UNL     1       6.923   5.683  16.528  0.00  0.00    +0.000 A 
ATOM      2  N   UNL     1       7.426   5.483  15.259  0.00  0.00    +0.000 N 
ATOM      3  C   UNL     1       6.674   4.531  14.638  0.00  0.00    +0.000 A 
ATOM      4  N   UNL     1       5.651   4.168  15.378  0.00  0.00    +0.000 NA
ATOM      5  C   UNL     1       5.802   4.853  16.575  0.00  0.00    +0.000 A 
ATOM      6  H   UNL     1       8.245   5.952  14.892  0.00  0.00    +0.000 HD
ENDROOT
BRANCH   1   9
ATOM      7  C   UNL     1       8.143   8.981  17.846  0.00  0.00    +0.000 C 
ATOM      8  N   UNL     1       7.570   7.933  17.046  0.00  0.00    +0.000 N 
ATOM      9  C   UNL     1       7.540   6.620  17.436  0.00  0.00    +0.000 C 
ATOM     10  O   UNL     1       7.973   6.257  18.527  0.00  0.00    +0.000 OA
ATOM     11  H   UNL     1       7.260   8.181  16.107  0.00  0.00    +0.000 HD
ENDBRANCH   1   9
BRANCH   5  12
ATOM     12  C   UNL     1       4.883   4.695  17.698  0.00  0.00    +0.000 C 
ATOM     13  O   UNL     1       4.466   5.675  18.310  0.00  0.00    +0.000 OA
ATOM     14  N   UNL     1       4.570   3.383  18.012  0.00  0.00    +0.000 N 
ATOM     15  H   UNL     1       5.157   2.677  17.576  0.00  0.00    +0.000 HD
BRANCH  14  16
ATOM     16  C   UNL     1       3.644   3.009  19.012  0.00  0.00    +0.000 A 
ATOM     17  C   UNL     1       2.257   3.069  18.809  0.00  0.00    +0.000 A 
ATOM     18  C   UNL     1       1.363   2.807  19.848  0.00  0.00    +0.000 A 
ATOM     19  C   UNL     1       1.855   2.461  21.098  0.00  0.00    +0.000 A 
ATOM     20 CL   UNL     1       0.761   2.209  22.402  0.00  0.00    +0.000 Cl
ATOM     21  C   UNL     1       3.230   2.325  21.300  0.00  0.00    +0.000 A 
ATOM     22  C   UNL     1       4.124   2.584  20.251  0.00  0.00    +0.000 A 
ENDBRANCH  14  16
ENDBRANCH   5  12
TORSDOF 3
ENDMDL
MODEL 5
REMARK VINA RESULT:      -6.8      3.647      5.298
REMARK  Name = 
REMARK  4 active torsions:
REMARK  status: ('A' for Active; 'I' for Inactive)
REMARK    1  A    between atoms: C_1  and  N_2
REMARK    2  A    between atoms: C_3  and  C_5
REMARK    3  A    between atoms: C_9  and  C_10
REMARK    4  A    between atoms: N_12  and  C_13
REMARK                            x       y       z     vdW  Elec       q    Type
REMARK                         _______ _______ _______ _____ _____    ______ ____
ROOT
ATOM      1  C   UNL     1       6.854   5.265  15.961  0.00  0.00    +0.000 A 
ATOM      2  N   UNL     1       7.538   5.253  14.762  0.00  0.00    +0.000 N 
ATOM      3  C   UNL     1       6.954   4.340  13.937  0.00  0.00    +0.000 A 
ATOM      4  N   UNL     1       5.872   3.827  14.477  0.00  0.00    +0.000 NA
ATOM      5  C   UNL     1       5.805   4.369  15.753  0.00  0.00    +0.000 A 
ATOM      6  H   UNL     1       8.361   5.812  14.572  0.00  0.00    +0.000 HD
ENDROOT
BRANCH   1   9
ATOM      7  C   UNL     1       7.616   8.446  17.805  0.00  0.00    +0.000 C 
ATOM      8  N   UNL     1       7.240   7.470  16.819  0.00  0.00    +0.000 N 
ATOM      9  C   UNL     1       7.268   6.120  17.048  0.00  0.00    +0.000 C 
ATOM     10  O   UNL     1       7.583   5.653  18.139  0.00  0.00    +0.000 OA
ATOM     11  H   UNL     1       7.036   7.813  15.880  0.00  0.00    +0.000 HD
ENDBRANCH   1   9
BRANCH   5  12
ATOM     12  C   UNL     1       4.758   4.018  16.708  0.00  0.00    +0.000 C 
ATOM     13  O   UNL     1       3.671   3.600  16.320  0.00  0.00    +0.000 OA
ATOM     14  N   UNL     1       5.089   4.229  18.036  0.00  0.00    +0.000 N 
ATOM     15  H   UNL     1       5.924   4.785  18.196  0.00  0.00    +0.000 HD
BRANCH  14  16
ATOM     16  C   UNL     1       4.252   3.888  19.122  0.00  0.00    +0.000 A 
ATOM     17  C   UNL     1       4.275   2.616  19.715  0.00  0.00    +0.000 A 
ATOM     18  C   UNL     1       3.359   2.265  20.708  0.00  0.00    +0.000 A 
ATOM     19  C   UNL     1       2.422   3.198  21.130  0.00  0.00    +0.000 A 
ATOM     20 CL   UNL     1       1.244   2.748  22.300  0.00  0.00    +0.000 Cl
ATOM     21  C   UNL     1       2.431   4.491  20.604  0.00  0.00    +0.000 A 
ATOM     22  C   UNL     1       3.357   4.840  19.610  0.00  0.00    +0.000 A 
ENDBRANCH  14  16
ENDBRANCH   5  12
TORSDOF 3
ENDMDL
MODEL 6
REMARK VINA RESULT:      -6.8      1.329      1.358
REMARK  Name = 
REMARK  4 active torsions:
REMARK  status: ('A' for Active; 'I' for Inactive)
REMARK    1  A    between atoms: C_1  and  N_2
REMARK    2  A    between atoms: C_3  and  C_5
REMARK    3  A    between atoms: C_9  and  C_10
REMARK    4  A    between atoms: N_12  and  C_13
REMARK                            x       y       z     vdW  Elec       q    Type
REMARK                         _______ _______ _______ _____ _____    ______ ____
ROOT
ATOM      1  C   UNL     1       5.204   4.533  19.243  0.00  0.00    +0.000 A 
ATOM      2  N   UNL     1       5.326   3.175  19.457  0.00  0.00    +0.000 N 
ATOM      3  C   UNL     1       4.079   2.643  19.600  0.00  0.00    +0.000 A 
ATOM      4  N   UNL     1       3.146   3.544  19.392  0.00  0.00    +0.000 NA
ATOM      5  C   UNL     1       3.825   4.738  19.195  0.00  0.00    +0.000 A 
ATOM      6  H   UNL     1       6.211   2.689  19.533  0.00  0.00    +0.000 HD
ENDROOT
BRANCH   1   9
ATOM      7  C   UNL     1       7.508   7.052  17.677  0.00  0.00    +0.000 C 
ATOM      8  N   UNL     1       6.417   6.160  17.967  0.00  0.00    +0.000 N 
ATOM      9  C   UNL     1       6.370   5.370  19.085  0.00  0.00    +0.000 C 
ATOM     10  O   UNL     1       7.249   5.402  19.941  0.00  0.00    +0.000 OA
ATOM     11  H   UNL     1       5.700   6.055  17.251  0.00  0.00    +0.000 HD
ENDBRANCH   1   9
BRANCH   5  12
ATOM     12  C   UNL     1       3.143   6.009  18.969  0.00  0.00    +0.000 C 
ATOM     13  O   UNL     1       3.108   6.511  17.849  0.00  0.00    +0.000 OA
ATOM     14  N   UNL     1       2.591   6.582  20.103  0.00  0.00    +0.000 N 
ATOM     15  H   UNL     1       2.888   6.177  20.986  0.00  0.00    +0.000 HD
BRANCH  14  16
ATOM     16  C   UNL     1       1.825   7.769  20.095  0.00  0.00    +0.000 A 
ATOM     17  C   UNL     1       1.036   8.159  21.189  0.00  0.00    +0.000 A 
ATOM     18  C   UNL     1       0.198   9.271  21.115  0.00  0.00    +0.000 A 
ATOM     19  C   UNL     1       0.159  10.018  19.946  0.00  0.00    +0.000 A 
ATOM     20 CL   UNL     1      -0.926  11.347  19.822  0.00  0.00    +0.000 Cl
ATOM     21  C   UNL     1       0.991   9.688  18.874  0.00  0.00    +0.000 A 
ATOM     22  C   UNL     1       1.835   8.572  18.954  0.00  0.00    +0.000 A 
ENDBRANCH  14  16
ENDBRANCH   5  12
TORSDOF 3
ENDMDL
MODEL 7
REMARK VINA RESULT:      -6.8      1.557      3.421
REMARK  Name = 
REMARK  4 active torsions:
REMARK  status: ('A' for Active; 'I' for Inactive)
REMARK    1  A    between atoms: C_1  and  N_2
REMARK    2  A    between atoms: C_3  and  C_5
REMARK    3  A    between atoms: C_9  and  C_10
REMARK    4  A    between atoms: N_12  and  C_13
REMARK                            x       y       z     vdW  Elec       q    Type
REMARK                         _______ _______ _______ _____ _____    ______ ____
ROOT
ATOM      1  C   UNL     1       4.961   3.940  17.002  0.00  0.00    +0.000 A 
ATOM      2  N   UNL     1       5.724   3.259  16.074  0.00  0.00    +0.000 N 
ATOM      3  C   UNL     1       6.245   4.160  15.194  0.00  0.00    +0.000 A 
ATOM      4  N   UNL     1       5.958   5.394  15.542  0.00  0.00    +0.000 NA
ATOM      5  C   UNL     1       5.133   5.279  16.653  0.00  0.00    +0.000 A 
ATOM      6  H   UNL     1       5.827   2.252  16.052  0.00  0.00    +0.000 HD
ENDROOT
BRANCH   1   9
ATOM      7  C   UNL     1       4.433   2.127  20.247  0.00  0.00    +0.000 C 
ATOM      8  N   UNL     1       4.996   2.829  19.126  0.00  0.00    +0.000 N 
ATOM      9  C   UNL     1       4.256   3.237  18.047  0.00  0.00    +0.000 C 
ATOM     10  O   UNL     1       3.043   3.061  17.987  0.00  0.00    +0.000 OA
ATOM     11  H   UNL     1       6.009   2.937  19.106  0.00  0.00    +0.000 HD
ENDBRANCH   1   9
BRANCH   5  12
ATOM     12  C   UNL     1       4.552   6.436  17.329  0.00  0.00    +0.000 C 
ATOM     13  O   UNL     1       5.195   7.475  17.458  0.00  0.00    +0.000 OA
ATOM     14  N   UNL     1       3.272   6.240  17.820  0.00  0.00    +0.000 N 
ATOM     15  H   UNL     1       2.956   5.274  17.843  0.00  0.00    +0.000 HD
BRANCH  14  16
ATOM     16  C   UNL     1       2.500   7.248  18.440  0.00  0.00    +0.000 A 
ATOM     17  C   UNL     1       2.027   8.367  17.738  0.00  0.00    +0.000 A 
ATOM     18  C   UNL     1       1.368   9.406  18.396  0.00  0.00    +0.000 A 
ATOM     19  C   UNL     1       1.159   9.322  19.765  0.00  0.00    +0.000 A 
ATOM     20 CL   UNL     1       0.413  10.632  20.593  0.00  0.00    +0.000 Cl
ATOM     21  C   UNL     1       1.559   8.183  20.467  0.00  0.00    +0.000 A 
ATOM     22  C   UNL     1       2.216   7.139  19.802  0.00  0.00    +0.000 A 
ENDBRANCH  14  16
ENDBRANCH   5  12
TORSDOF 3
ENDMDL
MODEL 8
REMARK VINA RESULT:      -6.8      3.167      5.874
REMARK  Name = 
REMARK  4 active torsions:
REMARK  status: ('A' for Active; 'I' for Inactive)
REMARK    1  A    between atoms: C_1  and  N_2
REMARK    2  A    between atoms: C_3  and  C_5
REMARK    3  A    between atoms: C_9  and  C_10
REMARK    4  A    between atoms: N_12  and  C_13
REMARK                            x       y       z     vdW  Elec       q    Type
REMARK                         _______ _______ _______ _____ _____    ______ ____
ROOT
ATOM      1  C   UNL     1       2.386   4.776  20.215  0.00  0.00    +0.000 A 
ATOM      2  N   UNL     1       1.517   4.095  21.044  0.00  0.00    +0.000 N 
ATOM      3  C   UNL     1       1.892   2.786  21.087  0.00  0.00    +0.000 A 
ATOM      4  N   UNL     1       3.008   2.583  20.423  0.00  0.00    +0.000 NA
ATOM      5  C   UNL     1       3.320   3.807  19.847  0.00  0.00    +0.000 A 
ATOM      6  H   UNL     1       0.717   4.519  21.497  0.00  0.00    +0.000 HD
ENDROOT
BRANCH   1   9
ATOM      7  C   UNL     1       1.440   8.355  20.843  0.00  0.00    +0.000 C 
ATOM      8  N   UNL     1       1.664   6.939  20.953  0.00  0.00    +0.000 N 
ATOM      9  C   UNL     1       2.217   6.185  19.952  0.00  0.00    +0.000 C 
ATOM     10  O   UNL     1       2.598   6.685  18.898  0.00  0.00    +0.000 OA
ATOM     11  H   UNL     1       1.302   6.475  21.785  0.00  0.00    +0.000 HD
ENDBRANCH   1   9
BRANCH   5  12
ATOM     12  C   UNL     1       4.481   4.001  18.983  0.00  0.00    +0.000 C 
ATOM     13  O   UNL     1       5.619   3.856  19.420  0.00  0.00    +0.000 OA
ATOM     14  N   UNL     1       4.182   4.382  17.685  0.00  0.00    +0.000 N 
ATOM     15  H   UNL     1       3.224   4.682  17.527  0.00  0.00    +0.000 HD
BRANCH  14  16
ATOM     16  C   UNL     1       5.149   4.550  16.668  0.00  0.00    +0.000 A 
ATOM     17  C   UNL     1       6.083   5.597  16.688  0.00  0.00    +0.000 A 
ATOM     18  C   UNL     1       6.950   5.811  15.617  0.00  0.00    +0.000 A 
ATOM     19  C   UNL     1       6.902   4.961  14.521  0.00  0.00    +0.000 A 
ATOM     20 CL   UNL     1       7.917   5.264  13.166  0.00  0.00    +0.000 Cl
ATOM     21  C   UNL     1       6.030   3.871  14.515  0.00  0.00    +0.000 A 
ATOM     22  C   UNL     1       5.163   3.657  15.597  0.00  0.00    +0.000 A 
ENDBRANCH  14  16
ENDBRANCH   5  12
TORSDOF 3
ENDMDL
MODEL 9
REMARK VINA RESULT:      -6.8      1.102      1.558
REMARK  Name = 
REMARK  4 active torsions:
REMARK  status: ('A' for Active; 'I' for Inactive)
REMARK    1  A    between atoms: C_1  and  N_2
REMARK    2  A    between atoms: C_3  and  C_5
REMARK    3  A    between atoms: C_9  and  C_10
REMARK    4  A    between atoms: N_12  and  C_13
REMARK                            x       y       z     vdW  Elec       q    Type
REMARK                         _______ _______ _______ _____ _____    ______ ____
ROOT
ATOM      1  C   UNL     1       4.947   4.039  18.896  0.00  0.00    +0.000 A 
ATOM      2  N   UNL     1       5.267   2.820  19.459  0.00  0.00    +0.000 N 
ATOM      3  C   UNL     1       4.221   2.409  20.230  0.00  0.00    +0.000 A 
ATOM      4  N   UNL     1       3.199   3.228  20.129  0.00  0.00    +0.000 NA
ATOM      5  C   UNL     1       3.640   4.269  19.324  0.00  0.00    +0.000 A 
ATOM      6  H   UNL     1       6.156   2.352  19.334  0.00  0.00    +0.000 HD
ENDROOT
BRANCH   1   9
ATOM      7  C   UNL     1       7.437   6.648  17.850  0.00  0.00    +0.000 C 
ATOM      8  N   UNL     1       6.479   5.854  18.570  0.00  0.00    +0.000 N 
ATOM      9  C   UNL     1       5.884   4.737  18.047  0.00  0.00    +0.000 C 
ATOM     10  O   UNL     1       6.164   4.315  16.929  0.00  0.00    +0.000 OA
ATOM     11  H   UNL     1       6.169   6.207  19.476  0.00  0.00    +0.000 HD
ENDBRANCH   1   9
BRANCH   5  12
ATOM     12  C   UNL     1       2.807   5.422  18.995  0.00  0.00    +0.000 C 
ATOM     13  O   UNL     1       2.198   5.473  17.930  0.00  0.00    +0.000 OA
ATOM     14  N   UNL     1       2.801   6.425  19.951  0.00  0.00    +0.000 N 
ATOM     15  H   UNL     1       3.518   6.352  20.666  0.00  0.00    +0.000 HD
BRANCH  14  16
ATOM     16  C   UNL     1       2.006   7.591  19.868  0.00  0.00    +0.000 A 
ATOM     17  C   UNL     1       2.013   8.423  18.738  0.00  0.00    +0.000 A 
ATOM     18  C   UNL     1       1.312   9.629  18.725  0.00  0.00    +0.000 A 
ATOM     19  C   UNL     1       0.578  10.001  19.842  0.00  0.00    +0.000 A 
ATOM     20 CL   UNL     1      -0.229  11.521  19.860  0.00  0.00    +0.000 Cl
ATOM     21  C   UNL     1       0.500   9.152  20.947  0.00  0.00    +0.000 A 
ATOM     22  C   UNL     1       1.203   7.939  20.953  0.00  0.00    +0.000 A 
ENDBRANCH  14  16
ENDBRANCH   5  12
TORSDOF 3
ENDMDL
