MODEL 1
REMARK VINA RESULT:      -7.2      0.000      0.000
REMARK  Name = 
REMARK  3 active torsions:
REMARK  status: ('A' for Active; 'I' for Inactive)
REMARK    1  A    between atoms: C_1  and  C_2
REMARK    2  A    between atoms: N_13  and  C_14
REMARK    3  A    between atoms: C_15  and  N_16
REMARK                            x       y       z     vdW  Elec       q    Type
REMARK                         _______ _______ _______ _____ _____    ______ ____
ROOT
ATOM      1  C   UNL     1       7.249   4.796  14.165  0.00  0.00    +0.000 C 
ATOM      2  C   UNL     1       6.696   4.595  15.546  0.00  0.00    +0.000 A 
ATOM      3  C   UNL     1       5.367   4.214  15.712  0.00  0.00    +0.000 A 
ATOM      4  C   UNL     1       4.948   4.065  17.035  0.00  0.00    +0.000 A 
ATOM      5  C   UNL     1       5.802   4.286  18.107  0.00  0.00    +0.000 A 
ATOM      6  N   UNL     1       5.144   4.055  19.296  0.00  0.00    +0.000 NA
ATOM      7  C   UNL     1       3.911   3.685  18.975  0.00  0.00    +0.000 A 
ATOM      8  N   UNL     1       2.952   3.316  19.924  0.00  0.00    +0.000 N 
ATOM      9  N   UNL     1       3.188   3.444  21.254  0.00  0.00    +0.000 NA
ATOM     10  C   UNL     1       2.050   2.990  21.783  0.00  0.00    +0.000 A 
ATOM     11  C   UNL     1       1.184   2.582  20.768  0.00  0.00    +0.000 A 
ATOM     12  N   UNL     1       1.752   2.784  19.577  0.00  0.00    +0.000 NA
ATOM     13  N   UNL     1       3.737   3.718  17.606  0.00  0.00    +0.000 N 
ATOM     14  C   UNL     1       2.552   3.500  16.810  0.00  0.00    +0.000 C 
ATOM     15  C   UNL     1       7.137   4.673  17.856  0.00  0.00    +0.000 A 
ATOM     16  N   UNL     1       7.558   4.804  16.572  0.00  0.00    +0.000 NA
ENDROOT
BRANCH  15  17
ATOM     17  N   UNL     1       8.066   4.901  18.865  0.00  0.00    +0.000 N 
ATOM     18  H   UNL     1       8.922   5.318  18.516  0.00  0.00    +0.000 HD
ATOM     19  H   UNL     1       7.629   5.330  19.669  0.00  0.00    +0.000 HD
ENDBRANCH  15  17
TORSDOF 1
ENDMDL
MODEL 2
REMARK VINA RESULT:      -6.4      1.207      1.207
REMARK  Name = 
REMARK  3 active torsions:
REMARK  status: ('A' for Active; 'I' for Inactive)
REMARK    1  A    between atoms: C_1  and  C_2
REMARK    2  A    between atoms: N_13  and  C_14
REMARK    3  A    between atoms: C_15  and  N_16
REMARK                            x       y       z     vdW  Elec       q    Type
REMARK                         _______ _______ _______ _____ _____    ______ ____
ROOT
ATOM      1  C   UNL     1       7.298   4.630  13.543  0.00  0.00    +0.000 C 
ATOM      2  C   UNL     1       6.667   4.835  14.889  0.00  0.00    +0.000 A 
ATOM      3  C   UNL     1       5.496   4.156  15.218  0.00  0.00    +0.000 A 
ATOM      4  C   UNL     1       4.986   4.425  16.488  0.00  0.00    +0.000 A 
ATOM      5  C   UNL     1       5.604   5.311  17.358  0.00  0.00    +0.000 A 
ATOM      6  N   UNL     1       4.905   5.381  18.545  0.00  0.00    +0.000 NA
ATOM      7  C   UNL     1       3.881   4.547  18.424  0.00  0.00    +0.000 A 
ATOM      8  N   UNL     1       2.966   4.307  19.454  0.00  0.00    +0.000 N 
ATOM      9  N   UNL     1       2.995   5.022  20.607  0.00  0.00    +0.000 NA
ATOM     10  C   UNL     1       1.983   4.486  21.292  0.00  0.00    +0.000 A 
ATOM     11  C   UNL     1       1.400   3.457  20.551  0.00  0.00    +0.000 A 
ATOM     12  N   UNL     1       2.022   3.333  19.377  0.00  0.00    +0.000 NA
ATOM     13  N   UNL     1       3.869   3.974  17.168  0.00  0.00    +0.000 N 
ATOM     14  C   UNL     1       2.902   3.097  16.552  0.00  0.00    +0.000 C 
ATOM     15  C   UNL     1       6.789   5.964  16.951  0.00  0.00    +0.000 A 
ATOM     16  N   UNL     1       7.303   5.696  15.723  0.00  0.00    +0.000 NA
ENDROOT
BRANCH  15  17
ATOM     17  N   UNL     1       7.485   6.855  17.760  0.00  0.00    +0.000 N 
ATOM     18  H   UNL     1       8.163   7.402  17.239  0.00  0.00    +0.000 HD
ATOM     19  H   UNL     1       6.856   7.349  18.377  0.00  0.00    +0.000 HD
ENDBRANCH  15  17
TORSDOF 1
ENDMDL
MODEL 3
REMARK VINA RESULT:      -6.3      2.280      2.827
REMARK  Name = 
REMARK  3 active torsions:
REMARK  status: ('A' for Active; 'I' for Inactive)
REMARK    1  A    between atoms: C_1  and  C_2
REMARK    2  A    between atoms: N_13  and  C_14
REMARK    3  A    between atoms: C_15  and  N_16
REMARK                            x       y       z     vdW  Elec       q    Type
REMARK                         _______ _______ _______ _____ _____    ______ ____
ROOT
ATOM      1  C   UNL     1       8.306   9.037  17.492  0.00  0.00    +0.000 C 
ATOM      2  C   UNL     1       7.680   7.752  17.949  0.00  0.00    +0.000 A 
ATOM      3  C   UNL     1       6.447   7.359  17.434  0.00  0.00    +0.000 A 
ATOM      4  C   UNL     1       5.947   6.156  17.931  0.00  0.00    +0.000 A 
ATOM      5  C   UNL     1       6.634   5.408  18.877  0.00  0.00    +0.000 A 
ATOM      6  N   UNL     1       5.929   4.263  19.184  0.00  0.00    +0.000 NA
ATOM      7  C   UNL     1       4.833   4.288  18.436  0.00  0.00    +0.000 A 
ATOM      8  N   UNL     1       3.886   3.259  18.434  0.00  0.00    +0.000 N 
ATOM      9  N   UNL     1       3.966   2.222  19.306  0.00  0.00    +0.000 NA
ATOM     10  C   UNL     1       2.901   1.493  18.970  0.00  0.00    +0.000 A 
ATOM     11  C   UNL     1       2.234   2.092  17.900  0.00  0.00    +0.000 A 
ATOM     12  N   UNL     1       2.857   3.219  17.549  0.00  0.00    +0.000 NA
ATOM     13  N   UNL     1       4.784   5.447  17.688  0.00  0.00    +0.000 N 
ATOM     14  C   UNL     1       3.748   5.955  16.820  0.00  0.00    +0.000 C 
ATOM     15  C   UNL     1       7.880   5.874  19.354  0.00  0.00    +0.000 A 
ATOM     16  N   UNL     1       8.382   7.036  18.862  0.00  0.00    +0.000 NA
ENDROOT
BRANCH  15  17
ATOM     17  N   UNL     1       8.644   5.185  20.288  0.00  0.00    +0.000 N 
ATOM     18  H   UNL     1       8.090   4.542  20.843  0.00  0.00    +0.000 HD
ATOM     19  H   UNL     1       9.495   4.833  19.870  0.00  0.00    +0.000 HD
ENDBRANCH  15  17
TORSDOF 1
ENDMDL
MODEL 4
REMARK VINA RESULT:      -6.3      1.965      6.121
REMARK  Name = 
REMARK  3 active torsions:
REMARK  status: ('A' for Active; 'I' for Inactive)
REMARK    1  A    between atoms: C_1  and  C_2
REMARK    2  A    between atoms: N_13  and  C_14
REMARK    3  A    between atoms: C_15  and  N_16
REMARK                            x       y       z     vdW  Elec       q    Type
REMARK                         _______ _______ _______ _____ _____    ______ ____
ROOT
ATOM      1  C   UNL     1       2.154   5.190  21.111  0.00  0.00    +0.000 C 
ATOM      2  C   UNL     1       2.741   4.731  19.808  0.00  0.00    +0.000 A 
ATOM      3  C   UNL     1       3.667   5.532  19.143  0.00  0.00    +0.000 A 
ATOM      4  C   UNL     1       4.144   5.019  17.937  0.00  0.00    +0.000 A 
ATOM      5  C   UNL     1       3.719   3.796  17.437  0.00  0.00    +0.000 A 
ATOM      6  N   UNL     1       4.354   3.522  16.244  0.00  0.00    +0.000 NA
ATOM      7  C   UNL     1       5.167   4.544  16.011  0.00  0.00    +0.000 A 
ATOM      8  N   UNL     1       6.023   4.602  14.906  0.00  0.00    +0.000 N 
ATOM      9  N   UNL     1       5.976   3.666  13.925  0.00  0.00    +0.000 NA
ATOM     10  C   UNL     1       6.930   4.087  13.092  0.00  0.00    +0.000 A 
ATOM     11  C   UNL     1       7.535   5.236  13.606  0.00  0.00    +0.000 A 
ATOM     12  N   UNL     1       6.964   5.571  14.765  0.00  0.00    +0.000 NA
ATOM     13  N   UNL     1       5.039   5.500  16.998  0.00  0.00    +0.000 N 
ATOM     14  C   UNL     1       5.634   6.810  17.112  0.00  0.00    +0.000 C 
ATOM     15  C   UNL     1       2.776   3.042  18.170  0.00  0.00    +0.000 A 
ATOM     16  N   UNL     1       2.319   3.525  19.354  0.00  0.00    +0.000 NA
ENDROOT
BRANCH  15  17
ATOM     17  N   UNL     1       2.305   1.801  17.755  0.00  0.00    +0.000 N 
ATOM     18  H   UNL     1       1.293   1.739  17.792  0.00  0.00    +0.000 HD
ATOM     19  H   UNL     1       2.764   1.506  16.904  0.00  0.00    +0.000 HD
ENDBRANCH  15  17
TORSDOF 1
ENDMDL
MODEL 5
REMARK VINA RESULT:      -6.3      4.168      6.503
REMARK  Name = 
REMARK  3 active torsions:
REMARK  status: ('A' for Active; 'I' for Inactive)
REMARK    1  A    between atoms: C_1  and  C_2
REMARK    2  A    between atoms: N_13  and  C_14
REMARK    3  A    between atoms: C_15  and  N_16
REMARK                            x       y       z     vdW  Elec       q    Type
REMARK                         _______ _______ _______ _____ _____    ______ ____
ROOT
ATOM      1  C   UNL     1       0.208   8.623  21.804  0.00  0.00    +0.000 C 
ATOM      2  C   UNL     1       1.060   8.387  20.592  0.00  0.00    +0.000 A 
ATOM      3  C   UNL     1       1.778   7.199  20.469  0.00  0.00    +0.000 A 
ATOM      4  C   UNL     1       2.547   7.083  19.310  0.00  0.00    +0.000 A 
ATOM      5  C   UNL     1       2.591   8.085  18.352  0.00  0.00    +0.000 A 
ATOM      6  N   UNL     1       3.410   7.711  17.307  0.00  0.00    +0.000 NA
ATOM      7  C   UNL     1       3.856   6.496  17.600  0.00  0.00    +0.000 A 
ATOM      8  N   UNL     1       4.682   5.759  16.745  0.00  0.00    +0.000 N 
ATOM      9  N   UNL     1       5.191   6.304  15.611  0.00  0.00    +0.000 NA
ATOM     10  C   UNL     1       5.900   5.290  15.110  0.00  0.00    +0.000 A 
ATOM     11  C   UNL     1       5.775   4.171  15.935  0.00  0.00    +0.000 A 
ATOM     12  N   UNL     1       4.998   4.460  16.980  0.00  0.00    +0.000 NA
ATOM     13  N   UNL     1       3.387   6.093  18.834  0.00  0.00    +0.000 N 
ATOM     14  C   UNL     1       3.685   4.909  19.604  0.00  0.00    +0.000 C 
ATOM     15  C   UNL     1       1.835   9.262  18.549  0.00  0.00    +0.000 A 
ATOM     16  N   UNL     1       1.070   9.378  19.665  0.00  0.00    +0.000 NA
ENDROOT
BRANCH  15  17
ATOM     17  N   UNL     1       1.806  10.311  17.637  0.00  0.00    +0.000 N 
ATOM     18  H   UNL     1       1.175  10.133  16.862  0.00  0.00    +0.000 HD
ATOM     19  H   UNL     1       1.729  11.201  18.111  0.00  0.00    +0.000 HD
ENDBRANCH  15  17
TORSDOF 1
ENDMDL
MODEL 6
REMARK VINA RESULT:      -6.2      2.264      5.394
REMARK  Name = 
REMARK  3 active torsions:
REMARK  status: ('A' for Active; 'I' for Inactive)
REMARK    1  A    between atoms: C_1  and  C_2
REMARK    2  A    between atoms: N_13  and  C_14
REMARK    3  A    between atoms: C_15  and  N_16
REMARK                            x       y       z     vdW  Elec       q    Type
REMARK                         _______ _______ _______ _____ _____    ______ ____
ROOT
ATOM      1  C   UNL     1       0.712   2.232  18.770  0.00  0.00    +0.000 C 
ATOM      2  C   UNL     1       2.088   2.823  18.873  0.00  0.00    +0.000 A 
ATOM      3  C   UNL     1       2.373   4.033  18.245  0.00  0.00    +0.000 A 
ATOM      4  C   UNL     1       3.683   4.490  18.393  0.00  0.00    +0.000 A 
ATOM      5  C   UNL     1       4.633   3.781  19.115  0.00  0.00    +0.000 A 
ATOM      6  N   UNL     1       5.834   4.459  19.116  0.00  0.00    +0.000 NA
ATOM      7  C   UNL     1       5.635   5.572  18.422  0.00  0.00    +0.000 A 
ATOM      8  N   UNL     1       6.621   6.548  18.245  0.00  0.00    +0.000 N 
ATOM      9  N   UNL     1       7.896   6.350  18.665  0.00  0.00    +0.000 NA
ATOM     10  C   UNL     1       8.487   7.493  18.311  0.00  0.00    +0.000 A 
ATOM     11  C   UNL     1       7.553   8.345  17.719  0.00  0.00    +0.000 A 
ATOM     12  N   UNL     1       6.359   7.752  17.674  0.00  0.00    +0.000 NA
ATOM     13  N   UNL     1       4.347   5.610  17.927  0.00  0.00    +0.000 N 
ATOM     14  C   UNL     1       3.715   6.560  17.042  0.00  0.00    +0.000 C 
ATOM     15  C   UNL     1       4.267   2.559  19.722  0.00  0.00    +0.000 A 
ATOM     16  N   UNL     1       2.990   2.115  19.598  0.00  0.00    +0.000 NA
ENDROOT
BRANCH  15  17
ATOM     17  N   UNL     1       5.146   1.791  20.476  0.00  0.00    +0.000 N 
ATOM     18  H   UNL     1       4.690   0.997  20.914  0.00  0.00    +0.000 HD
ATOM     19  H   UNL     1       6.003   1.618  19.968  0.00  0.00    +0.000 HD
ENDBRANCH  15  17
TORSDOF 1
ENDMDL
MODEL 7
REMARK VINA RESULT:      -6.1      2.153      2.587
REMARK  Name = 
REMARK  3 active torsions:
REMARK  status: ('A' for Active; 'I' for Inactive)
REMARK    1  A    between atoms: C_1  and  C_2
REMARK    2  A    between atoms: N_13  and  C_14
REMARK    3  A    between atoms: C_15  and  N_16
REMARK                            x       y       z     vdW  Elec       q    Type
REMARK                         _______ _______ _______ _____ _____    ______ ____
ROOT
ATOM      1  C   UNL     1       7.791   8.780  17.412  0.00  0.00    +0.000 C 
ATOM      2  C   UNL     1       7.094   7.468  17.621  0.00  0.00    +0.000 A 
ATOM      3  C   UNL     1       5.717   7.439  17.833  0.00  0.00    +0.000 A 
ATOM      4  C   UNL     1       5.168   6.171  18.026  0.00  0.00    +0.000 A 
ATOM      5  C   UNL     1       5.946   5.022  18.011  0.00  0.00    +0.000 A 
ATOM      6  N   UNL     1       5.157   3.909  18.212  0.00  0.00    +0.000 NA
ATOM      7  C   UNL     1       3.912   4.352  18.336  0.00  0.00    +0.000 A 
ATOM      8  N   UNL     1       2.812   3.504  18.503  0.00  0.00    +0.000 N 
ATOM      9  N   UNL     1       2.971   2.169  18.684  0.00  0.00    +0.000 NA
ATOM     10  C   UNL     1       1.708   1.752  18.798  0.00  0.00    +0.000 A 
ATOM     11  C   UNL     1       0.837   2.833  18.656  0.00  0.00    +0.000 A 
ATOM     12  N   UNL     1       1.532   3.956  18.465  0.00  0.00    +0.000 NA
ATOM     13  N   UNL     1       3.880   5.731  18.271  0.00  0.00    +0.000 N 
ATOM     14  C   UNL     1       2.782   6.649  18.457  0.00  0.00    +0.000 C 
ATOM     15  C   UNL     1       7.337   5.133  17.791  0.00  0.00    +0.000 A 
ATOM     16  N   UNL     1       7.878   6.361  17.585  0.00  0.00    +0.000 NA
ENDROOT
BRANCH  15  17
ATOM     17  N   UNL     1       8.191   4.037  17.744  0.00  0.00    +0.000 N 
ATOM     18  H   UNL     1       8.470   3.724  18.668  0.00  0.00    +0.000 HD
ATOM     19  H   UNL     1       7.850   3.341  17.095  0.00  0.00    +0.000 HD
ENDBRANCH  15  17
TORSDOF 1
ENDMDL
MODEL 8
REMARK VINA RESULT:      -6.1      3.991      5.397
REMARK  Name = 
REMARK  3 active torsions:
REMARK  status: ('A' for Active; 'I' for Inactive)
REMARK    1  A    between atoms: C_1  and  C_2
REMARK    2  A    between atoms: N_13  and  C_14
REMARK    3  A    between atoms: C_15  and  N_16
REMARK                            x       y       z     vdW  Elec       q    Type
REMARK                         _______ _______ _______ _____ _____    ______ ____
ROOT
ATOM      1  C   UNL     1       3.678   1.782  17.857  0.00  0.00    +0.000 C 
ATOM      2  C   UNL     1       3.165   2.891  18.728  0.00  0.00    +0.000 A 
ATOM      3  C   UNL     1       3.084   4.188  18.226  0.00  0.00    +0.000 A 
ATOM      4  C   UNL     1       2.605   5.146  19.119  0.00  0.00    +0.000 A 
ATOM      5  C   UNL     1       2.238   4.824  20.419  0.00  0.00    +0.000 A 
ATOM      6  N   UNL     1       1.787   5.947  21.080  0.00  0.00    +0.000 NA
ATOM      7  C   UNL     1       1.858   6.946  20.209  0.00  0.00    +0.000 A 
ATOM      8  N   UNL     1       1.435   8.247  20.502  0.00  0.00    +0.000 N 
ATOM      9  N   UNL     1       1.047   8.598  21.754  0.00  0.00    +0.000 NA
ATOM     10  C   UNL     1       0.732   9.886  21.596  0.00  0.00    +0.000 A 
ATOM     11  C   UNL     1       0.914  10.258  20.263  0.00  0.00    +0.000 A 
ATOM     12  N   UNL     1       1.360   9.218  19.556  0.00  0.00    +0.000 NA
ATOM     13  N   UNL     1       2.392   6.509  19.013  0.00  0.00    +0.000 N 
ATOM     14  C   UNL     1       2.750   7.247  17.825  0.00  0.00    +0.000 C 
ATOM     15  C   UNL     1       2.350   3.485  20.855  0.00  0.00    +0.000 A 
ATOM     16  N   UNL     1       2.799   2.542  19.987  0.00  0.00    +0.000 NA
ENDROOT
BRANCH  15  17
ATOM     17  N   UNL     1       1.992   3.068  22.132  0.00  0.00    +0.000 N 
ATOM     18  H   UNL     1       0.991   2.932  22.228  0.00  0.00    +0.000 HD
ATOM     19  H   UNL     1       2.600   2.327  22.454  0.00  0.00    +0.000 HD
ENDBRANCH  15  17
TORSDOF 1
ENDMDL
MODEL 9
REMARK VINA RESULT:      -6.0      4.404      6.460
REMARK  Name = 
REMARK  3 active torsions:
REMARK  status: ('A' for Active; 'I' for Inactive)
REMARK    1  A    between atoms: C_1  and  C_2
REMARK    2  A    between atoms: N_13  and  C_14
REMARK    3  A    between atoms: C_15  and  N_16
REMARK                            x       y       z     vdW  Elec       q    Type
REMARK                         _______ _______ _______ _____ _____    ______ ____
ROOT
ATOM      1  C   UNL     1      -0.194   9.683  22.119  0.00  0.00    +0.000 C 
ATOM      2  C   UNL     1       0.619   9.073  21.014  0.00  0.00    +0.000 A 
ATOM      3  C   UNL     1       1.083   7.765  21.134  0.00  0.00    +0.000 A 
ATOM      4  C   UNL     1       1.837   7.297  20.058  0.00  0.00    +0.000 A 
ATOM      5  C   UNL     1       2.105   8.086  18.948  0.00  0.00    +0.000 A 
ATOM      6  N   UNL     1       2.853   7.379  18.030  0.00  0.00    +0.000 NA
ATOM      7  C   UNL     1       3.036   6.172  18.548  0.00  0.00    +0.000 A 
ATOM      8  N   UNL     1       3.714   5.148  17.878  0.00  0.00    +0.000 N 
ATOM      9  N   UNL     1       4.347   5.373  16.699  0.00  0.00    +0.000 NA
ATOM     10  C   UNL     1       4.846   4.167  16.417  0.00  0.00    +0.000 A 
ATOM     11  C   UNL     1       4.478   3.258  17.411  0.00  0.00    +0.000 A 
ATOM     12  N   UNL     1       3.753   3.874  18.346  0.00  0.00    +0.000 NA
ATOM     13  N   UNL     1       2.468   6.093  19.804  0.00  0.00    +0.000 N 
ATOM     14  C   UNL     1       2.503   5.028  20.778  0.00  0.00    +0.000 C 
ATOM     15  C   UNL     1       1.600   9.404  18.901  0.00  0.00    +0.000 A 
ATOM     16  N   UNL     1       0.851   9.863  19.936  0.00  0.00    +0.000 NA
ENDROOT
BRANCH  15  17
ATOM     17  N   UNL     1       1.804  10.260  17.825  0.00  0.00    +0.000 N 
ATOM     18  H   UNL     1       2.020  11.207  18.119  0.00  0.00    +0.000 HD
ATOM     19  H   UNL     1       2.406   9.835  17.133  0.00  0.00    +0.000 HD
ENDBRANCH  15  17
TORSDOF 1
ENDMDL
