MODEL 1
REMARK VINA RESULT:      -6.6      0.000      0.000
REMARK  Name = 
REMARK  4 active torsions:
REMARK  status: ('A' for Active; 'I' for Inactive)
REMARK    1  A    between atoms: C_1  and  C_2
REMARK    2  A    between atoms: N_5  and  C_6
REMARK    3  A    between atoms: C_6  and  C_7
REMARK    4  A    between atoms: C_14  and  C_15
REMARK                            x       y       z     vdW  Elec       q    Type
REMARK                         _______ _______ _______ _____ _____    ______ ____
ROOT
ATOM      1  C   UNL     1       3.736   5.198  17.789  0.00  0.00    +0.000 C 
ENDROOT
BRANCH   1   6
ATOM      2  C   UNL     1       1.354   2.700  21.454  0.00  0.00    +0.000 C 
ATOM      3  C   UNL     1       2.169   3.113  20.288  0.00  0.00    +0.000 A 
ATOM      4  N   UNL     1       2.718   2.169  19.456  0.00  0.00    +0.000 NA
ATOM      5  C   UNL     1       3.337   2.848  18.521  0.00  0.00    +0.000 A 
ATOM      6  N   UNL     1       3.231   4.198  18.718  0.00  0.00    +0.000 N 
ATOM      7  C   UNL     1       2.481   4.392  19.855  0.00  0.00    +0.000 A 
ATOM      8  C   UNL     1       2.106   5.706  20.433  0.00  0.00    +0.000 C 
ENDBRANCH   1   6
BRANCH   1   9
ATOM      9  C   UNL     1       5.141   4.916  17.333  0.00  0.00    +0.000 A 
ATOM     10  C   UNL     1       5.438   4.583  16.004  0.00  0.00    +0.000 A 
ATOM     11  C   UNL     1       6.764   4.387  15.639  0.00  0.00    +0.000 A 
ATOM     12  N   UNL     1       7.804   4.506  16.492  0.00  0.00    +0.000 NA
ATOM     13  C   UNL     1       7.501   4.827  17.770  0.00  0.00    +0.000 A 
ATOM     14  C   UNL     1       6.207   5.036  18.223  0.00  0.00    +0.000 A 
ATOM     15  F   UNL     1       5.995   5.368  19.504  0.00  0.00    +0.000 F 
ENDBRANCH   1   9
TORSDOF 2
ENDMDL
MODEL 2
REMARK VINA RESULT:      -6.5      1.288      1.762
REMARK  Name = 
REMARK  4 active torsions:
REMARK  status: ('A' for Active; 'I' for Inactive)
REMARK    1  A    between atoms: C_1  and  C_2
REMARK    2  A    between atoms: N_5  and  C_6
REMARK    3  A    between atoms: C_6  and  C_7
REMARK    4  A    between atoms: C_14  and  C_15
REMARK                            x       y       z     vdW  Elec       q    Type
REMARK                         _______ _______ _______ _____ _____    ______ ____
ROOT
ATOM      1  C   UNL     1       3.615   4.888  17.421  0.00  0.00    +0.000 C 
ENDROOT
BRANCH   1   6
ATOM      2  C   UNL     1       1.396   2.700  21.376  0.00  0.00    +0.000 C 
ATOM      3  C   UNL     1       2.128   3.011  20.126  0.00  0.00    +0.000 A 
ATOM      4  N   UNL     1       2.518   2.002  19.280  0.00  0.00    +0.000 NA
ATOM      5  C   UNL     1       3.099   2.600  18.269  0.00  0.00    +0.000 A 
ATOM      6  N   UNL     1       3.121   3.959  18.427  0.00  0.00    +0.000 N 
ATOM      7  C   UNL     1       2.500   4.247  19.621  0.00  0.00    +0.000 A 
ATOM      8  C   UNL     1       2.288   5.603  20.184  0.00  0.00    +0.000 C 
ENDBRANCH   1   6
BRANCH   1   9
ATOM      9  C   UNL     1       5.104   4.799  17.224  0.00  0.00    +0.000 A 
ATOM     10  C   UNL     1       6.005   4.993  18.279  0.00  0.00    +0.000 A 
ATOM     11  C   UNL     1       7.366   4.843  18.040  0.00  0.00    +0.000 A 
ATOM     12  N   UNL     1       7.885   4.510  16.838  0.00  0.00    +0.000 NA
ATOM     13  C   UNL     1       7.002   4.327  15.830  0.00  0.00    +0.000 A 
ATOM     14  C   UNL     1       5.630   4.460  15.978  0.00  0.00    +0.000 A 
ATOM     15  F   UNL     1       4.823   4.244  14.931  0.00  0.00    +0.000 F 
ENDBRANCH   1   9
TORSDOF 2
ENDMDL
MODEL 3
REMARK VINA RESULT:      -6.4      1.445      1.694
REMARK  Name = 
REMARK  4 active torsions:
REMARK  status: ('A' for Active; 'I' for Inactive)
REMARK    1  A    between atoms: C_1  and  C_2
REMARK    2  A    between atoms: N_5  and  C_6
REMARK    3  A    between atoms: C_6  and  C_7
REMARK    4  A    between atoms: C_14  and  C_15
REMARK                            x       y       z     vdW  Elec       q    Type
REMARK                         _______ _______ _______ _____ _____    ______ ____
ROOT
ATOM      1  C   UNL     1       5.592   5.352  19.096  0.00  0.00    +0.000 C 
ENDROOT
BRANCH   1   6
ATOM      2  C   UNL     1       1.038   3.500  20.185  0.00  0.00    +0.000 C 
ATOM      3  C   UNL     1       2.478   3.710  19.910  0.00  0.00    +0.000 A 
ATOM      4  N   UNL     1       3.326   2.637  19.793  0.00  0.00    +0.000 NA
ATOM      5  C   UNL     1       4.501   3.149  19.519  0.00  0.00    +0.000 A 
ATOM      6  N   UNL     1       4.460   4.516  19.472  0.00  0.00    +0.000 N 
ATOM      7  C   UNL     1       3.163   4.900  19.723  0.00  0.00    +0.000 A 
ATOM      8  C   UNL     1       2.662   6.296  19.755  0.00  0.00    +0.000 C 
ENDBRANCH   1   6
BRANCH   1   9
ATOM      9  C   UNL     1       5.842   5.365  17.613  0.00  0.00    +0.000 A 
ATOM     10  C   UNL     1       4.966   5.994  16.718  0.00  0.00    +0.000 A 
ATOM     11  C   UNL     1       5.286   6.015  15.366  0.00  0.00    +0.000 A 
ATOM     12  N   UNL     1       6.406   5.466  14.850  0.00  0.00    +0.000 NA
ATOM     13  C   UNL     1       7.240   4.861  15.727  0.00  0.00    +0.000 A 
ATOM     14  C   UNL     1       6.999   4.790  17.090  0.00  0.00    +0.000 A 
ATOM     15  F   UNL     1       7.886   4.187  17.893  0.00  0.00    +0.000 F 
ENDBRANCH   1   9
TORSDOF 2
ENDMDL
MODEL 4
REMARK VINA RESULT:      -6.3      2.029      5.157
REMARK  Name = 
REMARK  4 active torsions:
REMARK  status: ('A' for Active; 'I' for Inactive)
REMARK    1  A    between atoms: C_1  and  C_2
REMARK    2  A    between atoms: N_5  and  C_6
REMARK    3  A    between atoms: C_6  and  C_7
REMARK    4  A    between atoms: C_14  and  C_15
REMARK                            x       y       z     vdW  Elec       q    Type
REMARK                         _______ _______ _______ _____ _____    ______ ____
ROOT
ATOM      1  C   UNL     1       4.094   3.980  16.642  0.00  0.00    +0.000 C 
ENDROOT
BRANCH   1   6
ATOM      2  C   UNL     1       7.533   7.545  17.545  0.00  0.00    +0.000 C 
ATOM      3  C   UNL     1       6.802   6.311  17.175  0.00  0.00    +0.000 A 
ATOM      4  N   UNL     1       7.490   5.169  16.847  0.00  0.00    +0.000 NA
ATOM      5  C   UNL     1       6.571   4.264  16.610  0.00  0.00    +0.000 A 
ATOM      6  N   UNL     1       5.309   4.774  16.750  0.00  0.00    +0.000 N 
ATOM      7  C   UNL     1       5.435   6.095  17.113  0.00  0.00    +0.000 A 
ATOM      8  C   UNL     1       4.315   7.030  17.385  0.00  0.00    +0.000 C 
ENDBRANCH   1   6
BRANCH   1   9
ATOM      9  C   UNL     1       3.489   3.651  17.979  0.00  0.00    +0.000 A 
ATOM     10  C   UNL     1       4.207   2.968  18.970  0.00  0.00    +0.000 A 
ATOM     11  C   UNL     1       3.606   2.744  20.203  0.00  0.00    +0.000 A 
ATOM     12  N   UNL     1       2.358   3.154  20.517  0.00  0.00    +0.000 NA
ATOM     13  C   UNL     1       1.679   3.811  19.549  0.00  0.00    +0.000 A 
ATOM     14  C   UNL     1       2.198   4.074  18.291  0.00  0.00    +0.000 A 
ATOM     15  F   UNL     1       1.464   4.747  17.394  0.00  0.00    +0.000 F 
ENDBRANCH   1   9
TORSDOF 2
ENDMDL
MODEL 5
REMARK VINA RESULT:      -6.3      1.471      1.477
REMARK  Name = 
REMARK  4 active torsions:
REMARK  status: ('A' for Active; 'I' for Inactive)
REMARK    1  A    between atoms: C_1  and  C_2
REMARK    2  A    between atoms: N_5  and  C_6
REMARK    3  A    between atoms: C_6  and  C_7
REMARK    4  A    between atoms: C_14  and  C_15
REMARK                            x       y       z     vdW  Elec       q    Type
REMARK                         _______ _______ _______ _____ _____    ______ ____
ROOT
ATOM      1  C   UNL     1       3.678   3.769  17.063  0.00  0.00    +0.000 C 
ENDROOT
BRANCH   1   6
ATOM      2  C   UNL     1       2.166   2.771  21.761  0.00  0.00    +0.000 C 
ATOM      3  C   UNL     1       2.910   2.915  20.488  0.00  0.00    +0.000 A 
ATOM      4  N   UNL     1       4.135   2.315  20.329  0.00  0.00    +0.000 NA
ATOM      5  C   UNL     1       4.506   2.600  19.104  0.00  0.00    +0.000 A 
ATOM      6  N   UNL     1       3.582   3.377  18.462  0.00  0.00    +0.000 N 
ATOM      7  C   UNL     1       2.543   3.595  19.338  0.00  0.00    +0.000 A 
ATOM      8  C   UNL     1       1.316   4.378  19.052  0.00  0.00    +0.000 C 
ENDBRANCH   1   6
BRANCH   1   9
ATOM      9  C   UNL     1       4.946   4.515  16.751  0.00  0.00    +0.000 A 
ATOM     10  C   UNL     1       5.941   3.975  15.924  0.00  0.00    +0.000 A 
ATOM     11  C   UNL     1       7.064   4.740  15.633  0.00  0.00    +0.000 A 
ATOM     12  N   UNL     1       7.260   5.993  16.098  0.00  0.00    +0.000 NA
ATOM     13  C   UNL     1       6.292   6.498  16.895  0.00  0.00    +0.000 A 
ATOM     14  C   UNL     1       5.142   5.805  17.240  0.00  0.00    +0.000 A 
ATOM     15  F   UNL     1       4.223   6.387  18.023  0.00  0.00    +0.000 F 
ENDBRANCH   1   9
TORSDOF 2
ENDMDL
MODEL 6
REMARK VINA RESULT:      -6.3      1.808      2.070
REMARK  Name = 
REMARK  4 active torsions:
REMARK  status: ('A' for Active; 'I' for Inactive)
REMARK    1  A    between atoms: C_1  and  C_2
REMARK    2  A    between atoms: N_5  and  C_6
REMARK    3  A    between atoms: C_6  and  C_7
REMARK    4  A    between atoms: C_14  and  C_15
REMARK                            x       y       z     vdW  Elec       q    Type
REMARK                         _______ _______ _______ _____ _____    ______ ____
ROOT
ATOM      1  C   UNL     1       3.912   3.627  17.051  0.00  0.00    +0.000 C 
ENDROOT
BRANCH   1   6
ATOM      2  C   UNL     1       1.975   2.972  21.652  0.00  0.00    +0.000 C 
ATOM      3  C   UNL     1       2.830   3.018  20.444  0.00  0.00    +0.000 A 
ATOM      4  N   UNL     1       4.051   2.390  20.434  0.00  0.00    +0.000 NA
ATOM      5  C   UNL     1       4.533   2.586  19.230  0.00  0.00    +0.000 A 
ATOM      6  N   UNL     1       3.685   3.332  18.458  0.00  0.00    +0.000 N 
ATOM      7  C   UNL     1       2.579   3.624  19.223  0.00  0.00    +0.000 A 
ATOM      8  C   UNL     1       1.398   4.405  18.778  0.00  0.00    +0.000 C 
ENDBRANCH   1   6
BRANCH   1   9
ATOM      9  C   UNL     1       5.052   4.581  16.830  0.00  0.00    +0.000 A 
ATOM     10  C   UNL     1       5.149   5.796  17.522  0.00  0.00    +0.000 A 
ATOM     11  C   UNL     1       6.257   6.607  17.310  0.00  0.00    +0.000 A 
ATOM     12  N   UNL     1       7.268   6.293  16.471  0.00  0.00    +0.000 NA
ATOM     13  C   UNL     1       7.159   5.118  15.809  0.00  0.00    +0.000 A 
ATOM     14  C   UNL     1       6.088   4.251  15.957  0.00  0.00    +0.000 A 
ATOM     15  F   UNL     1       6.066   3.097  15.276  0.00  0.00    +0.000 F 
ENDBRANCH   1   9
TORSDOF 2
ENDMDL
MODEL 7
REMARK VINA RESULT:      -6.3      1.779      2.534
REMARK  Name = 
REMARK  4 active torsions:
REMARK  status: ('A' for Active; 'I' for Inactive)
REMARK    1  A    between atoms: C_1  and  C_2
REMARK    2  A    between atoms: N_5  and  C_6
REMARK    3  A    between atoms: C_6  and  C_7
REMARK    4  A    between atoms: C_14  and  C_15
REMARK                            x       y       z     vdW  Elec       q    Type
REMARK                         _______ _______ _______ _____ _____    ______ ____
ROOT
ATOM      1  C   UNL     1       3.868   6.350  17.435  0.00  0.00    +0.000 C 
ENDROOT
BRANCH   1   6
ATOM      2  C   UNL     1       1.104   3.183  20.207  0.00  0.00    +0.000 C 
ATOM      3  C   UNL     1       1.834   4.344  19.646  0.00  0.00    +0.000 A 
ATOM      4  N   UNL     1       1.969   5.498  20.377  0.00  0.00    +0.000 NA
ATOM      5  C   UNL     1       2.682   6.303  19.629  0.00  0.00    +0.000 A 
ATOM      6  N   UNL     1       3.004   5.729  18.429  0.00  0.00    +0.000 N 
ATOM      7  C   UNL     1       2.465   4.463  18.418  0.00  0.00    +0.000 A 
ATOM      8  C   UNL     1       2.581   3.480  17.313  0.00  0.00    +0.000 C 
ENDBRANCH   1   6
BRANCH   1   9
ATOM      9  C   UNL     1       5.244   5.744  17.396  0.00  0.00    +0.000 A 
ATOM     10  C   UNL     1       6.051   5.661  18.539  0.00  0.00    +0.000 A 
ATOM     11  C   UNL     1       7.291   5.040  18.445  0.00  0.00    +0.000 A 
ATOM     12  N   UNL     1       7.774   4.496  17.307  0.00  0.00    +0.000 NA
ATOM     13  C   UNL     1       6.983   4.585  16.214  0.00  0.00    +0.000 A 
ATOM     14  C   UNL     1       5.736   5.190  16.216  0.00  0.00    +0.000 A 
ATOM     15  F   UNL     1       5.008   5.220  15.091  0.00  0.00    +0.000 F 
ENDBRANCH   1   9
TORSDOF 2
ENDMDL
MODEL 8
REMARK VINA RESULT:      -6.3      1.507      2.363
REMARK  Name = 
REMARK  4 active torsions:
REMARK  status: ('A' for Active; 'I' for Inactive)
REMARK    1  A    between atoms: C_1  and  C_2
REMARK    2  A    between atoms: N_5  and  C_6
REMARK    3  A    between atoms: C_6  and  C_7
REMARK    4  A    between atoms: C_14  and  C_15
REMARK                            x       y       z     vdW  Elec       q    Type
REMARK                         _______ _______ _______ _____ _____    ______ ____
ROOT
ATOM      1  C   UNL     1       3.469   5.154  17.524  0.00  0.00    +0.000 C 
ENDROOT
BRANCH   1   6
ATOM      2  C   UNL     1       1.964   2.635  21.616  0.00  0.00    +0.000 C 
ATOM      3  C   UNL     1       2.295   3.656  20.595  0.00  0.00    +0.000 A 
ATOM      4  N   UNL     1       2.202   4.993  20.895  0.00  0.00    +0.000 NA
ATOM      5  C   UNL     1       2.590   5.621  19.811  0.00  0.00    +0.000 A 
ATOM      6  N   UNL     1       2.916   4.749  18.808  0.00  0.00    +0.000 N 
ATOM      7  C   UNL     1       2.731   3.474  19.292  0.00  0.00    +0.000 A 
ATOM      8  C   UNL     1       2.979   2.217  18.544  0.00  0.00    +0.000 C 
ENDBRANCH   1   6
BRANCH   1   9
ATOM      9  C   UNL     1       4.966   5.019  17.464  0.00  0.00    +0.000 A 
ATOM     10  C   UNL     1       5.784   5.333  18.558  0.00  0.00    +0.000 A 
ATOM     11  C   UNL     1       7.156   5.133  18.452  0.00  0.00    +0.000 A 
ATOM     12  N   UNL     1       7.761   4.642  17.349  0.00  0.00    +0.000 NA
ATOM     13  C   UNL     1       6.957   4.345  16.303  0.00  0.00    +0.000 A 
ATOM     14  C   UNL     1       5.581   4.516  16.319  0.00  0.00    +0.000 A 
ATOM     15  F   UNL     1       4.856   4.181  15.244  0.00  0.00    +0.000 F 
ENDBRANCH   1   9
TORSDOF 2
ENDMDL
MODEL 9
REMARK VINA RESULT:      -6.2      1.468      1.813
REMARK  Name = 
REMARK  4 active torsions:
REMARK  status: ('A' for Active; 'I' for Inactive)
REMARK    1  A    between atoms: C_1  and  C_2
REMARK    2  A    between atoms: N_5  and  C_6
REMARK    3  A    between atoms: C_6  and  C_7
REMARK    4  A    between atoms: C_14  and  C_15
REMARK                            x       y       z     vdW  Elec       q    Type
REMARK                         _______ _______ _______ _____ _____    ______ ____
ROOT
ATOM      1  C   UNL     1       5.324   5.336  19.183  0.00  0.00    +0.000 C 
ENDROOT
BRANCH   1   6
ATOM      2  C   UNL     1       0.886   3.102  19.999  0.00  0.00    +0.000 C 
ATOM      3  C   UNL     1       2.311   3.428  19.758  0.00  0.00    +0.000 A 
ATOM      4  N   UNL     1       3.216   2.429  19.499  0.00  0.00    +0.000 NA
ATOM      5  C   UNL     1       4.360   3.039  19.301  0.00  0.00    +0.000 A 
ATOM      6  N   UNL     1       4.243   4.395  19.438  0.00  0.00    +0.000 N 
ATOM      7  C   UNL     1       2.927   4.669  19.736  0.00  0.00    +0.000 A 
ATOM      8  C   UNL     1       2.350   6.017  19.955  0.00  0.00    +0.000 C 
ENDBRANCH   1   6
BRANCH   1   9
ATOM      9  C   UNL     1       5.724   5.387  17.734  0.00  0.00    +0.000 A 
ATOM     10  C   UNL     1       6.822   4.669  17.240  0.00  0.00    +0.000 A 
ATOM     11  C   UNL     1       7.103   4.719  15.880  0.00  0.00    +0.000 A 
ATOM     12  N   UNL     1       6.372   5.419  14.987  0.00  0.00    +0.000 NA
ATOM     13  C   UNL     1       5.317   6.107  15.479  0.00  0.00    +0.000 A 
ATOM     14  C   UNL     1       4.966   6.118  16.820  0.00  0.00    +0.000 A 
ATOM     15  F   UNL     1       3.893   6.813  17.222  0.00  0.00    +0.000 F 
ENDBRANCH   1   9
TORSDOF 2
ENDMDL
