MODEL 1
REMARK VINA RESULT:      -6.9      0.000      0.000
REMARK  Name = 
REMARK  8 active torsions:
REMARK  status: ('A' for Active; 'I' for Inactive)
REMARK    1  A    between atoms: C_1  and  C_2
REMARK    2  A    between atoms: C_2  and  C_3
REMARK    3  A    between atoms: C_3  and  C_4
REMARK    4  A    between atoms: C_4  and  C_5
REMARK    5  A    between atoms: C_5  and  N_6
REMARK    6  A    between atoms: N_10  and  N_11
REMARK    7  A    between atoms: C_12  and  C_13
REMARK    8  A    between atoms: N_23  and  C_24
REMARK                            x       y       z     vdW  Elec       q    Type
REMARK                         _______ _______ _______ _____ _____    ______ ____
ROOT
ATOM      1  N   UNL     1      -4.332  13.397  22.787  0.00  0.00    +0.000 N 
ATOM      2  C   UNL     1      -4.160  14.710  23.252  0.00  0.00    +0.000 A 
ATOM      3  C   UNL     1      -5.187  15.544  23.053  0.00  0.00    +0.000 A 
ATOM      4  S   UNL     1      -6.508  14.740  22.268  0.00  0.00    +0.000 S 
ATOM      5  C   UNL     1      -5.543  13.228  22.080  0.00  0.00    +0.000 A 
ATOM      6  N   UNL     1      -5.911  12.187  21.411  0.00  0.00    +0.000 NA
ENDROOT
BRANCH   1  11
ATOM      7  N   UNL     1      -0.902  12.574  20.399  0.00  0.00    +0.000 N 
ATOM      8  C   UNL     1      -2.135  13.036  20.842  0.00  0.00    +0.000 C 
ATOM      9  O   UNL     1      -2.910  13.751  20.239  0.00  0.00    +0.000 OA
ATOM     10  C   UNL     1      -2.400  12.303  22.173  0.00  0.00    +0.000 C 
ATOM     11  N   UNL     1      -3.393  12.403  23.009  0.00  0.00    +0.000 NA
ATOM     12  C   UNL     1      -1.303  11.335  22.297  0.00  0.00    +0.000 A 
ATOM     13  C   UNL     1      -1.102  10.330  23.225  0.00  0.00    +0.000 A 
ATOM     14  C   UNL     1      -0.024   9.467  23.015  0.00  0.00    +0.000 A 
ATOM     15  C   UNL     1       0.823   9.629  21.902  0.00  0.00    +0.000 A 
ATOM     16  C   UNL     1       0.623  10.674  20.995  0.00  0.00    +0.000 A 
ATOM     17  C   UNL     1      -0.453  11.522  21.207  0.00  0.00    +0.000 A 
BRANCH   7  18
ATOM     18  C   UNL     1      -0.347  12.950  19.121  0.00  0.00    +0.000 C 
BRANCH  18  19
ATOM     19  C   UNL     1       0.883  13.856  19.236  0.00  0.00    +0.000 C 
BRANCH  19  20
ATOM     20  C   UNL     1       0.556  15.244  19.791  0.00  0.00    +0.000 C 
BRANCH  20  22
ATOM     21  C   UNL     1       0.115  17.148  18.214  0.00  0.00    +0.000 C 
ATOM     22  C   UNL     1      -0.484  15.949  18.928  0.00  0.00    +0.000 C 
ENDBRANCH  20  22
ENDBRANCH  19  20
ENDBRANCH  18  19
ENDBRANCH   7  18
ENDBRANCH   1  11
BRANCH   2  23
ATOM     23  C   UNL     1      -2.954  15.146  23.980  0.00  0.00    +0.000 A 
ATOM     24  C   UNL     1      -2.866  14.954  25.368  0.00  0.00    +0.000 A 
ATOM     25  C   UNL     1      -1.756  15.414  26.082  0.00  0.00    +0.000 A 
ATOM     26  C   UNL     1      -0.726  16.081  25.420  0.00  0.00    +0.000 A 
ATOM     27  C   UNL     1      -0.815  16.303  24.045  0.00  0.00    +0.000 A 
ATOM     28  C   UNL     1      -1.926  15.844  23.337  0.00  0.00    +0.000 A 
ATOM     29  F   UNL     1      -2.007  16.117  22.027  0.00  0.00    +0.000 F 
ENDBRANCH   2  23
BRANCH   6  30
ATOM     30  C   UNL     1      -7.300  12.022  20.967  0.00  0.00    +0.000 C 
ATOM     31  C   UNL     1      -7.558  12.593  19.577  0.00  0.00    +0.000 C 
ATOM     32  C   UNL     1      -6.786  11.877  18.480  0.00  0.00    +0.000 C 
ATOM     33  C   UNL     1      -6.904  10.357  18.521  0.00  0.00    +0.000 C 
ATOM     34  C   UNL     1      -6.851   9.736  19.914  0.00  0.00    +0.000 C 
ATOM     35  C   UNL     1      -7.626  10.521  20.969  0.00  0.00    +0.000 C 
ENDBRANCH   6  30
TORSDOF 7
ENDMDL
MODEL 2
REMARK VINA RESULT:      -6.6      1.010      1.562
REMARK  Name = 
REMARK  8 active torsions:
REMARK  status: ('A' for Active; 'I' for Inactive)
REMARK    1  A    between atoms: C_1  and  C_2
REMARK    2  A    between atoms: C_2  and  C_3
REMARK    3  A    between atoms: C_3  and  C_4
REMARK    4  A    between atoms: C_4  and  C_5
REMARK    5  A    between atoms: C_5  and  N_6
REMARK    6  A    between atoms: N_10  and  N_11
REMARK    7  A    between atoms: C_12  and  C_13
REMARK    8  A    between atoms: N_23  and  C_24
REMARK                            x       y       z     vdW  Elec       q    Type
REMARK                         _______ _______ _______ _____ _____    ______ ____
ROOT
ATOM      1  N   UNL     1      -4.313  13.486  22.765  0.00  0.00    +0.000 N 
ATOM      2  C   UNL     1      -4.153  14.816  23.185  0.00  0.00    +0.000 A 
ATOM      3  C   UNL     1      -5.204  15.623  22.997  0.00  0.00    +0.000 A 
ATOM      4  S   UNL     1      -6.533  14.769  22.282  0.00  0.00    +0.000 S 
ATOM      5  C   UNL     1      -5.544  13.273  22.105  0.00  0.00    +0.000 A 
ATOM      6  N   UNL     1      -5.912  12.204  21.481  0.00  0.00    +0.000 NA
ENDROOT
BRANCH   1  11
ATOM      7  N   UNL     1      -1.023  12.572  20.220  0.00  0.00    +0.000 N 
ATOM      8  C   UNL     1      -2.234  13.044  20.712  0.00  0.00    +0.000 C 
ATOM      9  O   UNL     1      -3.055  13.713  20.118  0.00  0.00    +0.000 OA
ATOM     10  C   UNL     1      -2.406  12.384  22.095  0.00  0.00    +0.000 C 
ATOM     11  N   UNL     1      -3.347  12.519  22.984  0.00  0.00    +0.000 NA
ATOM     12  C   UNL     1      -1.288  11.438  22.206  0.00  0.00    +0.000 A 
ATOM     13  C   UNL     1      -1.015  10.491  23.174  0.00  0.00    +0.000 A 
ATOM     14  C   UNL     1       0.063   9.631  22.946  0.00  0.00    +0.000 A 
ATOM     15  C   UNL     1       0.838   9.740  21.776  0.00  0.00    +0.000 A 
ATOM     16  C   UNL     1       0.566  10.729  20.826  0.00  0.00    +0.000 A 
ATOM     17  C   UNL     1      -0.508  11.574  21.056  0.00  0.00    +0.000 A 
BRANCH   7  18
ATOM     18  C   UNL     1      -0.552  12.883  18.891  0.00  0.00    +0.000 C 
BRANCH  18  19
ATOM     19  C   UNL     1      -0.024  14.314  18.753  0.00  0.00    +0.000 C 
BRANCH  19  20
ATOM     20  C   UNL     1       0.860  14.744  19.925  0.00  0.00    +0.000 C 
BRANCH  20  22
ATOM     21  C   UNL     1       2.937  13.740  20.915  0.00  0.00    +0.000 C 
ATOM     22  C   UNL     1       2.317  14.369  19.680  0.00  0.00    +0.000 C 
ENDBRANCH  20  22
ENDBRANCH  19  20
ENDBRANCH  18  19
ENDBRANCH   7  18
ENDBRANCH   1  11
BRANCH   2  23
ATOM     23  C   UNL     1      -2.933  15.299  23.858  0.00  0.00    +0.000 A 
ATOM     24  C   UNL     1      -1.951  15.982  23.124  0.00  0.00    +0.000 A 
ATOM     25  C   UNL     1      -0.763  16.393  23.734  0.00  0.00    +0.000 A 
ATOM     26  C   UNL     1      -0.538  16.118  25.083  0.00  0.00    +0.000 A 
ATOM     27  C   UNL     1      -1.494  15.416  25.817  0.00  0.00    +0.000 A 
ATOM     28  C   UNL     1      -2.677  15.005  25.203  0.00  0.00    +0.000 A 
ATOM     29  F   UNL     1      -3.554  14.287  25.919  0.00  0.00    +0.000 F 
ENDBRANCH   2  23
BRANCH   6  30
ATOM     30  C   UNL     1      -7.312  11.999  21.091  0.00  0.00    +0.000 C 
ATOM     31  C   UNL     1      -7.710  12.785  19.846  0.00  0.00    +0.000 C 
ATOM     32  C   UNL     1      -6.963  12.350  18.596  0.00  0.00    +0.000 C 
ATOM     33  C   UNL     1      -6.959  10.843  18.361  0.00  0.00    +0.000 C 
ATOM     34  C   UNL     1      -6.760   9.989  19.609  0.00  0.00    +0.000 C 
ATOM     35  C   UNL     1      -7.519  10.499  20.832  0.00  0.00    +0.000 C 
ENDBRANCH   6  30
TORSDOF 7
ENDMDL
MODEL 3
REMARK VINA RESULT:      -6.6      3.265      7.084
REMARK  Name = 
REMARK  8 active torsions:
REMARK  status: ('A' for Active; 'I' for Inactive)
REMARK    1  A    between atoms: C_1  and  C_2
REMARK    2  A    between atoms: C_2  and  C_3
REMARK    3  A    between atoms: C_3  and  C_4
REMARK    4  A    between atoms: C_4  and  C_5
REMARK    5  A    between atoms: C_5  and  N_6
REMARK    6  A    between atoms: N_10  and  N_11
REMARK    7  A    between atoms: C_12  and  C_13
REMARK    8  A    between atoms: N_23  and  C_24
REMARK                            x       y       z     vdW  Elec       q    Type
REMARK                         _______ _______ _______ _____ _____    ______ ____
ROOT
ATOM      1  N   UNL     1      -0.323  13.359  20.178  0.00  0.00    +0.000 N 
ATOM      2  C   UNL     1       0.610  12.464  20.725  0.00  0.00    +0.000 A 
ATOM      3  C   UNL     1       1.892  12.845  20.673  0.00  0.00    +0.000 A 
ATOM      4  S   UNL     1       2.054  14.407  19.940  0.00  0.00    +0.000 S 
ATOM      5  C   UNL     1       0.293  14.470  19.561  0.00  0.00    +0.000 A 
ATOM      6  N   UNL     1      -0.285  15.378  18.848  0.00  0.00    +0.000 NA
ENDROOT
BRANCH   1  11
ATOM      7  N   UNL     1      -2.614  10.816  17.643  0.00  0.00    +0.000 N 
ATOM      8  C   UNL     1      -1.603  11.613  18.166  0.00  0.00    +0.000 C 
ATOM      9  O   UNL     1      -0.511  11.826  17.677  0.00  0.00    +0.000 OA
ATOM     10  C   UNL     1      -2.221  12.319  19.390  0.00  0.00    +0.000 C 
ATOM     11  N   UNL     1      -1.689  13.140  20.249  0.00  0.00    +0.000 NA
ATOM     12  C   UNL     1      -3.641  11.949  19.364  0.00  0.00    +0.000 A 
ATOM     13  C   UNL     1      -4.692  12.393  20.144  0.00  0.00    +0.000 A 
ATOM     14  C   UNL     1      -5.976  11.960  19.801  0.00  0.00    +0.000 A 
ATOM     15  C   UNL     1      -6.177  11.099  18.706  0.00  0.00    +0.000 A 
ATOM     16  C   UNL     1      -5.096  10.633  17.952  0.00  0.00    +0.000 A 
ATOM     17  C   UNL     1      -3.827  11.072  18.294  0.00  0.00    +0.000 A 
BRANCH   7  18
ATOM     18  C   UNL     1      -2.458  10.068  16.418  0.00  0.00    +0.000 C 
BRANCH  18  19
ATOM     19  C   UNL     1      -3.036  10.782  15.193  0.00  0.00    +0.000 C 
BRANCH  19  20
ATOM     20  C   UNL     1      -3.011   9.922  13.928  0.00  0.00    +0.000 C 
BRANCH  20  22
ATOM     21  C   UNL     1      -4.390   9.875  11.830  0.00  0.00    +0.000 C 
ATOM     22  C   UNL     1      -4.411   9.765  13.345  0.00  0.00    +0.000 C 
ENDBRANCH  20  22
ENDBRANCH  19  20
ENDBRANCH  18  19
ENDBRANCH   7  18
ENDBRANCH   1  11
BRANCH   2  23
ATOM     23  C   UNL     1       0.215  11.205  21.384  0.00  0.00    +0.000 A 
ATOM     24  C   UNL     1       0.452   9.976  20.748  0.00  0.00    +0.000 A 
ATOM     25  C   UNL     1       0.031   8.778  21.332  0.00  0.00    +0.000 A 
ATOM     26  C   UNL     1      -0.640   8.794  22.554  0.00  0.00    +0.000 A 
ATOM     27  C   UNL     1      -0.906  10.011  23.184  0.00  0.00    +0.000 A 
ATOM     28  C   UNL     1      -0.486  11.204  22.595  0.00  0.00    +0.000 A 
ATOM     29  F   UNL     1      -0.801  12.359  23.198  0.00  0.00    +0.000 F 
ENDBRANCH   2  23
BRANCH   6  30
ATOM     30  C   UNL     1       0.405  16.628  18.508  0.00  0.00    +0.000 C 
ATOM     31  C   UNL     1      -0.430  17.556  17.633  0.00  0.00    +0.000 C 
ATOM     32  C   UNL     1      -1.686  18.064  18.323  0.00  0.00    +0.000 C 
ATOM     33  C   UNL     1      -1.449  18.630  19.719  0.00  0.00    +0.000 C 
ATOM     34  C   UNL     1      -0.462  17.847  20.581  0.00  0.00    +0.000 C 
ATOM     35  C   UNL     1       0.761  17.347  19.817  0.00  0.00    +0.000 C 
ENDBRANCH   6  30
TORSDOF 7
ENDMDL
MODEL 4
REMARK VINA RESULT:      -6.5      2.241      3.776
REMARK  Name = 
REMARK  8 active torsions:
REMARK  status: ('A' for Active; 'I' for Inactive)
REMARK    1  A    between atoms: C_1  and  C_2
REMARK    2  A    between atoms: C_2  and  C_3
REMARK    3  A    between atoms: C_3  and  C_4
REMARK    4  A    between atoms: C_4  and  C_5
REMARK    5  A    between atoms: C_5  and  N_6
REMARK    6  A    between atoms: N_10  and  N_11
REMARK    7  A    between atoms: C_12  and  C_13
REMARK    8  A    between atoms: N_23  and  C_24
REMARK                            x       y       z     vdW  Elec       q    Type
REMARK                         _______ _______ _______ _____ _____    ______ ____
ROOT
ATOM      1  N   UNL     1      -2.715  14.479  21.577  0.00  0.00    +0.000 N 
ATOM      2  C   UNL     1      -1.955  15.527  21.033  0.00  0.00    +0.000 A 
ATOM      3  C   UNL     1      -2.643  16.589  20.599  0.00  0.00    +0.000 A 
ATOM      4  S   UNL     1      -4.346  16.384  20.857  0.00  0.00    +0.000 S 
ATOM      5  C   UNL     1      -4.105  14.702  21.458  0.00  0.00    +0.000 A 
ATOM      6  N   UNL     1      -5.049  13.862  21.726  0.00  0.00    +0.000 NA
ENDROOT
BRANCH   1  11
ATOM      7  N   UNL     1      -1.117  11.112  19.515  0.00  0.00    +0.000 N 
ATOM      8  C   UNL     1      -1.822  12.267  19.832  0.00  0.00    +0.000 C 
ATOM      9  O   UNL     1      -2.519  12.927  19.088  0.00  0.00    +0.000 OA
ATOM     10  C   UNL     1      -1.691  12.428  21.360  0.00  0.00    +0.000 C 
ATOM     11  N   UNL     1      -2.132  13.362  22.152  0.00  0.00    +0.000 NA
ATOM     12  C   UNL     1      -1.009  11.209  21.813  0.00  0.00    +0.000 A 
ATOM     13  C   UNL     1      -0.744  10.758  23.092  0.00  0.00    +0.000 A 
ATOM     14  C   UNL     1      -0.192   9.481  23.224  0.00  0.00    +0.000 A 
ATOM     15  C   UNL     1       0.087   8.697  22.089  0.00  0.00    +0.000 A 
ATOM     16  C   UNL     1      -0.156   9.185  20.802  0.00  0.00    +0.000 A 
ATOM     17  C   UNL     1      -0.710  10.450  20.680  0.00  0.00    +0.000 A 
BRANCH   7  18
ATOM     18  C   UNL     1      -1.091  10.561  18.181  0.00  0.00    +0.000 C 
BRANCH  18  19
ATOM     19  C   UNL     1      -2.426   9.946  17.752  0.00  0.00    +0.000 C 
BRANCH  19  20
ATOM     20  C   UNL     1      -2.585   9.855  16.233  0.00  0.00    +0.000 C 
BRANCH  20  22
ATOM     21  C   UNL     1      -4.530  11.300  16.891  0.00  0.00    +0.000 C 
ATOM     22  C   UNL     1      -3.678  10.797  15.739  0.00  0.00    +0.000 C 
ENDBRANCH  20  22
ENDBRANCH  19  20
ENDBRANCH  18  19
ENDBRANCH   7  18
ENDBRANCH   1  11
BRANCH   2  23
ATOM     23  C   UNL     1      -0.481  15.507  20.997  0.00  0.00    +0.000 A 
ATOM     24  C   UNL     1       0.252  15.755  22.169  0.00  0.00    +0.000 A 
ATOM     25  C   UNL     1       1.649  15.798  22.139  0.00  0.00    +0.000 A 
ATOM     26  C   UNL     1       2.329  15.605  20.937  0.00  0.00    +0.000 A 
ATOM     27  C   UNL     1       1.611  15.385  19.761  0.00  0.00    +0.000 A 
ATOM     28  C   UNL     1       0.217  15.346  19.795  0.00  0.00    +0.000 A 
ATOM     29  F   UNL     1      -0.446  15.184  18.641  0.00  0.00    +0.000 F 
ENDBRANCH   2  23
BRANCH   6  30
ATOM     30  C   UNL     1      -6.444  14.302  21.839  0.00  0.00    +0.000 C 
ATOM     31  C   UNL     1      -7.422  13.396  21.100  0.00  0.00    +0.000 C 
ATOM     32  C   UNL     1      -7.484  11.988  21.670  0.00  0.00    +0.000 C 
ATOM     33  C   UNL     1      -7.663  11.931  23.183  0.00  0.00    +0.000 C 
ATOM     34  C   UNL     1      -6.853  12.954  23.973  0.00  0.00    +0.000 C 
ATOM     35  C   UNL     1      -6.812  14.339  23.330  0.00  0.00    +0.000 C 
ENDBRANCH   6  30
TORSDOF 7
ENDMDL
MODEL 5
REMARK VINA RESULT:      -6.4      1.928      3.587
REMARK  Name = 
REMARK  8 active torsions:
REMARK  status: ('A' for Active; 'I' for Inactive)
REMARK    1  A    between atoms: C_1  and  C_2
REMARK    2  A    between atoms: C_2  and  C_3
REMARK    3  A    between atoms: C_3  and  C_4
REMARK    4  A    between atoms: C_4  and  C_5
REMARK    5  A    between atoms: C_5  and  N_6
REMARK    6  A    between atoms: N_10  and  N_11
REMARK    7  A    between atoms: C_12  and  C_13
REMARK    8  A    between atoms: N_23  and  C_24
REMARK                            x       y       z     vdW  Elec       q    Type
REMARK                         _______ _______ _______ _____ _____    ______ ____
ROOT
ATOM      1  N   UNL     1      -4.618  14.662  22.017  0.00  0.00    +0.000 N 
ATOM      2  C   UNL     1      -4.718  14.690  23.417  0.00  0.00    +0.000 A 
ATOM      3  C   UNL     1      -5.702  13.958  23.952  0.00  0.00    +0.000 A 
ATOM      4  S   UNL     1      -6.604  13.125  22.727  0.00  0.00    +0.000 S 
ATOM      5  C   UNL     1      -5.671  13.938  21.415  0.00  0.00    +0.000 A 
ATOM      6  N   UNL     1      -5.935  13.860  20.154  0.00  0.00    +0.000 NA
ENDROOT
BRANCH   1  11
ATOM      7  N   UNL     1      -1.228  12.789  20.246  0.00  0.00    +0.000 N 
ATOM      8  C   UNL     1      -2.351  13.049  21.023  0.00  0.00    +0.000 C 
ATOM      9  O   UNL     1      -2.902  12.287  21.790  0.00  0.00    +0.000 OA
ATOM     10  C   UNL     1      -2.634  14.555  20.853  0.00  0.00    +0.000 C 
ATOM     11  N   UNL     1      -3.592  15.294  21.335  0.00  0.00    +0.000 NA
ATOM     12  C   UNL     1      -1.504  15.068  20.069  0.00  0.00    +0.000 A 
ATOM     13  C   UNL     1      -1.170  16.366  19.729  0.00  0.00    +0.000 A 
ATOM     14  C   UNL     1       0.051  16.568  19.081  0.00  0.00    +0.000 A 
ATOM     15  C   UNL     1       0.896  15.482  18.783  0.00  0.00    +0.000 A 
ATOM     16  C   UNL     1       0.524  14.174  19.104  0.00  0.00    +0.000 A 
ATOM     17  C   UNL     1      -0.685  13.982  19.752  0.00  0.00    +0.000 A 
BRANCH   7  18
ATOM     18  C   UNL     1      -0.582  11.498  20.223  0.00  0.00    +0.000 C 
BRANCH  18  19
ATOM     19  C   UNL     1      -1.292  10.480  19.325  0.00  0.00    +0.000 C 
BRANCH  19  20
ATOM     20  C   UNL     1      -1.496  10.981  17.894  0.00  0.00    +0.000 C 
BRANCH  20  22
ATOM     21  C   UNL     1      -2.618  10.464  15.707  0.00  0.00    +0.000 C 
ATOM     22  C   UNL     1      -2.096   9.890  17.013  0.00  0.00    +0.000 C 
ENDBRANCH  20  22
ENDBRANCH  19  20
ENDBRANCH  18  19
ENDBRANCH   7  18
ENDBRANCH   1  11
BRANCH   2  23
ATOM     23  C   UNL     1      -3.762  15.421  24.270  0.00  0.00    +0.000 A 
ATOM     24  C   UNL     1      -4.003  16.764  24.601  0.00  0.00    +0.000 A 
ATOM     25  C   UNL     1      -3.077  17.487  25.359  0.00  0.00    +0.000 A 
ATOM     26  C   UNL     1      -1.897  16.881  25.787  0.00  0.00    +0.000 A 
ATOM     27  C   UNL     1      -1.634  15.555  25.442  0.00  0.00    +0.000 A 
ATOM     28  C   UNL     1      -2.558  14.837  24.683  0.00  0.00    +0.000 A 
ATOM     29  F   UNL     1      -2.254  13.582  24.324  0.00  0.00    +0.000 F 
ENDBRANCH   2  23
BRANCH   6  30
ATOM     30  C   UNL     1      -6.867  12.853  19.635  0.00  0.00    +0.000 C 
ATOM     31  C   UNL     1      -7.537  13.269  18.330  0.00  0.00    +0.000 C 
ATOM     32  C   UNL     1      -6.560  13.423  17.176  0.00  0.00    +0.000 C 
ATOM     33  C   UNL     1      -5.611  12.243  16.997  0.00  0.00    +0.000 C 
ATOM     34  C   UNL     1      -5.056  11.651  18.289  0.00  0.00    +0.000 C 
ATOM     35  C   UNL     1      -6.085  11.550  19.412  0.00  0.00    +0.000 C 
ENDBRANCH   6  30
TORSDOF 7
ENDMDL
MODEL 6
REMARK VINA RESULT:      -6.4      1.799      3.520
REMARK  Name = 
REMARK  8 active torsions:
REMARK  status: ('A' for Active; 'I' for Inactive)
REMARK    1  A    between atoms: C_1  and  C_2
REMARK    2  A    between atoms: C_2  and  C_3
REMARK    3  A    between atoms: C_3  and  C_4
REMARK    4  A    between atoms: C_4  and  C_5
REMARK    5  A    between atoms: C_5  and  N_6
REMARK    6  A    between atoms: N_10  and  N_11
REMARK    7  A    between atoms: C_12  and  C_13
REMARK    8  A    between atoms: N_23  and  C_24
REMARK                            x       y       z     vdW  Elec       q    Type
REMARK                         _______ _______ _______ _____ _____    ______ ____
ROOT
ATOM      1  N   UNL     1      -4.085  14.275  21.906  0.00  0.00    +0.000 N 
ATOM      2  C   UNL     1      -4.202  14.439  23.296  0.00  0.00    +0.000 A 
ATOM      3  C   UNL     1      -5.158  13.720  23.895  0.00  0.00    +0.000 A 
ATOM      4  S   UNL     1      -6.008  12.728  22.754  0.00  0.00    +0.000 S 
ATOM      5  C   UNL     1      -5.098  13.447  21.374  0.00  0.00    +0.000 A 
ATOM      6  N   UNL     1      -5.343  13.230  20.125  0.00  0.00    +0.000 NA
ENDROOT
BRANCH   1  11
ATOM      7  N   UNL     1      -0.482  12.449  20.557  0.00  0.00    +0.000 N 
ATOM      8  C   UNL     1      -1.656  12.726  21.247  0.00  0.00    +0.000 C 
ATOM      9  O   UNL     1      -2.182  12.044  22.103  0.00  0.00    +0.000 OA
ATOM     10  C   UNL     1      -2.047  14.162  20.840  0.00  0.00    +0.000 C 
ATOM     11  N   UNL     1      -3.080  14.881  21.171  0.00  0.00    +0.000 NA
ATOM     12  C   UNL     1      -0.925  14.644  20.025  0.00  0.00    +0.000 A 
ATOM     13  C   UNL     1      -0.678  15.900  19.503  0.00  0.00    +0.000 A 
ATOM     14  C   UNL     1       0.552  16.104  18.873  0.00  0.00    +0.000 A 
ATOM     15  C   UNL     1       1.492  15.061  18.773  0.00  0.00    +0.000 A 
ATOM     16  C   UNL     1       1.208  13.788  19.277  0.00  0.00    +0.000 A 
ATOM     17  C   UNL     1      -0.012  13.596  19.906  0.00  0.00    +0.000 A 
BRANCH   7  18
ATOM     18  C   UNL     1       0.262  11.227  20.754  0.00  0.00    +0.000 C 
BRANCH  18  19
ATOM     19  C   UNL     1      -0.341  10.024  20.022  0.00  0.00    +0.000 C 
BRANCH  19  20
ATOM     20  C   UNL     1      -0.552  10.274  18.528  0.00  0.00    +0.000 C 
BRANCH  20  22
ATOM     21  C   UNL     1      -2.228  10.005  16.678  0.00  0.00    +0.000 C 
ATOM     22  C   UNL     1      -2.033  10.222  18.168  0.00  0.00    +0.000 C 
ENDBRANCH  20  22
ENDBRANCH  19  20
ENDBRANCH  18  19
ENDBRANCH   7  18
ENDBRANCH   1  11
BRANCH   2  23
ATOM     23  C   UNL     1      -3.290  15.295  24.077  0.00  0.00    +0.000 A 
ATOM     24  C   UNL     1      -2.083  14.769  24.566  0.00  0.00    +0.000 A 
ATOM     25  C   UNL     1      -1.235  15.550  25.358  0.00  0.00    +0.000 A 
ATOM     26  C   UNL     1      -1.588  16.860  25.678  0.00  0.00    +0.000 A 
ATOM     27  C   UNL     1      -2.797  17.385  25.221  0.00  0.00    +0.000 A 
ATOM     28  C   UNL     1      -3.641  16.602  24.434  0.00  0.00    +0.000 A 
ATOM     29  F   UNL     1      -4.819  17.116  24.052  0.00  0.00    +0.000 F 
ENDBRANCH   2  23
BRANCH   6  30
ATOM     30  C   UNL     1      -6.224  12.134  19.704  0.00  0.00    +0.000 C 
ATOM     31  C   UNL     1      -7.620  12.604  19.309  0.00  0.00    +0.000 C 
ATOM     32  C   UNL     1      -7.627  13.505  18.085  0.00  0.00    +0.000 C 
ATOM     33  C   UNL     1      -6.834  12.961  16.901  0.00  0.00    +0.000 C 
ATOM     34  C   UNL     1      -5.507  12.298  17.255  0.00  0.00    +0.000 C 
ATOM     35  C   UNL     1      -5.567  11.428  18.509  0.00  0.00    +0.000 C 
ENDBRANCH   6  30
TORSDOF 7
ENDMDL
MODEL 7
REMARK VINA RESULT:      -6.4      3.150      6.940
REMARK  Name = 
REMARK  8 active torsions:
REMARK  status: ('A' for Active; 'I' for Inactive)
REMARK    1  A    between atoms: C_1  and  C_2
REMARK    2  A    between atoms: C_2  and  C_3
REMARK    3  A    between atoms: C_3  and  C_4
REMARK    4  A    between atoms: C_4  and  C_5
REMARK    5  A    between atoms: C_5  and  N_6
REMARK    6  A    between atoms: N_10  and  N_11
REMARK    7  A    between atoms: C_12  and  C_13
REMARK    8  A    between atoms: N_23  and  C_24
REMARK                            x       y       z     vdW  Elec       q    Type
REMARK                         _______ _______ _______ _____ _____    ______ ____
ROOT
ATOM      1  N   UNL     1      -0.377  13.699  20.827  0.00  0.00    +0.000 N 
ATOM      2  C   UNL     1       0.531  12.635  20.947  0.00  0.00    +0.000 A 
ATOM      3  C   UNL     1       1.812  12.922  20.692  0.00  0.00    +0.000 A 
ATOM      4  S   UNL     1       2.013  14.597  20.290  0.00  0.00    +0.000 S 
ATOM      5  C   UNL     1       0.233  14.875  20.337  0.00  0.00    +0.000 A 
ATOM      6  N   UNL     1      -0.362  15.965  19.982  0.00  0.00    +0.000 NA
ENDROOT
BRANCH   1  11
ATOM      7  N   UNL     1      -3.380  11.782  18.492  0.00  0.00    +0.000 N 
ATOM      8  C   UNL     1      -2.207  12.407  18.898  0.00  0.00    +0.000 C 
ATOM      9  O   UNL     1      -1.218  12.618  18.226  0.00  0.00    +0.000 OA
ATOM     10  C   UNL     1      -2.492  12.944  20.316  0.00  0.00    +0.000 C 
ATOM     11  N   UNL     1      -1.717  13.570  21.153  0.00  0.00    +0.000 NA
ATOM     12  C   UNL     1      -3.920  12.686  20.539  0.00  0.00    +0.000 A 
ATOM     13  C   UNL     1      -4.742  13.070  21.582  0.00  0.00    +0.000 A 
ATOM     14  C   UNL     1      -6.107  12.793  21.460  0.00  0.00    +0.000 A 
ATOM     15  C   UNL     1      -6.611  12.141  20.319  0.00  0.00    +0.000 A 
ATOM     16  C   UNL     1      -5.757  11.731  19.291  0.00  0.00    +0.000 A 
ATOM     17  C   UNL     1      -4.406  12.014  19.417  0.00  0.00    +0.000 A 
BRANCH   7  18
ATOM     18  C   UNL     1      -3.549  11.239  17.165  0.00  0.00    +0.000 C 
BRANCH  18  19
ATOM     19  C   UNL     1      -2.523  10.156  16.817  0.00  0.00    +0.000 C 
BRANCH  19  20
ATOM     20  C   UNL     1      -2.780   9.499  15.460  0.00  0.00    +0.000 C 
BRANCH  20  22
ATOM     21  C   UNL     1      -4.107   9.773  13.346  0.00  0.00    +0.000 C 
ATOM     22  C   UNL     1      -3.394  10.491  14.478  0.00  0.00    +0.000 C 
ENDBRANCH  20  22
ENDBRANCH  19  20
ENDBRANCH  18  19
ENDBRANCH   7  18
ENDBRANCH   1  11
BRANCH   2  23
ATOM     23  C   UNL     1       0.127  11.289  21.396  0.00  0.00    +0.000 A 
ATOM     24  C   UNL     1      -0.392  11.107  22.688  0.00  0.00    +0.000 A 
ATOM     25  C   UNL     1      -0.724   9.830  23.148  0.00  0.00    +0.000 A 
ATOM     26  C   UNL     1      -0.534   8.719  22.327  0.00  0.00    +0.000 A 
ATOM     27  C   UNL     1       0.007   8.883  21.051  0.00  0.00    +0.000 A 
ATOM     28  C   UNL     1       0.340  10.159  20.597  0.00  0.00    +0.000 A 
ATOM     29  F   UNL     1       0.904  10.280  19.387  0.00  0.00    +0.000 F 
ENDBRANCH   2  23
BRANCH   6  30
ATOM     30  C   UNL     1       0.392  17.205  19.768  0.00  0.00    +0.000 C 
ATOM     31  C   UNL     1       0.799  17.419  18.314  0.00  0.00    +0.000 C 
ATOM     32  C   UNL     1      -0.386  17.601  17.379  0.00  0.00    +0.000 C 
ATOM     33  C   UNL     1      -1.410  18.625  17.858  0.00  0.00    +0.000 C 
ATOM     34  C   UNL     1      -1.715  18.592  19.352  0.00  0.00    +0.000 C 
ATOM     35  C   UNL     1      -0.483  18.380  20.229  0.00  0.00    +0.000 C 
ENDBRANCH   6  30
TORSDOF 7
ENDMDL
MODEL 8
REMARK VINA RESULT:      -6.4      2.394      5.715
REMARK  Name = 
REMARK  8 active torsions:
REMARK  status: ('A' for Active; 'I' for Inactive)
REMARK    1  A    between atoms: C_1  and  C_2
REMARK    2  A    between atoms: C_2  and  C_3
REMARK    3  A    between atoms: C_3  and  C_4
REMARK    4  A    between atoms: C_4  and  C_5
REMARK    5  A    between atoms: C_5  and  N_6
REMARK    6  A    between atoms: N_10  and  N_11
REMARK    7  A    between atoms: C_12  and  C_13
REMARK    8  A    between atoms: N_23  and  C_24
REMARK                            x       y       z     vdW  Elec       q    Type
REMARK                         _______ _______ _______ _____ _____    ______ ____
ROOT
ATOM      1  N   UNL     1      -2.449  14.700  21.626  0.00  0.00    +0.000 N 
ATOM      2  C   UNL     1      -3.820  14.985  21.519  0.00  0.00    +0.000 A 
ATOM      3  C   UNL     1      -4.139  16.104  20.859  0.00  0.00    +0.000 A 
ATOM      4  S   UNL     1      -2.722  16.915  20.275  0.00  0.00    +0.000 S 
ATOM      5  C   UNL     1      -1.641  15.733  21.101  0.00  0.00    +0.000 A 
ATOM      6  N   UNL     1      -0.357  15.831  21.188  0.00  0.00    +0.000 NA
ENDROOT
BRANCH   1  11
ATOM      7  N   UNL     1      -0.999  11.276  19.550  0.00  0.00    +0.000 N 
ATOM      8  C   UNL     1      -1.633  12.472  19.864  0.00  0.00    +0.000 C 
ATOM      9  O   UNL     1      -2.243  13.200  19.107  0.00  0.00    +0.000 OA
ATOM     10  C   UNL     1      -1.567  12.585  21.401  0.00  0.00    +0.000 C 
ATOM     11  N   UNL     1      -1.978  13.530  22.197  0.00  0.00    +0.000 NA
ATOM     12  C   UNL     1      -0.998  11.308  21.851  0.00  0.00    +0.000 A 
ATOM     13  C   UNL     1      -0.831  10.809  23.129  0.00  0.00    +0.000 A 
ATOM     14  C   UNL     1      -0.379   9.492  23.251  0.00  0.00    +0.000 A 
ATOM     15  C   UNL     1      -0.102   8.717  22.109  0.00  0.00    +0.000 A 
ATOM     16  C   UNL     1      -0.245   9.253  20.826  0.00  0.00    +0.000 A 
ATOM     17  C   UNL     1      -0.699  10.558  20.713  0.00  0.00    +0.000 A 
BRANCH   7  18
ATOM     18  C   UNL     1      -0.946  10.758  18.203  0.00  0.00    +0.000 C 
BRANCH  18  19
ATOM     19  C   UNL     1      -2.216  10.008  17.791  0.00  0.00    +0.000 C 
BRANCH  19  20
ATOM     20  C   UNL     1      -2.469  10.038  16.282  0.00  0.00    +0.000 C 
BRANCH  20  22
ATOM     21  C   UNL     1      -4.474  11.273  17.156  0.00  0.00    +0.000 C 
ATOM     22  C   UNL     1      -3.614  10.986  15.938  0.00  0.00    +0.000 C 
ENDBRANCH  20  22
ENDBRANCH  19  20
ENDBRANCH  18  19
ENDBRANCH   7  18
ENDBRANCH   1  11
BRANCH   2  23
ATOM     23  C   UNL     1      -4.864  14.081  22.036  0.00  0.00    +0.000 A 
ATOM     24  C   UNL     1      -5.466  13.144  21.181  0.00  0.00    +0.000 A 
ATOM     25  C   UNL     1      -6.498  12.321  21.641  0.00  0.00    +0.000 A 
ATOM     26  C   UNL     1      -6.947  12.431  22.956  0.00  0.00    +0.000 A 
ATOM     27  C   UNL     1      -6.376  13.376  23.808  0.00  0.00    +0.000 A 
ATOM     28  C   UNL     1      -5.348  14.198  23.345  0.00  0.00    +0.000 A 
ATOM     29  F   UNL     1      -4.854  15.131  24.170  0.00  0.00    +0.000 F 
ENDBRANCH   2  23
BRANCH   6  30
ATOM     30  C   UNL     1       0.389  16.786  20.360  0.00  0.00    +0.000 C 
ATOM     31  C   UNL     1       1.752  17.147  20.939  0.00  0.00    +0.000 C 
ATOM     32  C   UNL     1       2.709  15.968  21.004  0.00  0.00    +0.000 C 
ATOM     33  C   UNL     1       2.815  15.175  19.705  0.00  0.00    +0.000 C 
ATOM     34  C   UNL     1       1.497  14.949  18.971  0.00  0.00    +0.000 C 
ATOM     35  C   UNL     1       0.576  16.166  18.967  0.00  0.00    +0.000 C 
ENDBRANCH   6  30
TORSDOF 7
ENDMDL
MODEL 9
REMARK VINA RESULT:      -6.3      1.677      2.756
REMARK  Name = 
REMARK  8 active torsions:
REMARK  status: ('A' for Active; 'I' for Inactive)
REMARK    1  A    between atoms: C_1  and  C_2
REMARK    2  A    between atoms: C_2  and  C_3
REMARK    3  A    between atoms: C_3  and  C_4
REMARK    4  A    between atoms: C_4  and  C_5
REMARK    5  A    between atoms: C_5  and  N_6
REMARK    6  A    between atoms: N_10  and  N_11
REMARK    7  A    between atoms: C_12  and  C_13
REMARK    8  A    between atoms: N_23  and  C_24
REMARK                            x       y       z     vdW  Elec       q    Type
REMARK                         _______ _______ _______ _____ _____    ______ ____
ROOT
ATOM      1  N   UNL     1      -3.685  13.937  21.761  0.00  0.00    +0.000 N 
ATOM      2  C   UNL     1      -3.484  15.241  22.240  0.00  0.00    +0.000 A 
ATOM      3  C   UNL     1      -4.264  16.190  21.709  0.00  0.00    +0.000 A 
ATOM      4  S   UNL     1      -5.365  15.522  20.548  0.00  0.00    +0.000 S 
ATOM      5  C   UNL     1      -4.617  13.889  20.701  0.00  0.00    +0.000 A 
ATOM      6  N   UNL     1      -4.898  12.868  19.962  0.00  0.00    +0.000 NA
ENDROOT
BRANCH   1  11
ATOM      7  N   UNL     1       0.010  12.322  20.390  0.00  0.00    +0.000 N 
ATOM      8  C   UNL     1      -1.190  13.018  20.470  0.00  0.00    +0.000 C 
ATOM      9  O   UNL     1      -1.658  13.768  19.638  0.00  0.00    +0.000 OA
ATOM     10  C   UNL     1      -1.890  12.494  21.740  0.00  0.00    +0.000 C 
ATOM     11  N   UNL     1      -3.018  12.843  22.287  0.00  0.00    +0.000 NA
ATOM     12  C   UNL     1      -1.045  11.389  22.211  0.00  0.00    +0.000 A 
ATOM     13  C   UNL     1      -1.253  10.480  23.231  0.00  0.00    +0.000 A 
ATOM     14  C   UNL     1      -0.327   9.442  23.367  0.00  0.00    +0.000 A 
ATOM     15  C   UNL     1       0.775   9.341  22.497  0.00  0.00    +0.000 A 
ATOM     16  C   UNL     1       0.986  10.291  21.493  0.00  0.00    +0.000 A 
ATOM     17  C   UNL     1       0.060  11.314  21.361  0.00  0.00    +0.000 A 
BRANCH   7  18
ATOM     18  C   UNL     1       0.912  12.456  19.270  0.00  0.00    +0.000 C 
BRANCH  18  19
ATOM     19  C   UNL     1       0.741  11.357  18.218  0.00  0.00    +0.000 C 
BRANCH  19  20
ATOM     20  C   UNL     1       1.967  10.450  18.092  0.00  0.00    +0.000 C 
BRANCH  20  22
ATOM     21  C   UNL     1       2.747   8.066  17.968  0.00  0.00    +0.000 C 
ATOM     22  C   UNL     1       1.553   8.999  17.866  0.00  0.00    +0.000 C 
ENDBRANCH  20  22
ENDBRANCH  19  20
ENDBRANCH  18  19
ENDBRANCH   7  18
ENDBRANCH   1  11
BRANCH   2  23
ATOM     23  C   UNL     1      -2.525  15.556  23.315  0.00  0.00    +0.000 A 
ATOM     24  C   UNL     1      -1.238  16.016  22.993  0.00  0.00    +0.000 A 
ATOM     25  C   UNL     1      -0.298  16.263  23.998  0.00  0.00    +0.000 A 
ATOM     26  C   UNL     1      -0.629  16.044  25.335  0.00  0.00    +0.000 A 
ATOM     27  C   UNL     1      -1.895  15.560  25.666  0.00  0.00    +0.000 A 
ATOM     28  C   UNL     1      -2.829  15.312  24.660  0.00  0.00    +0.000 A 
ATOM     29  F   UNL     1      -4.019  14.800  25.004  0.00  0.00    +0.000 F 
ENDBRANCH   2  23
BRANCH   6  30
ATOM     30  C   UNL     1      -6.081  12.862  19.094  0.00  0.00    +0.000 C 
ATOM     31  C   UNL     1      -5.916  11.984  17.859  0.00  0.00    +0.000 C 
ATOM     32  C   UNL     1      -5.755  10.509  18.188  0.00  0.00    +0.000 C 
ATOM     33  C   UNL     1      -6.799   9.965  19.158  0.00  0.00    +0.000 C 
ATOM     34  C   UNL     1      -7.155  10.891  20.317  0.00  0.00    +0.000 C 
ATOM     35  C   UNL     1      -7.275  12.360  19.919  0.00  0.00    +0.000 C 
ENDBRANCH   6  30
TORSDOF 7
ENDMDL
