MODEL 1
REMARK VINA RESULT:      -7.5      0.000      0.000
REMARK  Name = 
REMARK  9 active torsions:
REMARK  status: ('A' for Active; 'I' for Inactive)
REMARK    1  A    between atoms: C_1  and  C_2
REMARK    2  A    between atoms: C_2  and  C_3
REMARK    3  A    between atoms: C_3  and  N_4
REMARK    4  A    between atoms: N_4  and  C_5
REMARK    5  A    between atoms: C_5  and  C_6
REMARK    6  A    between atoms: C_6  and  O_7
REMARK    7  A    between atoms: C_6  and  C_8
REMARK    8  A    between atoms: C_8  and  O_9
REMARK    9  A    between atoms: O_9  and  N_10
REMARK                            x       y       z     vdW  Elec       q    Type
REMARK                         _______ _______ _______ _____ _____    ______ ____
ROOT
ATOM      1  N   UNL     1       5.620   5.529  15.494  0.00  0.00    +0.000 NA
ATOM      2  C   UNL     1       5.768   5.596  16.785  0.00  0.00    +0.000 C 
ATOM      3  C   UNL     1       7.083   6.009  17.443  0.00  0.00    +0.000 C 
ATOM      4  C   UNL     1       7.004   6.173  18.952  0.00  0.00    +0.000 C 
ATOM      5  C   UNL     1       6.908   4.815  19.647  0.00  0.00    +0.000 C 
ATOM      6  O   UNL     1       6.021   3.871  19.028  0.00  0.00    +0.000 OA
ATOM      7  C   UNL     1       4.785   4.401  18.755  0.00  0.00    +0.000 A 
ATOM      8  C   UNL     1       4.619   5.247  17.651  0.00  0.00    +0.000 A 
ATOM      9  C   UNL     1       3.369   5.784  17.349  0.00  0.00    +0.000 A 
ATOM     10  C   UNL     1       2.272   5.467  18.151  0.00  0.00    +0.000 A 
ATOM     11  C   UNL     1       2.404   4.572  19.226  0.00  0.00    +0.000 A 
ATOM     12  C   UNL     1       1.283   4.217  19.993  0.00  0.00    +0.000 A 
ATOM     13  C   UNL     1       1.392   3.292  21.031  0.00  0.00    +0.000 A 
ATOM     14  C   UNL     1       2.625   2.712  21.317  0.00  0.00    +0.000 A 
ATOM     15  C   UNL     1       3.753   3.071  20.579  0.00  0.00    +0.000 A 
ATOM     16  C   UNL     1       3.668   4.009  19.527  0.00  0.00    +0.000 A 
ENDROOT
BRANCH   1  17
ATOM     17  O   UNL     1       6.808   5.886  14.850  0.00  0.00    +0.000 OA
BRANCH  17  18
ATOM     18  C   UNL     1       7.336   4.750  14.162  0.00  0.00    +0.000 C 
BRANCH  18  19
ATOM     19  C   UNL     1       6.149   3.943  13.628  0.00  0.00    +0.000 C 
BRANCH  19  20
ATOM     20  O   UNL     1       5.830   2.885  14.551  0.00  0.00    +0.000 OA
ATOM     21  H   UNL     1       6.453   2.977  15.295  0.00  0.00    +0.000 HD
ENDBRANCH  19  20
BRANCH  19  22
ATOM     22  C   UNL     1       6.481   3.332  12.252  0.00  0.00    +0.000 C 
BRANCH  22  23
ATOM     23  N   UNL     1       5.308   2.649  11.696  0.00  0.00    +0.000 NA
ATOM     24  H   UNL     1       5.568   2.246  10.792  0.00  0.00    +0.000 HD
BRANCH  23  25
ATOM     25  C   UNL     1       4.186   3.569  11.556  0.00  0.00    +0.000 C 
BRANCH  25  27
ATOM     26  C   UNL     1       2.879   4.292   9.541  0.00  0.00    +0.000 C 
ATOM     27  C   UNL     1       3.278   3.115  10.416  0.00  0.00    +0.000 C 
ENDBRANCH  25  27
ENDBRANCH  23  25
ENDBRANCH  22  23
ENDBRANCH  19  22
ENDBRANCH  18  19
ENDBRANCH  17  18
ENDBRANCH   1  17
TORSDOF 8
ENDMDL
MODEL 2
REMARK VINA RESULT:      -7.3      1.548      2.033
REMARK  Name = 
REMARK  9 active torsions:
REMARK  status: ('A' for Active; 'I' for Inactive)
REMARK    1  A    between atoms: C_1  and  C_2
REMARK    2  A    between atoms: C_2  and  C_3
REMARK    3  A    between atoms: C_3  and  N_4
REMARK    4  A    between atoms: N_4  and  C_5
REMARK    5  A    between atoms: C_5  and  C_6
REMARK    6  A    between atoms: C_6  and  O_7
REMARK    7  A    between atoms: C_6  and  C_8
REMARK    8  A    between atoms: C_8  and  O_9
REMARK    9  A    between atoms: O_9  and  N_10
REMARK                            x       y       z     vdW  Elec       q    Type
REMARK                         _______ _______ _______ _____ _____    ______ ____
ROOT
ATOM      1  N   UNL     1       5.818   3.561  15.498  0.00  0.00    +0.000 NA
ATOM      2  C   UNL     1       5.632   4.236  16.595  0.00  0.00    +0.000 C 
ATOM      3  C   UNL     1       6.629   5.276  17.102  0.00  0.00    +0.000 C 
ATOM      4  C   UNL     1       6.155   6.060  18.313  0.00  0.00    +0.000 C 
ATOM      5  C   UNL     1       6.187   5.196  19.573  0.00  0.00    +0.000 C 
ATOM      6  O   UNL     1       5.700   3.855  19.410  0.00  0.00    +0.000 OA
ATOM      7  C   UNL     1       4.482   3.805  18.779  0.00  0.00    +0.000 A 
ATOM      8  C   UNL     1       4.411   3.977  17.391  0.00  0.00    +0.000 A 
ATOM      9  C   UNL     1       3.185   3.915  16.730  0.00  0.00    +0.000 A 
ATOM     10  C   UNL     1       2.021   3.671  17.460  0.00  0.00    +0.000 A 
ATOM     11  C   UNL     1       2.079   3.434  18.844  0.00  0.00    +0.000 A 
ATOM     12  C   UNL     1       0.909   3.135  19.560  0.00  0.00    +0.000 A 
ATOM     13  C   UNL     1       0.960   2.849  20.924  0.00  0.00    +0.000 A 
ATOM     14  C   UNL     1       2.181   2.863  21.590  0.00  0.00    +0.000 A 
ATOM     15  C   UNL     1       3.351   3.181  20.897  0.00  0.00    +0.000 A 
ATOM     16  C   UNL     1       3.323   3.478  19.518  0.00  0.00    +0.000 A 
ENDROOT
BRANCH   1  17
ATOM     17  O   UNL     1       7.021   3.936  14.895  0.00  0.00    +0.000 OA
BRANCH  17  18
ATOM     18  C   UNL     1       6.775   4.973  13.944  0.00  0.00    +0.000 C 
BRANCH  18  19
ATOM     19  C   UNL     1       7.711   4.739  12.756  0.00  0.00    +0.000 C 
BRANCH  19  20
ATOM     20  O   UNL     1       8.026   5.998  12.132  0.00  0.00    +0.000 OA
ATOM     21  H   UNL     1       8.303   6.594  12.851  0.00  0.00    +0.000 HD
ENDBRANCH  19  20
BRANCH  19  22
ATOM     22  C   UNL     1       7.050   3.811  11.716  0.00  0.00    +0.000 C 
BRANCH  22  23
ATOM     23  N   UNL     1       5.677   3.485  12.116  0.00  0.00    +0.000 NA
ATOM     24  H   UNL     1       5.633   3.469  13.138  0.00  0.00    +0.000 HD
BRANCH  23  25
ATOM     25  C   UNL     1       5.260   2.206  11.554  0.00  0.00    +0.000 C 
BRANCH  25  27
ATOM     26  C   UNL     1       6.165  -0.112  11.233  0.00  0.00    +0.000 C 
ATOM     27  C   UNL     1       6.486   1.373  11.186  0.00  0.00    +0.000 C 
ENDBRANCH  25  27
ENDBRANCH  23  25
ENDBRANCH  22  23
ENDBRANCH  19  22
ENDBRANCH  18  19
ENDBRANCH  17  18
ENDBRANCH   1  17
TORSDOF 8
ENDMDL
MODEL 3
REMARK VINA RESULT:      -7.2      1.332      1.476
REMARK  Name = 
REMARK  9 active torsions:
REMARK  status: ('A' for Active; 'I' for Inactive)
REMARK    1  A    between atoms: C_1  and  C_2
REMARK    2  A    between atoms: C_2  and  C_3
REMARK    3  A    between atoms: C_3  and  N_4
REMARK    4  A    between atoms: N_4  and  C_5
REMARK    5  A    between atoms: C_5  and  C_6
REMARK    6  A    between atoms: C_6  and  O_7
REMARK    7  A    between atoms: C_6  and  C_8
REMARK    8  A    between atoms: C_8  and  O_9
REMARK    9  A    between atoms: O_9  and  N_10
REMARK                            x       y       z     vdW  Elec       q    Type
REMARK                         _______ _______ _______ _____ _____    ______ ____
ROOT
ATOM      1  N   UNL     1       5.716   3.519  15.480  0.00  0.00    +0.000 NA
ATOM      2  C   UNL     1       5.546   4.215  16.566  0.00  0.00    +0.000 C 
ATOM      3  C   UNL     1       6.535   5.286  17.022  0.00  0.00    +0.000 C 
ATOM      4  C   UNL     1       6.077   6.089  18.228  0.00  0.00    +0.000 C 
ATOM      5  C   UNL     1       6.161   5.254  19.506  0.00  0.00    +0.000 C 
ATOM      6  O   UNL     1       5.696   3.901  19.385  0.00  0.00    +0.000 OA
ATOM      7  C   UNL     1       4.463   3.812  18.789  0.00  0.00    +0.000 A 
ATOM      8  C   UNL     1       4.351   3.951  17.400  0.00  0.00    +0.000 A 
ATOM      9  C   UNL     1       3.110   3.850  16.774  0.00  0.00    +0.000 A 
ATOM     10  C   UNL     1       1.971   3.600  17.540  0.00  0.00    +0.000 A 
ATOM     11  C   UNL     1       2.070   3.396  18.927  0.00  0.00    +0.000 A 
ATOM     12  C   UNL     1       0.926   3.090  19.681  0.00  0.00    +0.000 A 
ATOM     13  C   UNL     1       1.019   2.837  21.049  0.00  0.00    +0.000 A 
ATOM     14  C   UNL     1       2.257   2.890  21.682  0.00  0.00    +0.000 A 
ATOM     15  C   UNL     1       3.401   3.215  20.951  0.00  0.00    +0.000 A 
ATOM     16  C   UNL     1       3.331   3.479  19.566  0.00  0.00    +0.000 A 
ENDROOT
BRANCH   1  17
ATOM     17  O   UNL     1       6.895   3.904  14.836  0.00  0.00    +0.000 OA
BRANCH  17  18
ATOM     18  C   UNL     1       6.583   4.434  13.546  0.00  0.00    +0.000 C 
BRANCH  18  19
ATOM     19  C   UNL     1       6.284   3.249  12.623  0.00  0.00    +0.000 C 
BRANCH  19  20
ATOM     20  O   UNL     1       7.064   3.366  11.418  0.00  0.00    +0.000 OA
ATOM     21  H   UNL     1       6.595   4.008  10.854  0.00  0.00    +0.000 HD
ENDBRANCH  19  20
BRANCH  19  22
ATOM     22  C   UNL     1       4.788   3.210  12.255  0.00  0.00    +0.000 C 
BRANCH  22  23
ATOM     23  N   UNL     1       4.564   3.822  10.940  0.00  0.00    +0.000 NA
ATOM     24  H   UNL     1       4.785   4.818  11.007  0.00  0.00    +0.000 HD
BRANCH  23  25
ATOM     25  C   UNL     1       3.190   3.618  10.497  0.00  0.00    +0.000 C 
BRANCH  25  27
ATOM     26  C   UNL     1       2.044   5.157   8.881  0.00  0.00    +0.000 C 
ATOM     27  C   UNL     1       3.049   4.027   9.032  0.00  0.00    +0.000 C 
ENDBRANCH  25  27
ENDBRANCH  23  25
ENDBRANCH  22  23
ENDBRANCH  19  22
ENDBRANCH  18  19
ENDBRANCH  17  18
ENDBRANCH   1  17
TORSDOF 8
ENDMDL
MODEL 4
REMARK VINA RESULT:      -7.1      1.498      1.889
REMARK  Name = 
REMARK  9 active torsions:
REMARK  status: ('A' for Active; 'I' for Inactive)
REMARK    1  A    between atoms: C_1  and  C_2
REMARK    2  A    between atoms: C_2  and  C_3
REMARK    3  A    between atoms: C_3  and  N_4
REMARK    4  A    between atoms: N_4  and  C_5
REMARK    5  A    between atoms: C_5  and  C_6
REMARK    6  A    between atoms: C_6  and  O_7
REMARK    7  A    between atoms: C_6  and  C_8
REMARK    8  A    between atoms: C_8  and  O_9
REMARK    9  A    between atoms: O_9  and  N_10
REMARK                            x       y       z     vdW  Elec       q    Type
REMARK                         _______ _______ _______ _____ _____    ______ ____
ROOT
ATOM      1  N   UNL     1       5.840   4.813  16.042  0.00  0.00    +0.000 NA
ATOM      2  C   UNL     1       4.845   5.384  16.655  0.00  0.00    +0.000 C 
ATOM      3  C   UNL     1       4.564   6.881  16.553  0.00  0.00    +0.000 C 
ATOM      4  C   UNL     1       3.270   7.323  17.216  0.00  0.00    +0.000 C 
ATOM      5  C   UNL     1       3.398   7.298  18.738  0.00  0.00    +0.000 C 
ATOM      6  O   UNL     1       4.071   6.151  19.279  0.00  0.00    +0.000 OA
ATOM      7  C   UNL     1       3.588   4.967  18.782  0.00  0.00    +0.000 A 
ATOM      8  C   UNL     1       3.956   4.550  17.496  0.00  0.00    +0.000 A 
ATOM      9  C   UNL     1       3.487   3.344  16.979  0.00  0.00    +0.000 A 
ATOM     10  C   UNL     1       2.649   2.542  17.754  0.00  0.00    +0.000 A 
ATOM     11  C   UNL     1       2.317   2.912  19.069  0.00  0.00    +0.000 A 
ATOM     12  C   UNL     1       1.518   2.071  19.860  0.00  0.00    +0.000 A 
ATOM     13  C   UNL     1       1.223   2.404  21.183  0.00  0.00    +0.000 A 
ATOM     14  C   UNL     1       1.721   3.583  21.729  0.00  0.00    +0.000 A 
ATOM     15  C   UNL     1       2.498   4.441  20.948  0.00  0.00    +0.000 A 
ATOM     16  C   UNL     1       2.806   4.128  19.607  0.00  0.00    +0.000 A 
ENDROOT
BRANCH   1  17
ATOM     17  O   UNL     1       6.565   5.756  15.309  0.00  0.00    +0.000 OA
BRANCH  17  18
ATOM     18  C   UNL     1       7.183   5.118  14.190  0.00  0.00    +0.000 C 
BRANCH  18  19
ATOM     19  C   UNL     1       6.201   4.072  13.657  0.00  0.00    +0.000 C 
BRANCH  19  20
ATOM     20  O   UNL     1       6.150   2.951  14.560  0.00  0.00    +0.000 OA
ATOM     21  H   UNL     1       5.620   3.243  15.325  0.00  0.00    +0.000 HD
ENDBRANCH  19  20
BRANCH  19  22
ATOM     22  C   UNL     1       6.634   3.578  12.263  0.00  0.00    +0.000 C 
BRANCH  22  23
ATOM     23  N   UNL     1       5.562   2.794  11.638  0.00  0.00    +0.000 NA
ATOM     24  H   UNL     1       5.827   2.600  10.669  0.00  0.00    +0.000 HD
BRANCH  23  25
ATOM     25  C   UNL     1       4.291   3.505  11.701  0.00  0.00    +0.000 C 
BRANCH  25  27
ATOM     26  C   UNL     1       2.981   4.203   9.679  0.00  0.00    +0.000 C 
ATOM     27  C   UNL     1       3.376   3.038  10.571  0.00  0.00    +0.000 C 
ENDBRANCH  25  27
ENDBRANCH  23  25
ENDBRANCH  22  23
ENDBRANCH  19  22
ENDBRANCH  18  19
ENDBRANCH  17  18
ENDBRANCH   1  17
TORSDOF 8
ENDMDL
MODEL 5
REMARK VINA RESULT:      -7.1      1.196      1.632
REMARK  Name = 
REMARK  9 active torsions:
REMARK  status: ('A' for Active; 'I' for Inactive)
REMARK    1  A    between atoms: C_1  and  C_2
REMARK    2  A    between atoms: C_2  and  C_3
REMARK    3  A    between atoms: C_3  and  N_4
REMARK    4  A    between atoms: N_4  and  C_5
REMARK    5  A    between atoms: C_5  and  C_6
REMARK    6  A    between atoms: C_6  and  O_7
REMARK    7  A    between atoms: C_6  and  C_8
REMARK    8  A    between atoms: C_8  and  O_9
REMARK    9  A    between atoms: O_9  and  N_10
REMARK                            x       y       z     vdW  Elec       q    Type
REMARK                         _______ _______ _______ _____ _____    ______ ____
ROOT
ATOM      1  N   UNL     1       5.375   5.529  15.438  0.00  0.00    +0.000 NA
ATOM      2  C   UNL     1       5.563   5.585  16.725  0.00  0.00    +0.000 C 
ATOM      3  C   UNL     1       6.892   6.012  17.346  0.00  0.00    +0.000 C 
ATOM      4  C   UNL     1       6.858   6.160  18.857  0.00  0.00    +0.000 C 
ATOM      5  C   UNL     1       6.805   4.794  19.541  0.00  0.00    +0.000 C 
ATOM      6  O   UNL     1       5.913   3.842  18.940  0.00  0.00    +0.000 OA
ATOM      7  C   UNL     1       4.661   4.355  18.712  0.00  0.00    +0.000 A 
ATOM      8  C   UNL     1       4.448   5.210  17.623  0.00  0.00    +0.000 A 
ATOM      9  C   UNL     1       3.180   5.729  17.366  0.00  0.00    +0.000 A 
ATOM     10  C   UNL     1       2.115   5.388  18.199  0.00  0.00    +0.000 A 
ATOM     11  C   UNL     1       2.294   4.483  19.260  0.00  0.00    +0.000 A 
ATOM     12  C   UNL     1       1.204   4.103  20.059  0.00  0.00    +0.000 A 
ATOM     13  C   UNL     1       1.360   3.169  21.083  0.00  0.00    +0.000 A 
ATOM     14  C   UNL     1       2.610   2.606  21.323  0.00  0.00    +0.000 A 
ATOM     15  C   UNL     1       3.709   2.991  20.553  0.00  0.00    +0.000 A 
ATOM     16  C   UNL     1       3.576   3.938  19.515  0.00  0.00    +0.000 A 
ENDROOT
BRANCH   1  17
ATOM     17  O   UNL     1       6.536   5.911  14.761  0.00  0.00    +0.000 OA
BRANCH  17  18
ATOM     18  C   UNL     1       6.980   4.834  13.933  0.00  0.00    +0.000 C 
BRANCH  18  19
ATOM     19  C   UNL     1       5.794   3.887  13.736  0.00  0.00    +0.000 C 
BRANCH  19  20
ATOM     20  O   UNL     1       5.853   2.827  14.709  0.00  0.00    +0.000 OA
ATOM     21  H   UNL     1       5.007   2.347  14.638  0.00  0.00    +0.000 HD
ENDBRANCH  19  20
BRANCH  19  22
ATOM     22  C   UNL     1       5.815   3.275  12.321  0.00  0.00    +0.000 C 
BRANCH  22  23
ATOM     23  N   UNL     1       7.184   2.920  11.933  0.00  0.00    +0.000 NA
ATOM     24  H   UNL     1       7.603   3.723  11.457  0.00  0.00    +0.000 HD
BRANCH  23  25
ATOM     25  C   UNL     1       7.195   1.741  11.076  0.00  0.00    +0.000 C 
BRANCH  25  27
ATOM     26  C   UNL     1       6.135  -0.519  11.328  0.00  0.00    +0.000 C 
ATOM     27  C   UNL     1       5.881   0.976  11.227  0.00  0.00    +0.000 C 
ENDBRANCH  25  27
ENDBRANCH  23  25
ENDBRANCH  22  23
ENDBRANCH  19  22
ENDBRANCH  18  19
ENDBRANCH  17  18
ENDBRANCH   1  17
TORSDOF 8
ENDMDL
MODEL 6
REMARK VINA RESULT:      -7.1      4.556      7.982
REMARK  Name = 
REMARK  9 active torsions:
REMARK  status: ('A' for Active; 'I' for Inactive)
REMARK    1  A    between atoms: C_1  and  C_2
REMARK    2  A    between atoms: C_2  and  C_3
REMARK    3  A    between atoms: C_3  and  N_4
REMARK    4  A    between atoms: N_4  and  C_5
REMARK    5  A    between atoms: C_5  and  C_6
REMARK    6  A    between atoms: C_6  and  O_7
REMARK    7  A    between atoms: C_6  and  C_8
REMARK    8  A    between atoms: C_8  and  O_9
REMARK    9  A    between atoms: O_9  and  N_10
REMARK                            x       y       z     vdW  Elec       q    Type
REMARK                         _______ _______ _______ _____ _____    ______ ____
ROOT
ATOM      1  N   UNL     1       1.981   8.005  20.438  0.00  0.00    +0.000 NA
ATOM      2  C   UNL     1       2.153   6.797  19.986  0.00  0.00    +0.000 C 
ATOM      3  C   UNL     1       1.441   5.585  20.581  0.00  0.00    +0.000 C 
ATOM      4  C   UNL     1       1.658   4.291  19.814  0.00  0.00    +0.000 C 
ATOM      5  C   UNL     1       3.073   3.756  20.031  0.00  0.00    +0.000 C 
ATOM      6  O   UNL     1       4.115   4.742  19.990  0.00  0.00    +0.000 OA
ATOM      7  C   UNL     1       4.034   5.557  18.889  0.00  0.00    +0.000 A 
ATOM      8  C   UNL     1       3.086   6.588  18.855  0.00  0.00    +0.000 A 
ATOM      9  C   UNL     1       2.998   7.435  17.752  0.00  0.00    +0.000 A 
ATOM     10  C   UNL     1       3.868   7.257  16.676  0.00  0.00    +0.000 A 
ATOM     11  C   UNL     1       4.866   6.269  16.716  0.00  0.00    +0.000 A 
ATOM     12  C   UNL     1       5.772   6.133  15.652  0.00  0.00    +0.000 A 
ATOM     13  C   UNL     1       6.797   5.189  15.703  0.00  0.00    +0.000 A 
ATOM     14  C   UNL     1       6.927   4.365  16.817  0.00  0.00    +0.000 A 
ATOM     15  C   UNL     1       6.021   4.472  17.874  0.00  0.00    +0.000 A 
ATOM     16  C   UNL     1       4.973   5.417  17.843  0.00  0.00    +0.000 A 
ENDROOT
BRANCH   1  17
ATOM     17  O   UNL     1       1.077   8.000  21.503  0.00  0.00    +0.000 OA
BRANCH  17  18
ATOM     18  C   UNL     1       1.328   9.126  22.346  0.00  0.00    +0.000 C 
BRANCH  18  19
ATOM     19  C   UNL     1      -0.028   9.738  22.711  0.00  0.00    +0.000 C 
BRANCH  19  20
ATOM     20  O   UNL     1      -0.983   8.688  22.954  0.00  0.00    +0.000 OA
ATOM     21  H   UNL     1      -0.543   8.054  23.550  0.00  0.00    +0.000 HD
ENDBRANCH  19  20
BRANCH  19  22
ATOM     22  C   UNL     1      -0.544  10.637  21.570  0.00  0.00    +0.000 C 
BRANCH  22  23
ATOM     23  N   UNL     1      -0.594   9.891  20.308  0.00  0.00    +0.000 NA
ATOM     24  H   UNL     1       0.313   9.440  20.164  0.00  0.00    +0.000 HD
BRANCH  23  25
ATOM     25  C   UNL     1      -0.924  10.772  19.194  0.00  0.00    +0.000 C 
BRANCH  25  27
ATOM     26  C   UNL     1      -1.987   9.994  17.059  0.00  0.00    +0.000 C 
ATOM     27  C   UNL     1      -0.702  10.044  17.870  0.00  0.00    +0.000 C 
ENDBRANCH  25  27
ENDBRANCH  23  25
ENDBRANCH  22  23
ENDBRANCH  19  22
ENDBRANCH  18  19
ENDBRANCH  17  18
ENDBRANCH   1  17
TORSDOF 8
ENDMDL
MODEL 7
REMARK VINA RESULT:      -6.9      0.851      1.138
REMARK  Name = 
REMARK  9 active torsions:
REMARK  status: ('A' for Active; 'I' for Inactive)
REMARK    1  A    between atoms: C_1  and  C_2
REMARK    2  A    between atoms: C_2  and  C_3
REMARK    3  A    between atoms: C_3  and  N_4
REMARK    4  A    between atoms: N_4  and  C_5
REMARK    5  A    between atoms: C_5  and  C_6
REMARK    6  A    between atoms: C_6  and  O_7
REMARK    7  A    between atoms: C_6  and  C_8
REMARK    8  A    between atoms: C_8  and  O_9
REMARK    9  A    between atoms: O_9  and  N_10
REMARK                            x       y       z     vdW  Elec       q    Type
REMARK                         _______ _______ _______ _____ _____    ______ ____
ROOT
ATOM      1  N   UNL     1       5.238   5.386  15.315  0.00  0.00    +0.000 NA
ATOM      2  C   UNL     1       5.436   5.502  16.596  0.00  0.00    +0.000 C 
ATOM      3  C   UNL     1       6.760   5.984  17.185  0.00  0.00    +0.000 C 
ATOM      4  C   UNL     1       6.736   6.197  18.689  0.00  0.00    +0.000 C 
ATOM      5  C   UNL     1       6.719   4.861  19.431  0.00  0.00    +0.000 C 
ATOM      6  O   UNL     1       5.844   3.865  18.881  0.00  0.00    +0.000 OA
ATOM      7  C   UNL     1       4.579   4.340  18.644  0.00  0.00    +0.000 A 
ATOM      8  C   UNL     1       4.337   5.142  17.520  0.00  0.00    +0.000 A 
ATOM      9  C   UNL     1       3.056   5.622  17.254  0.00  0.00    +0.000 A 
ATOM     10  C   UNL     1       2.006   5.294  18.111  0.00  0.00    +0.000 A 
ATOM     11  C   UNL     1       2.214   4.441  19.208  0.00  0.00    +0.000 A 
ATOM     12  C   UNL     1       1.140   4.073  20.033  0.00  0.00    +0.000 A 
ATOM     13  C   UNL     1       1.326   3.188  21.095  0.00  0.00    +0.000 A 
ATOM     14  C   UNL     1       2.589   2.664  21.348  0.00  0.00    +0.000 A 
ATOM     15  C   UNL     1       3.673   3.038  20.551  0.00  0.00    +0.000 A 
ATOM     16  C   UNL     1       3.510   3.935  19.474  0.00  0.00    +0.000 A 
ENDROOT
BRANCH   1  17
ATOM     17  O   UNL     1       6.384   5.762  14.610  0.00  0.00    +0.000 OA
BRANCH  17  18
ATOM     18  C   UNL     1       7.245   4.632  14.462  0.00  0.00    +0.000 C 
BRANCH  18  19
ATOM     19  C   UNL     1       7.865   4.707  13.064  0.00  0.00    +0.000 C 
BRANCH  19  20
ATOM     20  O   UNL     1       8.137   6.081  12.728  0.00  0.00    +0.000 OA
ATOM     21  H   UNL     1       9.027   6.092  12.330  0.00  0.00    +0.000 HD
ENDBRANCH  19  20
BRANCH  19  22
ATOM     22  C   UNL     1       6.911   4.109  12.011  0.00  0.00    +0.000 C 
BRANCH  22  23
ATOM     23  N   UNL     1       5.880   3.289  12.657  0.00  0.00    +0.000 NA
ATOM     24  H   UNL     1       6.343   2.611  13.267  0.00  0.00    +0.000 HD
BRANCH  23  25
ATOM     25  C   UNL     1       5.049   2.618  11.665  0.00  0.00    +0.000 C 
BRANCH  25  27
ATOM     26  C   UNL     1       2.960   2.950  10.316  0.00  0.00    +0.000 C 
ATOM     27  C   UNL     1       4.153   3.636  10.962  0.00  0.00    +0.000 C 
ENDBRANCH  25  27
ENDBRANCH  23  25
ENDBRANCH  22  23
ENDBRANCH  19  22
ENDBRANCH  18  19
ENDBRANCH  17  18
ENDBRANCH   1  17
TORSDOF 8
ENDMDL
MODEL 8
REMARK VINA RESULT:      -6.9      5.169      7.539
REMARK  Name = 
REMARK  9 active torsions:
REMARK  status: ('A' for Active; 'I' for Inactive)
REMARK    1  A    between atoms: C_1  and  C_2
REMARK    2  A    between atoms: C_2  and  C_3
REMARK    3  A    between atoms: C_3  and  N_4
REMARK    4  A    between atoms: N_4  and  C_5
REMARK    5  A    between atoms: C_5  and  C_6
REMARK    6  A    between atoms: C_6  and  O_7
REMARK    7  A    between atoms: C_6  and  C_8
REMARK    8  A    between atoms: C_8  and  O_9
REMARK    9  A    between atoms: O_9  and  N_10
REMARK                            x       y       z     vdW  Elec       q    Type
REMARK                         _______ _______ _______ _____ _____    ______ ____
ROOT
ATOM      1  N   UNL     1       2.711   7.069  19.936  0.00  0.00    +0.000 NA
ATOM      2  C   UNL     1       1.929   7.987  19.446  0.00  0.00    +0.000 C 
ATOM      3  C   UNL     1       1.859   8.299  17.953  0.00  0.00    +0.000 C 
ATOM      4  C   UNL     1       0.775   9.293  17.571  0.00  0.00    +0.000 C 
ATOM      5  C   UNL     1       1.153  10.709  18.003  0.00  0.00    +0.000 C 
ATOM      6  O   UNL     1       1.729  10.817  19.314  0.00  0.00    +0.000 OA
ATOM      7  C   UNL     1       0.999  10.162  20.272  0.00  0.00    +0.000 A 
ATOM      8  C   UNL     1       1.080   8.767  20.375  0.00  0.00    +0.000 A 
ATOM      9  C   UNL     1       0.358   8.084  21.352  0.00  0.00    +0.000 A 
ATOM     10  C   UNL     1      -0.447   8.799  22.239  0.00  0.00    +0.000 A 
ATOM     11  C   UNL     1      -0.495  10.203  22.192  0.00  0.00    +0.000 A 
ATOM     12  C   UNL     1      -1.265  10.917  23.124  0.00  0.00    +0.000 A 
ATOM     13  C   UNL     1      -1.281  12.312  23.119  0.00  0.00    +0.000 A 
ATOM     14  C   UNL     1      -0.529  13.010  22.179  0.00  0.00    +0.000 A 
ATOM     15  C   UNL     1       0.224  12.315  21.231  0.00  0.00    +0.000 A 
ATOM     16  C   UNL     1       0.252  10.904  21.214  0.00  0.00    +0.000 A 
ENDROOT
BRANCH   1  17
ATOM     17  O   UNL     1       3.434   6.451  18.912  0.00  0.00    +0.000 OA
BRANCH  17  18
ATOM     18  C   UNL     1       4.292   5.454  19.470  0.00  0.00    +0.000 C 
BRANCH  18  19
ATOM     19  C   UNL     1       4.019   4.144  18.726  0.00  0.00    +0.000 C 
BRANCH  19  20
ATOM     20  O   UNL     1       5.259   3.590  18.248  0.00  0.00    +0.000 OA
ATOM     21  H   UNL     1       5.693   4.299  17.737  0.00  0.00    +0.000 HD
ENDBRANCH  19  20
BRANCH  19  22
ATOM     22  C   UNL     1       3.078   4.384  17.528  0.00  0.00    +0.000 C 
BRANCH  22  23
ATOM     23  N   UNL     1       1.680   4.422  17.971  0.00  0.00    +0.000 NA
ATOM     24  H   UNL     1       1.512   5.319  18.432  0.00  0.00    +0.000 HD
BRANCH  23  25
ATOM     25  C   UNL     1       1.385   3.309  18.865  0.00  0.00    +0.000 C 
BRANCH  25  27
ATOM     26  C   UNL     1       1.320   2.904  21.340  0.00  0.00    +0.000 C 
ATOM     27  C   UNL     1       0.904   3.838  20.215  0.00  0.00    +0.000 C 
ENDBRANCH  25  27
ENDBRANCH  23  25
ENDBRANCH  22  23
ENDBRANCH  19  22
ENDBRANCH  18  19
ENDBRANCH  17  18
ENDBRANCH   1  17
TORSDOF 8
ENDMDL
MODEL 9
REMARK VINA RESULT:      -6.8      7.064      9.839
REMARK  Name = 
REMARK  9 active torsions:
REMARK  status: ('A' for Active; 'I' for Inactive)
REMARK    1  A    between atoms: C_1  and  C_2
REMARK    2  A    between atoms: C_2  and  C_3
REMARK    3  A    between atoms: C_3  and  N_4
REMARK    4  A    between atoms: N_4  and  C_5
REMARK    5  A    between atoms: C_5  and  C_6
REMARK    6  A    between atoms: C_6  and  O_7
REMARK    7  A    between atoms: C_6  and  C_8
REMARK    8  A    between atoms: C_8  and  O_9
REMARK    9  A    between atoms: O_9  and  N_10
REMARK                            x       y       z     vdW  Elec       q    Type
REMARK                         _______ _______ _______ _____ _____    ______ ____
ROOT
ATOM      1  N   UNL     1       8.959  10.205  17.852  0.00  0.00    +0.000 NA
ATOM      2  C   UNL     1       9.382  11.059  18.738  0.00  0.00    +0.000 C 
ATOM      3  C   UNL     1       9.357  10.770  20.238  0.00  0.00    +0.000 C 
ATOM      4  C   UNL     1      10.034  11.829  21.091  0.00  0.00    +0.000 C 
ATOM      5  C   UNL     1       9.184  13.096  21.169  0.00  0.00    +0.000 C 
ATOM      6  O   UNL     1       8.590  13.513  19.930  0.00  0.00    +0.000 OA
ATOM      7  C   UNL     1       9.490  13.557  18.896  0.00  0.00    +0.000 A 
ATOM      8  C   UNL     1       9.896  12.368  18.276  0.00  0.00    +0.000 A 
ATOM      9  C   UNL     1      10.798  12.393  17.215  0.00  0.00    +0.000 A 
ATOM     10  C   UNL     1      11.295  13.616  16.762  0.00  0.00    +0.000 A 
ATOM     11  C   UNL     1      10.854  14.823  17.329  0.00  0.00    +0.000 A 
ATOM     12  C   UNL     1      11.318  16.051  16.829  0.00  0.00    +0.000 A 
ATOM     13  C   UNL     1      10.850  17.257  17.351  0.00  0.00    +0.000 A 
ATOM     14  C   UNL     1       9.914  17.250  18.381  0.00  0.00    +0.000 A 
ATOM     15  C   UNL     1       9.460  16.038  18.904  0.00  0.00    +0.000 A 
ATOM     16  C   UNL     1       9.923  14.805  18.396  0.00  0.00    +0.000 A 
ENDROOT
BRANCH   1  17
ATOM     17  O   UNL     1       8.508   9.040  18.476  0.00  0.00    +0.000 OA
BRANCH  17  18
ATOM     18  C   UNL     1       7.889   8.190  17.509  0.00  0.00    +0.000 C 
BRANCH  18  19
ATOM     19  C   UNL     1       7.404   6.936  18.242  0.00  0.00    +0.000 C 
BRANCH  19  20
ATOM     20  O   UNL     1       8.403   6.512  19.188  0.00  0.00    +0.000 OA
ATOM     21  H   UNL     1       9.153   7.127  19.084  0.00  0.00    +0.000 HD
ENDBRANCH  19  20
BRANCH  19  22
ATOM     22  C   UNL     1       7.135   5.792  17.245  0.00  0.00    +0.000 C 
BRANCH  22  23
ATOM     23  N   UNL     1       5.694   5.631  17.021  0.00  0.00    +0.000 NA
ATOM     24  H   UNL     1       5.217   5.704  17.923  0.00  0.00    +0.000 HD
BRANCH  23  25
ATOM     25  C   UNL     1       5.404   4.356  16.378  0.00  0.00    +0.000 C 
BRANCH  25  27
ATOM     26  C   UNL     1       5.925   4.043  13.944  0.00  0.00    +0.000 C 
ATOM     27  C   UNL     1       6.491   4.030  15.355  0.00  0.00    +0.000 C 
ENDBRANCH  25  27
ENDBRANCH  23  25
ENDBRANCH  22  23
ENDBRANCH  19  22
ENDBRANCH  18  19
ENDBRANCH  17  18
ENDBRANCH   1  17
TORSDOF 8
ENDMDL
