MODEL 1
REMARK VINA RESULT:      -8.3      0.000      0.000
REMARK  Name = 
REMARK  6 active torsions:
REMARK  status: ('A' for Active; 'I' for Inactive)
REMARK    1  A    between atoms: C_4  and  C_5
REMARK    2  A    between atoms: C_5  and  C_6
REMARK    3  A    between atoms: N_15  and  C_16
REMARK    4  A    between atoms: C_16  and  C_17
REMARK    5  A    between atoms: C_17  and  O_18
REMARK    6  A    between atoms: C_17  and  C_19
REMARK                            x       y       z     vdW  Elec       q    Type
REMARK                         _______ _______ _______ _____ _____    ______ ____
ROOT
ATOM      1  O   UNL     1       1.438   2.136  22.045  0.00  0.00    +0.000 OA
ATOM      2  C   UNL     1       1.917   2.944  21.267  0.00  0.00    +0.000 C 
ATOM      3  N   UNL     1       3.249   3.034  20.969  0.00  0.00    +0.000 N 
ATOM      4  C   UNL     1       3.429   3.816  19.772  0.00  0.00    +0.000 C 
ATOM      5  C   UNL     1       2.128   4.680  19.768  0.00  0.00    +0.000 C 
ATOM      6  C   UNL     1       1.503   4.858  18.386  0.00  0.00    +0.000 C 
ATOM      7  C   UNL     1       2.235   5.897  17.552  0.00  0.00    +0.000 C 
ATOM      8  N   UNL     1       2.321   7.206  18.176  0.00  0.00    +0.000 NA
ATOM      9  C   UNL     1       2.610   7.235  19.608  0.00  0.00    +0.000 C 
ATOM     10  C   UNL     1       2.142   6.048  20.468  0.00  0.00    +0.000 C 
ATOM     11  O   UNL     1       1.206   3.821  20.515  0.00  0.00    +0.000 OA
ATOM     12  H   UNL     1       3.841   2.280  21.269  0.00  0.00    +0.000 HD
ENDROOT
BRANCH   4  13
ATOM     13  C   UNL     1       4.806   4.496  19.739  0.00  0.00    +0.000 C 
BRANCH  13  14
ATOM     14  C   UNL     1       5.491   4.704  18.387  0.00  0.00    +0.000 A 
ATOM     15  C   UNL     1       5.210   3.991  17.214  0.00  0.00    +0.000 A 
ATOM     16  C   UNL     1       5.903   4.262  16.021  0.00  0.00    +0.000 A 
ATOM     17  C   UNL     1       6.877   5.257  15.978  0.00  0.00    +0.000 A 
ATOM     18  C   UNL     1       7.163   5.980  17.128  0.00  0.00    +0.000 A 
ATOM     19  C   UNL     1       6.477   5.706  18.315  0.00  0.00    +0.000 A 
ENDBRANCH  13  14
ENDBRANCH   4  13
BRANCH   8  20
ATOM     20  C   UNL     1       1.420   8.248  17.643  0.00  0.00    +0.000 C 
BRANCH  20  21
ATOM     21  C   UNL     1       1.506   9.643  18.293  0.00  0.00    +0.000 C 
BRANCH  21  22
ATOM     22  C   UNL     1       0.155  10.351  18.534  0.00  0.00    +0.000 C 
ATOM     23  C   UNL     1      -0.377  10.237  19.956  0.00  0.00    +0.000 C 
ATOM     24  O   UNL     1      -1.268  11.360  20.127  0.00  0.00    +0.000 OA
ATOM     25  C   UNL     1      -2.221  11.331  19.129  0.00  0.00    +0.000 A 
ATOM     26  C   UNL     1      -3.353  12.119  19.311  0.00  0.00    +0.000 A 
ATOM     27  C   UNL     1      -4.467  11.891  18.509  0.00  0.00    +0.000 A 
ATOM     28  C   UNL     1      -4.436  10.879  17.544  0.00  0.00    +0.000 A 
ATOM     29  C   UNL     1      -3.243  10.200  17.266  0.00  0.00    +0.000 A 
ATOM     30  C   UNL     1      -2.107  10.480  18.018  0.00  0.00    +0.000 A 
ATOM     31  O   UNL     1      -0.908   9.876  17.667  0.00  0.00    +0.000 OA
ENDBRANCH  21  22
BRANCH  21  32
ATOM     32  O   UNL     1       2.321  10.499  17.474  0.00  0.00    +0.000 OA
ATOM     33  H   UNL     1       2.457  10.034  16.632  0.00  0.00    +0.000 HD
ENDBRANCH  21  32
ENDBRANCH  20  21
ENDBRANCH   8  20
TORSDOF 6
ENDMDL
MODEL 2
REMARK VINA RESULT:      -8.1      1.665      2.280
REMARK  Name = 
REMARK  6 active torsions:
REMARK  status: ('A' for Active; 'I' for Inactive)
REMARK    1  A    between atoms: C_4  and  C_5
REMARK    2  A    between atoms: C_5  and  C_6
REMARK    3  A    between atoms: N_15  and  C_16
REMARK    4  A    between atoms: C_16  and  C_17
REMARK    5  A    between atoms: C_17  and  O_18
REMARK    6  A    between atoms: C_17  and  C_19
REMARK                            x       y       z     vdW  Elec       q    Type
REMARK                         _______ _______ _______ _____ _____    ______ ____
ROOT
ATOM      1  O   UNL     1       1.448   1.975  21.902  0.00  0.00    +0.000 OA
ATOM      2  C   UNL     1       1.920   2.809  21.147  0.00  0.00    +0.000 C 
ATOM      3  N   UNL     1       3.241   2.874  20.797  0.00  0.00    +0.000 N 
ATOM      4  C   UNL     1       3.397   3.713  19.636  0.00  0.00    +0.000 C 
ATOM      5  C   UNL     1       2.126   4.615  19.733  0.00  0.00    +0.000 C 
ATOM      6  C   UNL     1       1.451   4.886  18.390  0.00  0.00    +0.000 C 
ATOM      7  C   UNL     1       2.182   5.945  17.581  0.00  0.00    +0.000 C 
ATOM      8  N   UNL     1       2.337   7.215  18.268  0.00  0.00    +0.000 NA
ATOM      9  C   UNL     1       2.685   7.159  19.686  0.00  0.00    +0.000 C 
ATOM     10  C   UNL     1       2.214   5.943  20.502  0.00  0.00    +0.000 C 
ATOM     11  O   UNL     1       1.208   3.746  20.473  0.00  0.00    +0.000 OA
ATOM     12  H   UNL     1       3.820   2.087  21.032  0.00  0.00    +0.000 HD
ENDROOT
BRANCH   4  13
ATOM     13  C   UNL     1       4.793   4.350  19.579  0.00  0.00    +0.000 C 
BRANCH  13  14
ATOM     14  C   UNL     1       5.534   4.380  18.242  0.00  0.00    +0.000 A 
ATOM     15  C   UNL     1       6.865   4.783  18.058  0.00  0.00    +0.000 A 
ATOM     16  C   UNL     1       7.452   4.774  16.780  0.00  0.00    +0.000 A 
ATOM     17  C   UNL     1       6.724   4.351  15.669  0.00  0.00    +0.000 A 
ATOM     18  C   UNL     1       5.407   3.941  15.833  0.00  0.00    +0.000 A 
ATOM     19  C   UNL     1       4.824   3.955  17.104  0.00  0.00    +0.000 A 
ENDBRANCH  13  14
ENDBRANCH   4  13
BRANCH   8  20
ATOM     20  C   UNL     1       1.449   8.311  17.829  0.00  0.00    +0.000 C 
BRANCH  20  21
ATOM     21  C   UNL     1       1.780   9.725  18.345  0.00  0.00    +0.000 C 
BRANCH  21  22
ATOM     22  C   UNL     1       0.652  10.430  19.131  0.00  0.00    +0.000 C 
ATOM     23  C   UNL     1       0.667  11.950  19.036  0.00  0.00    +0.000 C 
ATOM     24  O   UNL     1      -0.686  12.367  19.316  0.00  0.00    +0.000 OA
ATOM     25  C   UNL     1      -1.072  11.849  20.536  0.00  0.00    +0.000 A 
ATOM     26  C   UNL     1      -2.200  12.403  21.132  0.00  0.00    +0.000 A 
ATOM     27  C   UNL     1      -2.445  12.146  22.478  0.00  0.00    +0.000 A 
ATOM     28  C   UNL     1      -1.560  11.345  23.206  0.00  0.00    +0.000 A 
ATOM     29  C   UNL     1      -0.518  10.668  22.558  0.00  0.00    +0.000 A 
ATOM     30  C   UNL     1      -0.317  10.866  21.197  0.00  0.00    +0.000 A 
ATOM     31  O   UNL     1       0.651  10.115  20.547  0.00  0.00    +0.000 OA
ENDBRANCH  21  22
BRANCH  21  32
ATOM     32  O   UNL     1       2.143  10.564  17.234  0.00  0.00    +0.000 OA
ATOM     33  H   UNL     1       1.423  11.206  17.122  0.00  0.00    +0.000 HD
ENDBRANCH  21  32
ENDBRANCH  20  21
ENDBRANCH   8  20
TORSDOF 6
ENDMDL
MODEL 3
REMARK VINA RESULT:      -8.0      2.742      4.610
REMARK  Name = 
REMARK  6 active torsions:
REMARK  status: ('A' for Active; 'I' for Inactive)
REMARK    1  A    between atoms: C_4  and  C_5
REMARK    2  A    between atoms: C_5  and  C_6
REMARK    3  A    between atoms: N_15  and  C_16
REMARK    4  A    between atoms: C_16  and  C_17
REMARK    5  A    between atoms: C_17  and  O_18
REMARK    6  A    between atoms: C_17  and  C_19
REMARK                            x       y       z     vdW  Elec       q    Type
REMARK                         _______ _______ _______ _____ _____    ______ ____
ROOT
ATOM      1  O   UNL     1       7.606   4.622  15.540  0.00  0.00    +0.000 OA
ATOM      2  C   UNL     1       6.612   4.680  16.246  0.00  0.00    +0.000 C 
ATOM      3  N   UNL     1       5.753   3.637  16.457  0.00  0.00    +0.000 N 
ATOM      4  C   UNL     1       4.920   3.916  17.599  0.00  0.00    +0.000 C 
ATOM      5  C   UNL     1       4.960   5.476  17.638  0.00  0.00    +0.000 C 
ATOM      6  C   UNL     1       5.067   6.062  19.045  0.00  0.00    +0.000 C 
ATOM      7  C   UNL     1       3.735   6.044  19.779  0.00  0.00    +0.000 C 
ATOM      8  N   UNL     1       2.666   6.740  19.085  0.00  0.00    +0.000 NA
ATOM      9  C   UNL     1       2.587   6.549  17.638  0.00  0.00    +0.000 C 
ATOM     10  C   UNL     1       3.889   6.267  16.870  0.00  0.00    +0.000 C 
ATOM     11  O   UNL     1       6.246   5.751  16.993  0.00  0.00    +0.000 OA
ATOM     12  H   UNL     1       6.052   2.725  16.161  0.00  0.00    +0.000 HD
ENDROOT
BRANCH   4  13
ATOM     13  C   UNL     1       3.575   3.180  17.515  0.00  0.00    +0.000 C 
BRANCH  13  14
ATOM     14  C   UNL     1       2.724   3.054  18.780  0.00  0.00    +0.000 A 
ATOM     15  C   UNL     1       1.340   3.267  18.853  0.00  0.00    +0.000 A 
ATOM     16  C   UNL     1       0.652   3.126  20.072  0.00  0.00    +0.000 A 
ATOM     17  C   UNL     1       1.333   2.759  21.231  0.00  0.00    +0.000 A 
ATOM     18  C   UNL     1       2.702   2.535  21.176  0.00  0.00    +0.000 A 
ATOM     19  C   UNL     1       3.386   2.681  19.964  0.00  0.00    +0.000 A 
ENDBRANCH  13  14
ENDBRANCH   4  13
BRANCH   8  20
ATOM     20  C   UNL     1       2.291   8.065  19.618  0.00  0.00    +0.000 C 
BRANCH  20  21
ATOM     21  C   UNL     1       1.190   8.097  20.697  0.00  0.00    +0.000 C 
BRANCH  21  22
ATOM     22  C   UNL     1       0.203   9.282  20.608  0.00  0.00    +0.000 C 
ATOM     23  C   UNL     1       0.534  10.302  19.527  0.00  0.00    +0.000 C 
ATOM     24  O   UNL     1      -0.714  10.962  19.225  0.00  0.00    +0.000 OA
ATOM     25  C   UNL     1      -1.242  11.479  20.392  0.00  0.00    +0.000 A 
ATOM     26  C   UNL     1      -2.251  12.426  20.266  0.00  0.00    +0.000 A 
ATOM     27  C   UNL     1      -2.593  13.198  21.373  0.00  0.00    +0.000 A 
ATOM     28  C   UNL     1      -1.917  13.015  22.584  0.00  0.00    +0.000 A 
ATOM     29  C   UNL     1      -1.014  11.955  22.740  0.00  0.00    +0.000 A 
ATOM     30  C   UNL     1      -0.729  11.136  21.653  0.00  0.00    +0.000 A 
ATOM     31  O   UNL     1       0.087  10.030  21.846  0.00  0.00    +0.000 OA
ENDBRANCH  21  22
BRANCH  21  32
ATOM     32  O   UNL     1       1.802   8.120  21.998  0.00  0.00    +0.000 OA
ATOM     33  H   UNL     1       1.812   9.048  22.286  0.00  0.00    +0.000 HD
ENDBRANCH  21  32
ENDBRANCH  20  21
ENDBRANCH   8  20
TORSDOF 6
ENDMDL
MODEL 4
REMARK VINA RESULT:      -7.9      2.763      4.569
REMARK  Name = 
REMARK  6 active torsions:
REMARK  status: ('A' for Active; 'I' for Inactive)
REMARK    1  A    between atoms: C_4  and  C_5
REMARK    2  A    between atoms: C_5  and  C_6
REMARK    3  A    between atoms: N_15  and  C_16
REMARK    4  A    between atoms: C_16  and  C_17
REMARK    5  A    between atoms: C_17  and  O_18
REMARK    6  A    between atoms: C_17  and  C_19
REMARK                            x       y       z     vdW  Elec       q    Type
REMARK                         _______ _______ _______ _____ _____    ______ ____
ROOT
ATOM      1  O   UNL     1       7.784   4.636  15.798  0.00  0.00    +0.000 OA
ATOM      2  C   UNL     1       6.756   4.676  16.454  0.00  0.00    +0.000 C 
ATOM      3  N   UNL     1       5.924   3.609  16.652  0.00  0.00    +0.000 N 
ATOM      4  C   UNL     1       5.027   3.886  17.745  0.00  0.00    +0.000 C 
ATOM      5  C   UNL     1       5.011   5.447  17.744  0.00  0.00    +0.000 C 
ATOM      6  C   UNL     1       5.028   6.072  19.138  0.00  0.00    +0.000 C 
ATOM      7  C   UNL     1       3.664   6.025  19.807  0.00  0.00    +0.000 C 
ATOM      8  N   UNL     1       2.606   6.664  19.044  0.00  0.00    +0.000 NA
ATOM      9  C   UNL     1       2.604   6.434  17.601  0.00  0.00    +0.000 C 
ATOM     10  C   UNL     1       3.952   6.179  16.904  0.00  0.00    +0.000 C 
ATOM     11  O   UNL     1       6.316   5.752  17.154  0.00  0.00    +0.000 OA
ATOM     12  H   UNL     1       6.268   2.701  16.395  0.00  0.00    +0.000 HD
ENDROOT
BRANCH   4  13
ATOM     13  C   UNL     1       3.713   3.101  17.616  0.00  0.00    +0.000 C 
BRANCH  13  14
ATOM     14  C   UNL     1       2.801   2.985  18.839  0.00  0.00    +0.000 A 
ATOM     15  C   UNL     1       1.411   3.165  18.836  0.00  0.00    +0.000 A 
ATOM     16  C   UNL     1       0.665   3.037  20.022  0.00  0.00    +0.000 A 
ATOM     17  C   UNL     1       1.293   2.715  21.223  0.00  0.00    +0.000 A 
ATOM     18  C   UNL     1       2.669   2.525  21.243  0.00  0.00    +0.000 A 
ATOM     19  C   UNL     1       3.410   2.657  20.064  0.00  0.00    +0.000 A 
ENDBRANCH  13  14
ENDBRANCH   4  13
BRANCH   8  20
ATOM     20  C   UNL     1       2.160   7.988  19.523  0.00  0.00    +0.000 C 
BRANCH  20  21
ATOM     21  C   UNL     1       1.112   8.004  20.653  0.00  0.00    +0.000 C 
BRANCH  21  22
ATOM     22  C   UNL     1       0.628   9.403  21.094  0.00  0.00    +0.000 C 
ATOM     23  C   UNL     1      -0.184   9.416  22.383  0.00  0.00    +0.000 C 
ATOM     24  O   UNL     1      -0.052  10.754  22.908  0.00  0.00    +0.000 OA
ATOM     25  C   UNL     1      -0.451  11.656  21.942  0.00  0.00    +0.000 A 
ATOM     26  C   UNL     1      -0.716  12.956  22.359  0.00  0.00    +0.000 A 
ATOM     27  C   UNL     1      -1.412  13.808  21.507  0.00  0.00    +0.000 A 
ATOM     28  C   UNL     1      -1.836  13.348  20.256  0.00  0.00    +0.000 A 
ATOM     29  C   UNL     1      -1.429  12.093  19.787  0.00  0.00    +0.000 A 
ATOM     30  C   UNL     1      -0.669  11.269  20.610  0.00  0.00    +0.000 A 
ATOM     31  O   UNL     1      -0.187  10.073  20.098  0.00  0.00    +0.000 OA
ENDBRANCH  21  22
BRANCH  21  32
ATOM     32  O   UNL     1       1.647   7.331  21.806  0.00  0.00    +0.000 OA
ATOM     33  H   UNL     1       1.516   7.926  22.563  0.00  0.00    +0.000 HD
ENDBRANCH  21  32
ENDBRANCH  20  21
ENDBRANCH   8  20
TORSDOF 6
ENDMDL
MODEL 5
REMARK VINA RESULT:      -7.7      1.761      2.411
REMARK  Name = 
REMARK  6 active torsions:
REMARK  status: ('A' for Active; 'I' for Inactive)
REMARK    1  A    between atoms: C_4  and  C_5
REMARK    2  A    between atoms: C_5  and  C_6
REMARK    3  A    between atoms: N_15  and  C_16
REMARK    4  A    between atoms: C_16  and  C_17
REMARK    5  A    between atoms: C_17  and  O_18
REMARK    6  A    between atoms: C_17  and  C_19
REMARK                            x       y       z     vdW  Elec       q    Type
REMARK                         _______ _______ _______ _____ _____    ______ ____
ROOT
ATOM      1  O   UNL     1       3.720   0.971  18.668  0.00  0.00    +0.000 OA
ATOM      2  C   UNL     1       3.710   2.144  18.335  0.00  0.00    +0.000 C 
ATOM      3  N   UNL     1       4.564   2.693  17.419  0.00  0.00    +0.000 N 
ATOM      4  C   UNL     1       4.061   3.973  16.989  0.00  0.00    +0.000 C 
ATOM      5  C   UNL     1       3.168   4.378  18.204  0.00  0.00    +0.000 C 
ATOM      6  C   UNL     1       1.848   5.042  17.814  0.00  0.00    +0.000 C 
ATOM      7  C   UNL     1       2.030   6.499  17.419  0.00  0.00    +0.000 C 
ATOM      8  N   UNL     1       2.656   7.317  18.443  0.00  0.00    +0.000 NA
ATOM      9  C   UNL     1       3.774   6.720  19.170  0.00  0.00    +0.000 C 
ATOM     10  C   UNL     1       3.793   5.192  19.348  0.00  0.00    +0.000 C 
ATOM     11  O   UNL     1       2.808   3.068  18.751  0.00  0.00    +0.000 OA
ATOM     12  H   UNL     1       5.110   2.062  16.859  0.00  0.00    +0.000 HD
ENDROOT
BRANCH   4  13
ATOM     13  C   UNL     1       5.192   4.901  16.521  0.00  0.00    +0.000 C 
BRANCH  13  14
ATOM     14  C   UNL     1       5.816   4.663  15.144  0.00  0.00    +0.000 A 
ATOM     15  C   UNL     1       7.092   5.086  14.746  0.00  0.00    +0.000 A 
ATOM     16  C   UNL     1       7.571   4.815  13.451  0.00  0.00    +0.000 A 
ATOM     17  C   UNL     1       6.788   4.109  12.540  0.00  0.00    +0.000 A 
ATOM     18  C   UNL     1       5.525   3.674  12.920  0.00  0.00    +0.000 A 
ATOM     19  C   UNL     1       5.049   3.948  14.206  0.00  0.00    +0.000 A 
ENDBRANCH  13  14
ENDBRANCH   4  13
BRANCH   8  20
ATOM     20  C   UNL     1       1.765   8.226  19.192  0.00  0.00    +0.000 C 
BRANCH  20  21
ATOM     21  C   UNL     1       1.697   9.688  18.709  0.00  0.00    +0.000 C 
BRANCH  21  22
ATOM     22  C   UNL     1       0.282  10.306  18.653  0.00  0.00    +0.000 C 
ATOM     23  C   UNL     1      -0.530  10.147  19.932  0.00  0.00    +0.000 C 
ATOM     24  O   UNL     1      -1.508  11.208  19.902  0.00  0.00    +0.000 OA
ATOM     25  C   UNL     1      -2.225  11.126  18.726  0.00  0.00    +0.000 A 
ATOM     26  C   UNL     1      -3.417  11.838  18.659  0.00  0.00    +0.000 A 
ATOM     27  C   UNL     1      -4.320  11.545  17.640  0.00  0.00    +0.000 A 
ATOM     28  C   UNL     1      -4.019  10.545  16.710  0.00  0.00    +0.000 A 
ATOM     29  C   UNL     1      -2.753   9.946  16.696  0.00  0.00    +0.000 A 
ATOM     30  C   UNL     1      -1.822  10.293  17.669  0.00  0.00    +0.000 A 
ATOM     31  O   UNL     1      -0.540   9.770  17.584  0.00  0.00    +0.000 OA
ENDBRANCH  21  22
BRANCH  21  32
ATOM     32  O   UNL     1       2.279   9.784  17.398  0.00  0.00    +0.000 OA
ATOM     33  H   UNL     1       3.197  10.077  17.520  0.00  0.00    +0.000 HD
ENDBRANCH  21  32
ENDBRANCH  20  21
ENDBRANCH   8  20
TORSDOF 6
ENDMDL
MODEL 6
REMARK VINA RESULT:      -7.7      2.784      3.793
REMARK  Name = 
REMARK  6 active torsions:
REMARK  status: ('A' for Active; 'I' for Inactive)
REMARK    1  A    between atoms: C_4  and  C_5
REMARK    2  A    between atoms: C_5  and  C_6
REMARK    3  A    between atoms: N_15  and  C_16
REMARK    4  A    between atoms: C_16  and  C_17
REMARK    5  A    between atoms: C_17  and  O_18
REMARK    6  A    between atoms: C_17  and  C_19
REMARK                            x       y       z     vdW  Elec       q    Type
REMARK                         _______ _______ _______ _____ _____    ______ ____
ROOT
ATOM      1  O   UNL     1       8.554   4.309  18.419  0.00  0.00    +0.000 OA
ATOM      2  C   UNL     1       7.402   4.560  18.106  0.00  0.00    +0.000 C 
ATOM      3  N   UNL     1       6.816   4.163  16.936  0.00  0.00    +0.000 N 
ATOM      4  C   UNL     1       5.385   4.296  17.039  0.00  0.00    +0.000 C 
ATOM      5  C   UNL     1       5.253   5.387  18.148  0.00  0.00    +0.000 C 
ATOM      6  C   UNL     1       4.126   5.128  19.146  0.00  0.00    +0.000 C 
ATOM      7  C   UNL     1       2.762   5.490  18.581  0.00  0.00    +0.000 C 
ATOM      8  N   UNL     1       2.652   6.866  18.130  0.00  0.00    +0.000 NA
ATOM      9  C   UNL     1       3.796   7.414  17.404  0.00  0.00    +0.000 C 
ATOM     10  C   UNL     1       5.195   6.866  17.732  0.00  0.00    +0.000 C 
ATOM     11  O   UNL     1       6.499   5.195  18.894  0.00  0.00    +0.000 OA
ATOM     12  H   UNL     1       7.301   3.478  16.385  0.00  0.00    +0.000 HD
ENDROOT
BRANCH   4  13
ATOM     13  C   UNL     1       4.733   4.510  15.665  0.00  0.00    +0.000 C 
BRANCH  13  14
ATOM     14  C   UNL     1       5.589   4.332  14.409  0.00  0.00    +0.000 A 
ATOM     15  C   UNL     1       5.306   3.458  13.350  0.00  0.00    +0.000 A 
ATOM     16  C   UNL     1       6.164   3.369  12.238  0.00  0.00    +0.000 A 
ATOM     17  C   UNL     1       7.308   4.161  12.162  0.00  0.00    +0.000 A 
ATOM     18  C   UNL     1       7.600   5.039  13.198  0.00  0.00    +0.000 A 
ATOM     19  C   UNL     1       6.749   5.122  14.304  0.00  0.00    +0.000 A 
ENDBRANCH  13  14
ENDBRANCH   4  13
BRANCH   8  20
ATOM     20  C   UNL     1       1.898   7.786  19.005  0.00  0.00    +0.000 C 
BRANCH  20  21
ATOM     21  C   UNL     1       1.836   9.265  18.574  0.00  0.00    +0.000 C 
BRANCH  21  22
ATOM     22  C   UNL     1       1.134  10.220  19.565  0.00  0.00    +0.000 C 
ATOM     23  C   UNL     1       0.905   9.636  20.953  0.00  0.00    +0.000 C 
ATOM     24  O   UNL     1       0.790  10.772  21.835  0.00  0.00    +0.000 OA
ATOM     25  C   UNL     1      -0.206  11.605  21.366  0.00  0.00    +0.000 A 
ATOM     26  C   UNL     1      -0.694  12.567  22.244  0.00  0.00    +0.000 A 
ATOM     27  C   UNL     1      -1.890  13.211  21.941  0.00  0.00    +0.000 A 
ATOM     28  C   UNL     1      -2.581  12.880  20.771  0.00  0.00    +0.000 A 
ATOM     29  C   UNL     1      -2.002  12.028  19.821  0.00  0.00    +0.000 A 
ATOM     30  C   UNL     1      -0.771  11.442  20.091  0.00  0.00    +0.000 A 
ATOM     31  O   UNL     1      -0.162  10.681  19.103  0.00  0.00    +0.000 OA
ENDBRANCH  21  22
BRANCH  21  32
ATOM     32  O   UNL     1       1.162   9.362  17.307  0.00  0.00    +0.000 OA
ATOM     33  H   UNL     1       1.259  10.281  17.008  0.00  0.00    +0.000 HD
ENDBRANCH  21  32
ENDBRANCH  20  21
ENDBRANCH   8  20
TORSDOF 6
ENDMDL
MODEL 7
REMARK VINA RESULT:      -7.6      1.514      2.271
REMARK  Name = 
REMARK  6 active torsions:
REMARK  status: ('A' for Active; 'I' for Inactive)
REMARK    1  A    between atoms: C_4  and  C_5
REMARK    2  A    between atoms: C_5  and  C_6
REMARK    3  A    between atoms: N_15  and  C_16
REMARK    4  A    between atoms: C_16  and  C_17
REMARK    5  A    between atoms: C_17  and  O_18
REMARK    6  A    between atoms: C_17  and  C_19
REMARK                            x       y       z     vdW  Elec       q    Type
REMARK                         _______ _______ _______ _____ _____    ______ ____
ROOT
ATOM      1  O   UNL     1       1.656   1.929  22.226  0.00  0.00    +0.000 OA
ATOM      2  C   UNL     1       2.073   2.704  21.381  0.00  0.00    +0.000 C 
ATOM      3  N   UNL     1       3.343   2.684  20.873  0.00  0.00    +0.000 N 
ATOM      4  C   UNL     1       3.397   3.464  19.664  0.00  0.00    +0.000 C 
ATOM      5  C   UNL     1       2.192   4.436  19.868  0.00  0.00    +0.000 C 
ATOM      6  C   UNL     1       1.373   4.687  18.604  0.00  0.00    +0.000 C 
ATOM      7  C   UNL     1       2.050   5.671  17.664  0.00  0.00    +0.000 C 
ATOM      8  N   UNL     1       2.348   6.959  18.266  0.00  0.00    +0.000 NA
ATOM      9  C   UNL     1       2.863   6.942  19.634  0.00  0.00    +0.000 C 
ATOM     10  C   UNL     1       2.437   5.789  20.557  0.00  0.00    +0.000 C 
ATOM     11  O   UNL     1       1.330   3.650  20.753  0.00  0.00    +0.000 OA
ATOM     12  H   UNL     1       3.908   1.878  21.075  0.00  0.00    +0.000 HD
ENDROOT
BRANCH   4  13
ATOM     13  C   UNL     1       4.805   4.023  19.410  0.00  0.00    +0.000 C 
BRANCH  13  14
ATOM     14  C   UNL     1       5.182   4.453  17.991  0.00  0.00    +0.000 A 
ATOM     15  C   UNL     1       4.893   3.737  16.821  0.00  0.00    +0.000 A 
ATOM     16  C   UNL     1       5.289   4.223  15.562  0.00  0.00    +0.000 A 
ATOM     17  C   UNL     1       5.967   5.435  15.451  0.00  0.00    +0.000 A 
ATOM     18  C   UNL     1       6.254   6.162  16.599  0.00  0.00    +0.000 A 
ATOM     19  C   UNL     1       5.864   5.676  17.851  0.00  0.00    +0.000 A 
ENDBRANCH  13  14
ENDBRANCH   4  13
BRANCH   8  20
ATOM     20  C   UNL     1       1.468   8.082  17.885  0.00  0.00    +0.000 C 
BRANCH  20  21
ATOM     21  C   UNL     1       1.886   9.487  18.359  0.00  0.00    +0.000 C 
BRANCH  21  22
ATOM     22  C   UNL     1       0.868  10.216  19.265  0.00  0.00    +0.000 C 
ATOM     23  C   UNL     1      -0.431  10.607  18.571  0.00  0.00    +0.000 C 
ATOM     24  O   UNL     1      -1.409  10.731  19.626  0.00  0.00    +0.000 OA
ATOM     25  C   UNL     1      -0.942  11.626  20.568  0.00  0.00    +0.000 A 
ATOM     26  C   UNL     1      -1.867  12.131  21.475  0.00  0.00    +0.000 A 
ATOM     27  C   UNL     1      -1.528  13.252  22.227  0.00  0.00    +0.000 A 
ATOM     28  C   UNL     1      -0.277  13.852  22.057  0.00  0.00    +0.000 A 
ATOM     29  C   UNL     1       0.700  13.244  21.258  0.00  0.00    +0.000 A 
ATOM     30  C   UNL     1       0.387  12.081  20.564  0.00  0.00    +0.000 A 
ATOM     31  O   UNL     1       1.390  11.433  19.858  0.00  0.00    +0.000 OA
ENDBRANCH  21  22
BRANCH  21  32
ATOM     32  O   UNL     1       2.141  10.319  17.214  0.00  0.00    +0.000 OA
ATOM     33  H   UNL     1       2.305   9.722  16.466  0.00  0.00    +0.000 HD
ENDBRANCH  21  32
ENDBRANCH  20  21
ENDBRANCH   8  20
TORSDOF 6
ENDMDL
MODEL 8
REMARK VINA RESULT:      -7.6      5.414      8.321
REMARK  Name = 
REMARK  6 active torsions:
REMARK  status: ('A' for Active; 'I' for Inactive)
REMARK    1  A    between atoms: C_4  and  C_5
REMARK    2  A    between atoms: C_5  and  C_6
REMARK    3  A    between atoms: N_15  and  C_16
REMARK    4  A    between atoms: C_16  and  C_17
REMARK    5  A    between atoms: C_17  and  O_18
REMARK    6  A    between atoms: C_17  and  C_19
REMARK                            x       y       z     vdW  Elec       q    Type
REMARK                         _______ _______ _______ _____ _____    ______ ____
ROOT
ATOM      1  O   UNL     1       2.075   3.787  18.589  0.00  0.00    +0.000 OA
ATOM      2  C   UNL     1       3.139   4.190  18.148  0.00  0.00    +0.000 C 
ATOM      3  N   UNL     1       3.846   3.574  17.153  0.00  0.00    +0.000 N 
ATOM      4  C   UNL     1       4.836   4.479  16.626  0.00  0.00    +0.000 C 
ATOM      5  C   UNL     1       5.041   5.449  17.832  0.00  0.00    +0.000 C 
ATOM      6  C   UNL     1       5.186   6.916  17.433  0.00  0.00    +0.000 C 
ATOM      7  C   UNL     1       6.573   7.234  16.898  0.00  0.00    +0.000 C 
ATOM      8  N   UNL     1       7.652   6.912  17.816  0.00  0.00    +0.000 NA
ATOM      9  C   UNL     1       7.536   5.654  18.552  0.00  0.00    +0.000 C 
ATOM     10  C   UNL     1       6.127   5.126  18.870  0.00  0.00    +0.000 C 
ATOM     11  O   UNL     1       3.748   5.346  18.512  0.00  0.00    +0.000 OA
ATOM     12  H   UNL     1       3.379   2.852  16.633  0.00  0.00    +0.000 HD
ENDROOT
BRANCH   4  13
ATOM     13  C   UNL     1       6.034   3.725  16.030  0.00  0.00    +0.000 C 
BRANCH  13  14
ATOM     14  C   UNL     1       6.416   3.987  14.571  0.00  0.00    +0.000 A 
ATOM     15  C   UNL     1       5.866   3.336  13.458  0.00  0.00    +0.000 A 
ATOM     16  C   UNL     1       6.292   3.652  12.155  0.00  0.00    +0.000 A 
ATOM     17  C   UNL     1       7.262   4.629  11.944  0.00  0.00    +0.000 A 
ATOM     18  C   UNL     1       7.811   5.291  13.034  0.00  0.00    +0.000 A 
ATOM     19  C   UNL     1       7.391   4.972  14.330  0.00  0.00    +0.000 A 
ENDBRANCH  13  14
ENDBRANCH   4  13
BRANCH   8  20
ATOM     20  C   UNL     1       8.284   8.051  18.512  0.00  0.00    +0.000 C 
BRANCH  20  21
ATOM     21  C   UNL     1       8.383   9.376  17.730  0.00  0.00    +0.000 C 
BRANCH  21  22
ATOM     22  C   UNL     1       9.388  10.407  18.291  0.00  0.00    +0.000 C 
ATOM     23  C   UNL     1       9.332  10.588  19.802  0.00  0.00    +0.000 C 
ATOM     24  O   UNL     1      10.628  11.101  20.177  0.00  0.00    +0.000 OA
ATOM     25  C   UNL     1      10.886  12.244  19.448  0.00  0.00    +0.000 A 
ATOM     26  C   UNL     1      11.917  13.063  19.897  0.00  0.00    +0.000 A 
ATOM     27  C   UNL     1      12.011  14.360  19.399  0.00  0.00    +0.000 A 
ATOM     28  C   UNL     1      11.074  14.818  18.468  0.00  0.00    +0.000 A 
ATOM     29  C   UNL     1      10.139  13.937  17.909  0.00  0.00    +0.000 A 
ATOM     30  C   UNL     1      10.093  12.620  18.352  0.00  0.00    +0.000 A 
ATOM     31  O   UNL     1       9.233  11.733  17.721  0.00  0.00    +0.000 OA
ENDBRANCH  21  22
BRANCH  21  32
ATOM     32  O   UNL     1       7.087   9.996  17.678  0.00  0.00    +0.000 OA
ATOM     33  H   UNL     1       6.561   9.605  18.395  0.00  0.00    +0.000 HD
ENDBRANCH  21  32
ENDBRANCH  20  21
ENDBRANCH   8  20
TORSDOF 6
ENDMDL
MODEL 9
REMARK VINA RESULT:      -7.6      2.824      3.856
REMARK  Name = 
REMARK  6 active torsions:
REMARK  status: ('A' for Active; 'I' for Inactive)
REMARK    1  A    between atoms: C_4  and  C_5
REMARK    2  A    between atoms: C_5  and  C_6
REMARK    3  A    between atoms: N_15  and  C_16
REMARK    4  A    between atoms: C_16  and  C_17
REMARK    5  A    between atoms: C_17  and  O_18
REMARK    6  A    between atoms: C_17  and  C_19
REMARK                            x       y       z     vdW  Elec       q    Type
REMARK                         _______ _______ _______ _____ _____    ______ ____
ROOT
ATOM      1  O   UNL     1       1.474   1.394  18.931  0.00  0.00    +0.000 OA
ATOM      2  C   UNL     1       1.927   2.524  19.008  0.00  0.00    +0.000 C 
ATOM      3  N   UNL     1       3.244   2.814  19.238  0.00  0.00    +0.000 N 
ATOM      4  C   UNL     1       3.504   4.192  18.908  0.00  0.00    +0.000 C 
ATOM      5  C   UNL     1       2.083   4.821  19.061  0.00  0.00    +0.000 C 
ATOM      6  C   UNL     1       1.738   5.848  17.984  0.00  0.00    +0.000 C 
ATOM      7  C   UNL     1       2.398   7.194  18.239  0.00  0.00    +0.000 C 
ATOM      8  N   UNL     1       2.079   7.776  19.531  0.00  0.00    +0.000 NA
ATOM      9  C   UNL     1       2.050   6.866  20.674  0.00  0.00    +0.000 C 
ATOM     10  C   UNL     1       1.667   5.397  20.423  0.00  0.00    +0.000 C 
ATOM     11  O   UNL     1       1.223   3.665  18.799  0.00  0.00    +0.000 OA
ATOM     12  H   UNL     1       3.903   2.060  19.162  0.00  0.00    +0.000 HD
ENDROOT
BRANCH   4  13
ATOM     13  C   UNL     1       4.687   4.755  19.710  0.00  0.00    +0.000 C 
BRANCH  13  14
ATOM     14  C   UNL     1       5.770   5.542  18.970  0.00  0.00    +0.000 A 
ATOM     15  C   UNL     1       7.090   5.716  19.407  0.00  0.00    +0.000 A 
ATOM     16  C   UNL     1       8.010   6.463  18.648  0.00  0.00    +0.000 A 
ATOM     17  C   UNL     1       7.628   7.035  17.437  0.00  0.00    +0.000 A 
ATOM     18  C   UNL     1       6.326   6.866  16.983  0.00  0.00    +0.000 A 
ATOM     19  C   UNL     1       5.412   6.127  17.741  0.00  0.00    +0.000 A 
ENDBRANCH  13  14
ENDBRANCH   4  13
BRANCH   8  20
ATOM     20  C   UNL     1       1.114   8.894  19.527  0.00  0.00    +0.000 C 
BRANCH  20  21
ATOM     21  C   UNL     1       1.370  10.032  18.520  0.00  0.00    +0.000 C 
BRANCH  21  22
ATOM     22  C   UNL     1       1.942  11.336  19.119  0.00  0.00    +0.000 C 
ATOM     23  C   UNL     1       1.071  11.976  20.192  0.00  0.00    +0.000 C 
ATOM     24  O   UNL     1       1.968  12.784  20.985  0.00  0.00    +0.000 OA
ATOM     25  C   UNL     1       2.633  13.663  20.154  0.00  0.00    +0.000 A 
ATOM     26  C   UNL     1       3.280  14.737  20.755  0.00  0.00    +0.000 A 
ATOM     27  C   UNL     1       3.688  15.806  19.962  0.00  0.00    +0.000 A 
ATOM     28  C   UNL     1       3.439  15.787  18.586  0.00  0.00    +0.000 A 
ATOM     29  C   UNL     1       2.930  14.635  17.973  0.00  0.00    +0.000 A 
ATOM     30  C   UNL     1       2.591  13.537  18.756  0.00  0.00    +0.000 A 
ATOM     31  O   UNL     1       2.184  12.369  18.128  0.00  0.00    +0.000 OA
ENDBRANCH  21  22
BRANCH  21  32
ATOM     32  O   UNL     1       0.142  10.352  17.842  0.00  0.00    +0.000 OA
ATOM     33  H   UNL     1      -0.078  11.268  18.079  0.00  0.00    +0.000 HD
ENDBRANCH  21  32
ENDBRANCH  20  21
ENDBRANCH   8  20
TORSDOF 6
ENDMDL
