MODEL 1
REMARK VINA RESULT:      -6.8      0.000      0.000
REMARK  Name = 
REMARK  3 active torsions:
REMARK  status: ('A' for Active; 'I' for Inactive)
REMARK    1  A    between atoms: C_1  and  C_2
REMARK    2  A    between atoms: C_2  and  C_3
REMARK    3  A    between atoms: C_3  and  N_4
REMARK                            x       y       z     vdW  Elec       q    Type
REMARK                         _______ _______ _______ _____ _____    ______ ____
ROOT
ATOM      1  N   UNL     1       3.859   5.384  19.409  0.00  0.00    +0.000 N 
ATOM      2  C   UNL     1       5.087   5.187  18.711  0.00  0.00    +0.000 A 
ATOM      3  C   UNL     1       6.275   5.723  19.237  0.00  0.00    +0.000 A 
ATOM      4  C   UNL     1       7.514   5.454  18.647  0.00  0.00    +0.000 A 
ATOM      5  C   UNL     1       7.586   4.662  17.505  0.00  0.00    +0.000 A 
ATOM      6  C   UNL     1       6.420   4.136  16.955  0.00  0.00    +0.000 A 
ATOM      7  C   UNL     1       5.177   4.378  17.559  0.00  0.00    +0.000 A 
ATOM      8  S   UNL     1       3.739   3.635  16.817  0.00  0.00    +0.000 S 
ATOM      9  C   UNL     1       2.673   3.543  18.242  0.00  0.00    +0.000 A 
ATOM     10  C   UNL     1       1.686   2.546  18.251  0.00  0.00    +0.000 A 
ATOM     11  C   UNL     1       0.816   2.420  19.333  0.00  0.00    +0.000 A 
ATOM     12  C   UNL     1       0.919   3.298  20.403  0.00  0.00    +0.000 A 
ATOM     13  C   UNL     1       1.900   4.292  20.398  0.00  0.00    +0.000 A 
ATOM     14  C   UNL     1       2.797   4.437  19.326  0.00  0.00    +0.000 A 
ENDROOT
BRANCH   1  15
ATOM     15  C   UNL     1       3.390   6.795  19.351  0.00  0.00    +0.000 C 
BRANCH  15  17
ATOM     16  C   UNL     1       2.322   8.586  17.908  0.00  0.00    +0.000 C 
ATOM     17  C   UNL     1       2.835   7.153  17.967  0.00  0.00    +0.000 C 
ENDBRANCH  15  17
ENDBRANCH   1  15
TORSDOF 2
ENDMDL
MODEL 2
REMARK VINA RESULT:      -6.7      1.967      4.326
REMARK  Name = 
REMARK  3 active torsions:
REMARK  status: ('A' for Active; 'I' for Inactive)
REMARK    1  A    between atoms: C_1  and  C_2
REMARK    2  A    between atoms: C_2  and  C_3
REMARK    3  A    between atoms: C_3  and  N_4
REMARK                            x       y       z     vdW  Elec       q    Type
REMARK                         _______ _______ _______ _____ _____    ______ ____
ROOT
ATOM      1  N   UNL     1       3.215   5.966  17.819  0.00  0.00    +0.000 N 
ATOM      2  C   UNL     1       2.633   7.134  18.395  0.00  0.00    +0.000 A 
ATOM      3  C   UNL     1       2.541   8.309  17.630  0.00  0.00    +0.000 A 
ATOM      4  C   UNL     1       1.874   9.439  18.115  0.00  0.00    +0.000 A 
ATOM      5  C   UNL     1       1.305   9.420  19.385  0.00  0.00    +0.000 A 
ATOM      6  C   UNL     1       1.400   8.274  20.169  0.00  0.00    +0.000 A 
ATOM      7  C   UNL     1       2.044   7.128  19.676  0.00  0.00    +0.000 A 
ATOM      8  S   UNL     1       2.087   5.689  20.725  0.00  0.00    +0.000 S 
ATOM      9  C   UNL     1       2.233   4.415  19.487  0.00  0.00    +0.000 A 
ATOM     10  C   UNL     1       1.748   3.138  19.810  0.00  0.00    +0.000 A 
ATOM     11  C   UNL     1       1.834   2.094  18.890  0.00  0.00    +0.000 A 
ATOM     12  C   UNL     1       2.417   2.317  17.651  0.00  0.00    +0.000 A 
ATOM     13  C   UNL     1       2.902   3.586  17.326  0.00  0.00    +0.000 A 
ATOM     14  C   UNL     1       2.820   4.659  18.229  0.00  0.00    +0.000 A 
ENDROOT
BRANCH   1  15
ATOM     15  C   UNL     1       4.685   6.098  17.624  0.00  0.00    +0.000 C 
BRANCH  15  17
ATOM     16  C   UNL     1       5.608   5.254  15.419  0.00  0.00    +0.000 C 
ATOM     17  C   UNL     1       5.038   6.448  16.173  0.00  0.00    +0.000 C 
ENDBRANCH  15  17
ENDBRANCH   1  15
TORSDOF 2
ENDMDL
MODEL 3
REMARK VINA RESULT:      -6.6      1.350      1.412
REMARK  Name = 
REMARK  3 active torsions:
REMARK  status: ('A' for Active; 'I' for Inactive)
REMARK    1  A    between atoms: C_1  and  C_2
REMARK    2  A    between atoms: C_2  and  C_3
REMARK    3  A    between atoms: C_3  and  N_4
REMARK                            x       y       z     vdW  Elec       q    Type
REMARK                         _______ _______ _______ _____ _____    ______ ____
ROOT
ATOM      1  N   UNL     1       3.268   5.704  18.502  0.00  0.00    +0.000 N 
ATOM      2  C   UNL     1       4.337   5.454  17.592  0.00  0.00    +0.000 A 
ATOM      3  C   UNL     1       5.290   6.459  17.353  0.00  0.00    +0.000 A 
ATOM      4  C   UNL     1       6.416   6.216  16.561  0.00  0.00    +0.000 A 
ATOM      5  C   UNL     1       6.598   4.967  15.973  0.00  0.00    +0.000 A 
ATOM      6  C   UNL     1       5.657   3.962  16.179  0.00  0.00    +0.000 A 
ATOM      7  C   UNL     1       4.540   4.192  16.996  0.00  0.00    +0.000 A 
ATOM      8  S   UNL     1       3.405   2.842  17.243  0.00  0.00    +0.000 S 
ATOM      9  C   UNL     1       2.719   3.305  18.821  0.00  0.00    +0.000 A 
ATOM     10  C   UNL     1       2.218   2.280  19.638  0.00  0.00    +0.000 A 
ATOM     11  C   UNL     1       1.664   2.572  20.883  0.00  0.00    +0.000 A 
ATOM     12  C   UNL     1       1.595   3.890  21.311  0.00  0.00    +0.000 A 
ATOM     13  C   UNL     1       2.091   4.914  20.502  0.00  0.00    +0.000 A 
ATOM     14  C   UNL     1       2.664   4.648  19.247  0.00  0.00    +0.000 A 
ENDROOT
BRANCH   1  15
ATOM     15  C   UNL     1       2.280   6.681  17.968  0.00  0.00    +0.000 C 
BRANCH  15  17
ATOM     16  C   UNL     1       1.914   9.188  17.858  0.00  0.00    +0.000 C 
ATOM     17  C   UNL     1       2.324   8.010  18.732  0.00  0.00    +0.000 C 
ENDBRANCH  15  17
ENDBRANCH   1  15
TORSDOF 2
ENDMDL
MODEL 4
REMARK VINA RESULT:      -6.6      1.637      4.296
REMARK  Name = 
REMARK  3 active torsions:
REMARK  status: ('A' for Active; 'I' for Inactive)
REMARK    1  A    between atoms: C_1  and  C_2
REMARK    2  A    between atoms: C_2  and  C_3
REMARK    3  A    between atoms: C_3  and  N_4
REMARK                            x       y       z     vdW  Elec       q    Type
REMARK                         _______ _______ _______ _____ _____    ______ ____
ROOT
ATOM      1  N   UNL     1       3.259   5.816  17.878  0.00  0.00    +0.000 N 
ATOM      2  C   UNL     1       2.699   7.022  18.395  0.00  0.00    +0.000 A 
ATOM      3  C   UNL     1       2.700   8.181  17.602  0.00  0.00    +0.000 A 
ATOM      4  C   UNL     1       2.059   9.350  18.024  0.00  0.00    +0.000 A 
ATOM      5  C   UNL     1       1.423   9.387  19.262  0.00  0.00    +0.000 A 
ATOM      6  C   UNL     1       1.425   8.256  20.074  0.00  0.00    +0.000 A 
ATOM      7  C   UNL     1       2.043   7.072  19.643  0.00  0.00    +0.000 A 
ATOM      8  S   UNL     1       1.966   5.659  20.723  0.00  0.00    +0.000 S 
ATOM      9  C   UNL     1       2.121   4.350  19.524  0.00  0.00    +0.000 A 
ATOM     10  C   UNL     1       1.563   3.104  19.847  0.00  0.00    +0.000 A 
ATOM     11  C   UNL     1       1.651   2.035  18.957  0.00  0.00    +0.000 A 
ATOM     12  C   UNL     1       2.310   2.202  17.746  0.00  0.00    +0.000 A 
ATOM     13  C   UNL     1       2.867   3.441  17.421  0.00  0.00    +0.000 A 
ATOM     14  C   UNL     1       2.785   4.538  18.294  0.00  0.00    +0.000 A 
ENDROOT
BRANCH   1  15
ATOM     15  C   UNL     1       4.742   5.880  17.761  0.00  0.00    +0.000 C 
BRANCH  15  17
ATOM     16  C   UNL     1       6.949   5.573  18.970  0.00  0.00    +0.000 C 
ATOM     17  C   UNL     1       5.434   5.445  19.058  0.00  0.00    +0.000 C 
ENDBRANCH  15  17
ENDBRANCH   1  15
TORSDOF 2
ENDMDL
MODEL 5
REMARK VINA RESULT:      -6.1      1.706      4.078
REMARK  Name = 
REMARK  3 active torsions:
REMARK  status: ('A' for Active; 'I' for Inactive)
REMARK    1  A    between atoms: C_1  and  C_2
REMARK    2  A    between atoms: C_2  and  C_3
REMARK    3  A    between atoms: C_3  and  N_4
REMARK                            x       y       z     vdW  Elec       q    Type
REMARK                         _______ _______ _______ _____ _____    ______ ____
ROOT
ATOM      1  N   UNL     1       3.935   5.484  18.187  0.00  0.00    +0.000 N 
ATOM      2  C   UNL     1       3.199   6.661  18.514  0.00  0.00    +0.000 A 
ATOM      3  C   UNL     1       3.305   7.793  17.689  0.00  0.00    +0.000 A 
ATOM      4  C   UNL     1       2.513   8.925  17.907  0.00  0.00    +0.000 A 
ATOM      5  C   UNL     1       1.615   8.953  18.970  0.00  0.00    +0.000 A 
ATOM      6  C   UNL     1       1.506   7.850  19.813  0.00  0.00    +0.000 A 
ATOM      7  C   UNL     1       2.278   6.701  19.582  0.00  0.00    +0.000 A 
ATOM      8  S   UNL     1       2.051   5.318  20.681  0.00  0.00    +0.000 S 
ATOM      9  C   UNL     1       2.552   3.989  19.605  0.00  0.00    +0.000 A 
ATOM     10  C   UNL     1       2.016   2.716  19.852  0.00  0.00    +0.000 A 
ATOM     11  C   UNL     1       2.369   1.630  19.052  0.00  0.00    +0.000 A 
ATOM     12  C   UNL     1       3.269   1.809  18.011  0.00  0.00    +0.000 A 
ATOM     13  C   UNL     1       3.806   3.074  17.762  0.00  0.00    +0.000 A 
ATOM     14  C   UNL     1       3.462   4.188  18.545  0.00  0.00    +0.000 A 
ENDROOT
BRANCH   1  15
ATOM     15  C   UNL     1       5.400   5.650  18.399  0.00  0.00    +0.000 C 
BRANCH  15  17
ATOM     16  C   UNL     1       7.269   6.936  17.268  0.00  0.00    +0.000 C 
ATOM     17  C   UNL     1       6.135   5.936  17.084  0.00  0.00    +0.000 C 
ENDBRANCH  15  17
ENDBRANCH   1  15
TORSDOF 2
ENDMDL
MODEL 6
REMARK VINA RESULT:      -6.1      1.988      3.183
REMARK  Name = 
REMARK  3 active torsions:
REMARK  status: ('A' for Active; 'I' for Inactive)
REMARK    1  A    between atoms: C_1  and  C_2
REMARK    2  A    between atoms: C_2  and  C_3
REMARK    3  A    between atoms: C_3  and  N_4
REMARK                            x       y       z     vdW  Elec       q    Type
REMARK                         _______ _______ _______ _____ _____    ______ ____
ROOT
ATOM      1  N   UNL     1       4.494   5.328  17.088  0.00  0.00    +0.000 N 
ATOM      2  C   UNL     1       5.742   5.818  17.575  0.00  0.00    +0.000 A 
ATOM      3  C   UNL     1       6.301   6.974  17.004  0.00  0.00    +0.000 A 
ATOM      4  C   UNL     1       7.461   7.553  17.528  0.00  0.00    +0.000 A 
ATOM      5  C   UNL     1       8.097   6.972  18.621  0.00  0.00    +0.000 A 
ATOM      6  C   UNL     1       7.572   5.816  19.191  0.00  0.00    +0.000 A 
ATOM      7  C   UNL     1       6.393   5.246  18.687  0.00  0.00    +0.000 A 
ATOM      8  S   UNL     1       5.766   3.791  19.499  0.00  0.00    +0.000 S 
ATOM      9  C   UNL     1       4.037   3.935  19.089  0.00  0.00    +0.000 A 
ATOM     10  C   UNL     1       3.111   3.340  19.960  0.00  0.00    +0.000 A 
ATOM     11  C   UNL     1       1.744   3.411  19.698  0.00  0.00    +0.000 A 
ATOM     12  C   UNL     1       1.297   4.064  18.558  0.00  0.00    +0.000 A 
ATOM     13  C   UNL     1       2.215   4.657  17.688  0.00  0.00    +0.000 A 
ATOM     14  C   UNL     1       3.598   4.610  17.932  0.00  0.00    +0.000 A 
ENDROOT
BRANCH   1  15
ATOM     15  C   UNL     1       4.604   4.746  15.722  0.00  0.00    +0.000 C 
BRANCH  15  17
ATOM     16  C   UNL     1       6.498   3.991  14.216  0.00  0.00    +0.000 C 
ATOM     17  C   UNL     1       5.841   3.851  15.582  0.00  0.00    +0.000 C 
ENDBRANCH  15  17
ENDBRANCH   1  15
TORSDOF 2
ENDMDL
MODEL 7
REMARK VINA RESULT:      -6.1      1.610      4.798
REMARK  Name = 
REMARK  3 active torsions:
REMARK  status: ('A' for Active; 'I' for Inactive)
REMARK    1  A    between atoms: C_1  and  C_2
REMARK    2  A    between atoms: C_2  and  C_3
REMARK    3  A    between atoms: C_3  and  N_4
REMARK                            x       y       z     vdW  Elec       q    Type
REMARK                         _______ _______ _______ _____ _____    ______ ____
ROOT
ATOM      1  N   UNL     1       4.100   5.446  18.441  0.00  0.00    +0.000 N 
ATOM      2  C   UNL     1       3.098   4.650  19.073  0.00  0.00    +0.000 A 
ATOM      3  C   UNL     1       2.171   5.262  19.934  0.00  0.00    +0.000 A 
ATOM      4  C   UNL     1       1.105   4.540  20.480  0.00  0.00    +0.000 A 
ATOM      5  C   UNL     1       0.960   3.186  20.193  0.00  0.00    +0.000 A 
ATOM      6  C   UNL     1       1.877   2.555  19.358  0.00  0.00    +0.000 A 
ATOM      7  C   UNL     1       2.933   3.280  18.785  0.00  0.00    +0.000 A 
ATOM      8  S   UNL     1       4.039   2.407  17.696  0.00  0.00    +0.000 S 
ATOM      9  C   UNL     1       4.610   3.764  16.690  0.00  0.00    +0.000 A 
ATOM     10  C   UNL     1       5.044   3.470  15.389  0.00  0.00    +0.000 A 
ATOM     11  C   UNL     1       5.507   4.483  14.550  0.00  0.00    +0.000 A 
ATOM     12  C   UNL     1       5.552   5.790  15.013  0.00  0.00    +0.000 A 
ATOM     13  C   UNL     1       5.122   6.087  16.309  0.00  0.00    +0.000 A 
ATOM     14  C   UNL     1       4.642   5.089  17.172  0.00  0.00    +0.000 A 
ENDROOT
BRANCH   1  15
ATOM     15  C   UNL     1       5.129   5.934  19.400  0.00  0.00    +0.000 C 
BRANCH  15  17
ATOM     16  C   UNL     1       7.645   5.909  19.088  0.00  0.00    +0.000 C 
ATOM     17  C   UNL     1       6.400   5.076  19.356  0.00  0.00    +0.000 C 
ENDBRANCH  15  17
ENDBRANCH   1  15
TORSDOF 2
ENDMDL
MODEL 8
REMARK VINA RESULT:      -6.1      1.488      4.625
REMARK  Name = 
REMARK  3 active torsions:
REMARK  status: ('A' for Active; 'I' for Inactive)
REMARK    1  A    between atoms: C_1  and  C_2
REMARK    2  A    between atoms: C_2  and  C_3
REMARK    3  A    between atoms: C_3  and  N_4
REMARK                            x       y       z     vdW  Elec       q    Type
REMARK                         _______ _______ _______ _____ _____    ______ ____
ROOT
ATOM      1  N   UNL     1       3.336   5.721  17.982  0.00  0.00    +0.000 N 
ATOM      2  C   UNL     1       2.825   4.766  18.910  0.00  0.00    +0.000 A 
ATOM      3  C   UNL     1       1.438   4.663  19.102  0.00  0.00    +0.000 A 
ATOM      4  C   UNL     1       0.890   3.664  19.913  0.00  0.00    +0.000 A 
ATOM      5  C   UNL     1       1.725   2.762  20.566  0.00  0.00    +0.000 A 
ATOM      6  C   UNL     1       3.105   2.856  20.406  0.00  0.00    +0.000 A 
ATOM      7  C   UNL     1       3.658   3.839  19.571  0.00  0.00    +0.000 A 
ATOM      8  S   UNL     1       5.429   3.866  19.388  0.00  0.00    +0.000 S 
ATOM      9  C   UNL     1       5.557   4.632  17.783  0.00  0.00    +0.000 A 
ATOM     10  C   UNL     1       6.698   4.348  17.018  0.00  0.00    +0.000 A 
ATOM     11  C   UNL     1       6.865   4.916  15.756  0.00  0.00    +0.000 A 
ATOM     12  C   UNL     1       5.899   5.781  15.260  0.00  0.00    +0.000 A 
ATOM     13  C   UNL     1       4.762   6.067  16.019  0.00  0.00    +0.000 A 
ATOM     14  C   UNL     1       4.563   5.502  17.289  0.00  0.00    +0.000 A 
ENDROOT
BRANCH   1  15
ATOM     15  C   UNL     1       3.178   7.122  18.459  0.00  0.00    +0.000 C 
BRANCH  15  17
ATOM     16  C   UNL     1       1.704   9.180  18.313  0.00  0.00    +0.000 C 
ATOM     17  C   UNL     1       2.143   7.892  17.629  0.00  0.00    +0.000 C 
ENDBRANCH  15  17
ENDBRANCH   1  15
TORSDOF 2
ENDMDL
MODEL 9
REMARK VINA RESULT:      -6.0      1.514      4.721
REMARK  Name = 
REMARK  3 active torsions:
REMARK  status: ('A' for Active; 'I' for Inactive)
REMARK    1  A    between atoms: C_1  and  C_2
REMARK    2  A    between atoms: C_2  and  C_3
REMARK    3  A    between atoms: C_3  and  N_4
REMARK                            x       y       z     vdW  Elec       q    Type
REMARK                         _______ _______ _______ _____ _____    ______ ____
ROOT
ATOM      1  N   UNL     1       3.361   5.883  18.126  0.00  0.00    +0.000 N 
ATOM      2  C   UNL     1       2.759   4.633  18.460  0.00  0.00    +0.000 A 
ATOM      3  C   UNL     1       1.481   4.327  17.963  0.00  0.00    +0.000 A 
ATOM      4  C   UNL     1       0.906   3.069  18.169  0.00  0.00    +0.000 A 
ATOM      5  C   UNL     1       1.591   2.101  18.898  0.00  0.00    +0.000 A 
ATOM      6  C   UNL     1       2.850   2.388  19.417  0.00  0.00    +0.000 A 
ATOM      7  C   UNL     1       3.444   3.639  19.189  0.00  0.00    +0.000 A 
ATOM      8  S   UNL     1       5.074   3.913  19.852  0.00  0.00    +0.000 S 
ATOM      9  C   UNL     1       5.658   5.158  18.719  0.00  0.00    +0.000 A 
ATOM     10  C   UNL     1       7.044   5.256  18.520  0.00  0.00    +0.000 A 
ATOM     11  C   UNL     1       7.570   6.210  17.651  0.00  0.00    +0.000 A 
ATOM     12  C   UNL     1       6.715   7.079  16.987  0.00  0.00    +0.000 A 
ATOM     13  C   UNL     1       5.335   6.986  17.182  0.00  0.00    +0.000 A 
ATOM     14  C   UNL     1       4.777   6.028  18.044  0.00  0.00    +0.000 A 
ENDROOT
BRANCH   1  15
ATOM     15  C   UNL     1       2.693   7.034  18.793  0.00  0.00    +0.000 C 
BRANCH  15  17
ATOM     16  C   UNL     1       1.549   9.270  18.447  0.00  0.00    +0.000 C 
ATOM     17  C   UNL     1       2.133   8.035  17.775  0.00  0.00    +0.000 C 
ENDBRANCH  15  17
ENDBRANCH   1  15
TORSDOF 2
ENDMDL
