MODEL 1
REMARK VINA RESULT:      -8.0      0.000      0.000
REMARK  Name = 
REMARK  12 active torsions:
REMARK  status: ('A' for Active; 'I' for Inactive)
REMARK    1  A    between atoms: C_1  and  O_2
REMARK    2  A    between atoms: O_2  and  C_3
REMARK    3  A    between atoms: C_6  and  C_7
REMARK    4  A    between atoms: C_10  and  C_11
REMARK    5  A    between atoms: C_15  and  N_16
REMARK    6  A    between atoms: C_17  and  C_19
REMARK    7  A    between atoms: C_19  and  N_20
REMARK    8  A    between atoms: C_21  and  O_23
REMARK    9  A    between atoms: O_23  and  C_24
REMARK   10  A    between atoms: C_24  and  C_25
REMARK   11  A    between atoms: C_24  and  C_26
REMARK   12  A    between atoms: C_24  and  C_27
REMARK                            x       y       z     vdW  Elec       q    Type
REMARK                         _______ _______ _______ _____ _____    ______ ____
ROOT
ATOM      1  C   UNL     1       0.988   9.008  20.289  0.00  0.00    +0.000 A 
ATOM      2  C   UNL     1       0.891   9.567  19.008  0.00  0.00    +0.000 A 
ATOM      3  C   UNL     1       1.581   9.000  17.934  0.00  0.00    +0.000 A 
ATOM      4  C   UNL     1       2.346   7.847  18.123  0.00  0.00    +0.000 A 
ATOM      5  C   UNL     1       2.480   7.298  19.399  0.00  0.00    +0.000 A 
ATOM      6  C   UNL     1       1.812   7.885  20.477  0.00  0.00    +0.000 A 
ENDROOT
BRANCH   1  10
ATOM      7  C   UNL     1      -0.944  11.202  22.310  0.00  0.00    +0.000 A 
ATOM      8  C   UNL     1      -0.884  10.187  23.242  0.00  0.00    +0.000 A 
ATOM      9  C   UNL     1      -0.117   9.144  22.661  0.00  0.00    +0.000 A 
ATOM     10  C   UNL     1       0.243   9.579  21.402  0.00  0.00    +0.000 A 
ATOM     11  O   UNL     1      -0.247  10.832  21.198  0.00  0.00    +0.000 OA
BRANCH   7  15
ATOM     12  C   UNL     1      -2.771  15.072  22.200  0.00  0.00    +0.000 A 
ATOM     13  C   UNL     1      -3.081  14.117  21.231  0.00  0.00    +0.000 A 
ATOM     14  C   UNL     1      -2.487  12.850  21.264  0.00  0.00    +0.000 A 
ATOM     15  C   UNL     1      -1.559  12.525  22.261  0.00  0.00    +0.000 A 
ATOM     16  C   UNL     1      -1.233  13.503  23.210  0.00  0.00    +0.000 A 
ATOM     17  C   UNL     1      -1.832  14.766  23.181  0.00  0.00    +0.000 A 
BRANCH  12  19
ATOM     18  C   UNL     1      -4.228  16.646  23.178  0.00  0.00    +0.000 C 
ATOM     19  O   UNL     1      -3.410  16.274  22.073  0.00  0.00    +0.000 OA
ENDBRANCH  12  19
ENDBRANCH   7  15
ENDBRANCH   1  10
BRANCH   5  20
ATOM     20  N   UNL     1       3.245   6.129  19.569  0.00  0.00    +0.000 N 
ATOM     21  C   UNL     1       2.723   4.854  19.405  0.00  0.00    +0.000 C 
ATOM     22  O   UNL     1       1.570   4.598  19.059  0.00  0.00    +0.000 OA
ATOM     23  H   UNL     1       4.139   6.220  20.039  0.00  0.00    +0.000 HD
BRANCH  21  24
ATOM     24  C   UNL     1       3.731   3.728  19.661  0.00  0.00    +0.000 C 
BRANCH  24  25
ATOM     25  N   UNL     1       4.708   3.667  18.595  0.00  0.00    +0.000 N 
ATOM     26  C   UNL     1       5.844   4.403  18.675  0.00  0.00    +0.000 C 
ATOM     27  O   UNL     1       6.135   5.049  19.682  0.00  0.00    +0.000 OA
ATOM     28  H   UNL     1       4.463   3.281  17.693  0.00  0.00    +0.000 HD
BRANCH  26  29
ATOM     29  O   UNL     1       6.567   4.341  17.536  0.00  0.00    +0.000 OA
BRANCH  29  30
ATOM     30  C   UNL     1       6.515   5.464  16.611  0.00  0.00    +0.000 C 
ATOM     31  C   UNL     1       7.400   6.620  17.106  0.00  0.00    +0.000 C 
ATOM     32  C   UNL     1       7.081   4.962  15.272  0.00  0.00    +0.000 C 
ATOM     33  C   UNL     1       5.069   5.916  16.364  0.00  0.00    +0.000 C 
ENDBRANCH  29  30
ENDBRANCH  26  29
ENDBRANCH  24  25
ENDBRANCH  21  24
ENDBRANCH   5  20
TORSDOF 8
ENDMDL
MODEL 2
REMARK VINA RESULT:      -7.9      0.758      1.135
REMARK  Name = 
REMARK  12 active torsions:
REMARK  status: ('A' for Active; 'I' for Inactive)
REMARK    1  A    between atoms: C_1  and  O_2
REMARK    2  A    between atoms: O_2  and  C_3
REMARK    3  A    between atoms: C_6  and  C_7
REMARK    4  A    between atoms: C_10  and  C_11
REMARK    5  A    between atoms: C_15  and  N_16
REMARK    6  A    between atoms: C_17  and  C_19
REMARK    7  A    between atoms: C_19  and  N_20
REMARK    8  A    between atoms: C_21  and  O_23
REMARK    9  A    between atoms: O_23  and  C_24
REMARK   10  A    between atoms: C_24  and  C_25
REMARK   11  A    between atoms: C_24  and  C_26
REMARK   12  A    between atoms: C_24  and  C_27
REMARK                            x       y       z     vdW  Elec       q    Type
REMARK                         _______ _______ _______ _____ _____    ______ ____
ROOT
ATOM      1  C   UNL     1       0.940   9.054  20.314  0.00  0.00    +0.000 A 
ATOM      2  C   UNL     1       0.843   9.608  19.030  0.00  0.00    +0.000 A 
ATOM      3  C   UNL     1       1.535   9.039  17.960  0.00  0.00    +0.000 A 
ATOM      4  C   UNL     1       2.302   7.888  18.153  0.00  0.00    +0.000 A 
ATOM      5  C   UNL     1       2.437   7.344  19.431  0.00  0.00    +0.000 A 
ATOM      6  C   UNL     1       1.766   7.933  20.507  0.00  0.00    +0.000 A 
ENDROOT
BRANCH   1  10
ATOM      7  C   UNL     1      -1.188  11.132  22.259  0.00  0.00    +0.000 A 
ATOM      8  C   UNL     1      -0.879  10.264  23.287  0.00  0.00    +0.000 A 
ATOM      9  C   UNL     1       0.012   9.298  22.751  0.00  0.00    +0.000 A 
ATOM     10  C   UNL     1       0.194   9.628  21.424  0.00  0.00    +0.000 A 
ATOM     11  O   UNL     1      -0.523  10.747  21.133  0.00  0.00    +0.000 OA
BRANCH   7  15
ATOM     12  C   UNL     1      -3.682  14.587  21.863  0.00  0.00    +0.000 A 
ATOM     13  C   UNL     1      -2.834  14.206  20.823  0.00  0.00    +0.000 A 
ATOM     14  C   UNL     1      -2.018  13.077  20.948  0.00  0.00    +0.000 A 
ATOM     15  C   UNL     1      -2.026  12.319  22.125  0.00  0.00    +0.000 A 
ATOM     16  C   UNL     1      -2.861  12.730  23.174  0.00  0.00    +0.000 A 
ATOM     17  C   UNL     1      -3.682  13.853  23.046  0.00  0.00    +0.000 A 
BRANCH  12  19
ATOM     18  C   UNL     1      -5.101  15.740  20.373  0.00  0.00    +0.000 C 
ATOM     19  O   UNL     1      -4.438  15.705  21.633  0.00  0.00    +0.000 OA
ENDBRANCH  12  19
ENDBRANCH   7  15
ENDBRANCH   1  10
BRANCH   5  20
ATOM     20  N   UNL     1       3.204   6.177  19.606  0.00  0.00    +0.000 N 
ATOM     21  C   UNL     1       2.733   4.909  19.295  0.00  0.00    +0.000 C 
ATOM     22  O   UNL     1       1.633   4.662  18.802  0.00  0.00    +0.000 OA
ATOM     23  H   UNL     1       4.037   6.247  20.181  0.00  0.00    +0.000 HD
BRANCH  21  24
ATOM     24  C   UNL     1       3.731   3.782  19.586  0.00  0.00    +0.000 C 
BRANCH  24  25
ATOM     25  N   UNL     1       4.718   3.692  18.532  0.00  0.00    +0.000 N 
ATOM     26  C   UNL     1       5.872   4.400  18.622  0.00  0.00    +0.000 C 
ATOM     27  O   UNL     1       6.167   5.044  19.630  0.00  0.00    +0.000 OA
ATOM     28  H   UNL     1       4.475   3.309  17.629  0.00  0.00    +0.000 HD
BRANCH  26  29
ATOM     29  O   UNL     1       6.606   4.316  17.492  0.00  0.00    +0.000 OA
BRANCH  29  30
ATOM     30  C   UNL     1       6.561   5.418  16.542  0.00  0.00    +0.000 C 
ATOM     31  C   UNL     1       7.049   4.965  15.157  0.00  0.00    +0.000 C 
ATOM     32  C   UNL     1       5.087   5.840  16.422  0.00  0.00    +0.000 C 
ATOM     33  C   UNL     1       7.350   6.630  17.058  0.00  0.00    +0.000 C 
ENDBRANCH  29  30
ENDBRANCH  26  29
ENDBRANCH  24  25
ENDBRANCH  21  24
ENDBRANCH   5  20
TORSDOF 8
ENDMDL
MODEL 3
REMARK VINA RESULT:      -7.7      0.780      1.091
REMARK  Name = 
REMARK  12 active torsions:
REMARK  status: ('A' for Active; 'I' for Inactive)
REMARK    1  A    between atoms: C_1  and  O_2
REMARK    2  A    between atoms: O_2  and  C_3
REMARK    3  A    between atoms: C_6  and  C_7
REMARK    4  A    between atoms: C_10  and  C_11
REMARK    5  A    between atoms: C_15  and  N_16
REMARK    6  A    between atoms: C_17  and  C_19
REMARK    7  A    between atoms: C_19  and  N_20
REMARK    8  A    between atoms: C_21  and  O_23
REMARK    9  A    between atoms: O_23  and  C_24
REMARK   10  A    between atoms: C_24  and  C_25
REMARK   11  A    between atoms: C_24  and  C_26
REMARK   12  A    between atoms: C_24  and  C_27
REMARK                            x       y       z     vdW  Elec       q    Type
REMARK                         _______ _______ _______ _____ _____    ______ ____
ROOT
ATOM      1  C   UNL     1       0.894   9.202  20.212  0.00  0.00    +0.000 A 
ATOM      2  C   UNL     1       0.783   9.840  18.968  0.00  0.00    +0.000 A 
ATOM      3  C   UNL     1       1.443   9.328  17.849  0.00  0.00    +0.000 A 
ATOM      4  C   UNL     1       2.190   8.152  17.952  0.00  0.00    +0.000 A 
ATOM      5  C   UNL     1       2.338   7.525  19.190  0.00  0.00    +0.000 A 
ATOM      6  C   UNL     1       1.701   8.056  20.315  0.00  0.00    +0.000 A 
ENDROOT
BRANCH   1  10
ATOM      7  C   UNL     1      -1.247  11.117  22.305  0.00  0.00    +0.000 A 
ATOM      8  C   UNL     1      -0.814  10.269  23.303  0.00  0.00    +0.000 A 
ATOM      9  C   UNL     1       0.108   9.371  22.705  0.00  0.00    +0.000 A 
ATOM     10  C   UNL     1       0.181   9.717  21.371  0.00  0.00    +0.000 A 
ATOM     11  O   UNL     1      -0.630  10.784  21.135  0.00  0.00    +0.000 OA
BRANCH   7  15
ATOM     12  C   UNL     1      -3.934  14.441  22.085  0.00  0.00    +0.000 A 
ATOM     13  C   UNL     1      -3.586  13.895  23.321  0.00  0.00    +0.000 A 
ATOM     14  C   UNL     1      -2.707  12.809  23.397  0.00  0.00    +0.000 A 
ATOM     15  C   UNL     1      -2.174  12.241  22.234  0.00  0.00    +0.000 A 
ATOM     16  C   UNL     1      -2.555  12.780  20.997  0.00  0.00    +0.000 A 
ATOM     17  C   UNL     1      -3.427  13.870  20.921  0.00  0.00    +0.000 A 
BRANCH  12  19
ATOM     18  C   UNL     1      -5.441  15.710  23.379  0.00  0.00    +0.000 C 
ATOM     19  O   UNL     1      -4.798  15.501  22.126  0.00  0.00    +0.000 OA
ENDBRANCH  12  19
ENDBRANCH   7  15
ENDBRANCH   1  10
BRANCH   5  20
ATOM     20  N   UNL     1       3.085   6.334  19.274  0.00  0.00    +0.000 N 
ATOM     21  C   UNL     1       2.557   5.143  19.752  0.00  0.00    +0.000 C 
ATOM     22  O   UNL     1       1.391   4.977  20.112  0.00  0.00    +0.000 OA
ATOM     23  H   UNL     1       4.093   6.408  19.190  0.00  0.00    +0.000 HD
BRANCH  21  24
ATOM     24  C   UNL     1       3.556   3.981  19.774  0.00  0.00    +0.000 C 
BRANCH  24  25
ATOM     25  N   UNL     1       4.227   3.862  18.497  0.00  0.00    +0.000 N 
ATOM     26  C   UNL     1       5.525   4.236  18.377  0.00  0.00    +0.000 C 
ATOM     27  O   UNL     1       6.200   4.577  19.349  0.00  0.00    +0.000 OA
ATOM     28  H   UNL     1       3.696   3.736  17.645  0.00  0.00    +0.000 HD
BRANCH  26  29
ATOM     29  O   UNL     1       5.945   4.200  17.094  0.00  0.00    +0.000 OA
BRANCH  29  30
ATOM     30  C   UNL     1       6.237   5.454  16.415  0.00  0.00    +0.000 C 
ATOM     31  C   UNL     1       7.329   6.237  17.161  0.00  0.00    +0.000 C 
ATOM     32  C   UNL     1       6.771   5.089  15.020  0.00  0.00    +0.000 C 
ATOM     33  C   UNL     1       4.964   6.291  16.221  0.00  0.00    +0.000 C 
ENDBRANCH  29  30
ENDBRANCH  26  29
ENDBRANCH  24  25
ENDBRANCH  21  24
ENDBRANCH   5  20
TORSDOF 8
ENDMDL
MODEL 4
REMARK VINA RESULT:      -7.6      1.637      3.104
REMARK  Name = 
REMARK  12 active torsions:
REMARK  status: ('A' for Active; 'I' for Inactive)
REMARK    1  A    between atoms: C_1  and  O_2
REMARK    2  A    between atoms: O_2  and  C_3
REMARK    3  A    between atoms: C_6  and  C_7
REMARK    4  A    between atoms: C_10  and  C_11
REMARK    5  A    between atoms: C_15  and  N_16
REMARK    6  A    between atoms: C_17  and  C_19
REMARK    7  A    between atoms: C_19  and  N_20
REMARK    8  A    between atoms: C_21  and  O_23
REMARK    9  A    between atoms: O_23  and  C_24
REMARK   10  A    between atoms: C_24  and  C_25
REMARK   11  A    between atoms: C_24  and  C_26
REMARK   12  A    between atoms: C_24  and  C_27
REMARK                            x       y       z     vdW  Elec       q    Type
REMARK                         _______ _______ _______ _____ _____    ______ ____
ROOT
ATOM      1  C   UNL     1       1.110   9.416  20.046  0.00  0.00    +0.000 A 
ATOM      2  C   UNL     1       1.172  10.417  19.067  0.00  0.00    +0.000 A 
ATOM      3  C   UNL     1       1.776  10.165  17.834  0.00  0.00    +0.000 A 
ATOM      4  C   UNL     1       2.291   8.897  17.552  0.00  0.00    +0.000 A 
ATOM      5  C   UNL     1       2.267   7.900  18.528  0.00  0.00    +0.000 A 
ATOM      6  C   UNL     1       1.689   8.165  19.772  0.00  0.00    +0.000 A 
ENDROOT
BRANCH   1  10
ATOM      7  C   UNL     1      -0.773  10.931  22.652  0.00  0.00    +0.000 A 
ATOM      8  C   UNL     1      -0.499   9.771  23.347  0.00  0.00    +0.000 A 
ATOM      9  C   UNL     1       0.292   8.960  22.493  0.00  0.00    +0.000 A 
ATOM     10  C   UNL     1       0.452   9.669  21.320  0.00  0.00    +0.000 A 
ATOM     11  O   UNL     1      -0.182  10.868  21.424  0.00  0.00    +0.000 OA
BRANCH   7  15
ATOM     12  C   UNL     1      -2.937  14.522  23.515  0.00  0.00    +0.000 A 
ATOM     13  C   UNL     1      -3.573  13.282  23.582  0.00  0.00    +0.000 A 
ATOM     14  C   UNL     1      -2.868  12.105  23.302  0.00  0.00    +0.000 A 
ATOM     15  C   UNL     1      -1.519  12.154  22.933  0.00  0.00    +0.000 A 
ATOM     16  C   UNL     1      -0.900  13.409  22.840  0.00  0.00    +0.000 A 
ATOM     17  C   UNL     1      -1.601  14.583  23.127  0.00  0.00    +0.000 A 
BRANCH  12  19
ATOM     18  C   UNL     1      -5.121  15.357  23.822  0.00  0.00    +0.000 C 
ATOM     19  O   UNL     1      -3.719  15.605  23.810  0.00  0.00    +0.000 OA
ENDBRANCH  12  19
ENDBRANCH   7  15
ENDBRANCH   1  10
BRANCH   5  20
ATOM     20  N   UNL     1       2.780   6.625  18.223  0.00  0.00    +0.000 N 
ATOM     21  C   UNL     1       3.999   6.432  17.590  0.00  0.00    +0.000 C 
ATOM     22  O   UNL     1       4.780   7.327  17.265  0.00  0.00    +0.000 OA
ATOM     23  H   UNL     1       2.139   5.840  18.269  0.00  0.00    +0.000 HD
BRANCH  21  24
ATOM     24  C   UNL     1       4.348   4.960  17.339  0.00  0.00    +0.000 C 
BRANCH  24  25
ATOM     25  N   UNL     1       3.490   4.094  18.120  0.00  0.00    +0.000 N 
ATOM     26  C   UNL     1       3.989   3.444  19.201  0.00  0.00    +0.000 C 
ATOM     27  O   UNL     1       5.131   3.647  19.617  0.00  0.00    +0.000 OA
ATOM     28  H   UNL     1       2.605   3.776  17.751  0.00  0.00    +0.000 HD
BRANCH  26  29
ATOM     29  O   UNL     1       3.100   2.572  19.721  0.00  0.00    +0.000 OA
BRANCH  29  30
ATOM     30  C   UNL     1       2.007   3.084  20.534  0.00  0.00    +0.000 C 
ATOM     31  C   UNL     1       2.234   4.564  20.883  0.00  0.00    +0.000 C 
ATOM     32  C   UNL     1       0.731   2.979  19.681  0.00  0.00    +0.000 C 
ATOM     33  C   UNL     1       1.798   2.226  21.790  0.00  0.00    +0.000 C 
ENDBRANCH  29  30
ENDBRANCH  26  29
ENDBRANCH  24  25
ENDBRANCH  21  24
ENDBRANCH   5  20
TORSDOF 8
ENDMDL
MODEL 5
REMARK VINA RESULT:      -7.6      0.836      1.312
REMARK  Name = 
REMARK  12 active torsions:
REMARK  status: ('A' for Active; 'I' for Inactive)
REMARK    1  A    between atoms: C_1  and  O_2
REMARK    2  A    between atoms: O_2  and  C_3
REMARK    3  A    between atoms: C_6  and  C_7
REMARK    4  A    between atoms: C_10  and  C_11
REMARK    5  A    between atoms: C_15  and  N_16
REMARK    6  A    between atoms: C_17  and  C_19
REMARK    7  A    between atoms: C_19  and  N_20
REMARK    8  A    between atoms: C_21  and  O_23
REMARK    9  A    between atoms: O_23  and  C_24
REMARK   10  A    between atoms: C_24  and  C_25
REMARK   11  A    between atoms: C_24  and  C_26
REMARK   12  A    between atoms: C_24  and  C_27
REMARK                            x       y       z     vdW  Elec       q    Type
REMARK                         _______ _______ _______ _____ _____    ______ ____
ROOT
ATOM      1  C   UNL     1       0.998   9.152  20.278  0.00  0.00    +0.000 A 
ATOM      2  C   UNL     1       1.010   9.827  19.050  0.00  0.00    +0.000 A 
ATOM      3  C   UNL     1       1.676   9.284  17.949  0.00  0.00    +0.000 A 
ATOM      4  C   UNL     1       2.305   8.042  18.054  0.00  0.00    +0.000 A 
ATOM      5  C   UNL     1       2.332   7.373  19.278  0.00  0.00    +0.000 A 
ATOM      6  C   UNL     1       1.690   7.933  20.386  0.00  0.00    +0.000 A 
ENDROOT
BRANCH   1  10
ATOM      7  C   UNL     1      -0.968  11.266  22.350  0.00  0.00    +0.000 A 
ATOM      8  C   UNL     1      -0.787  10.284  23.301  0.00  0.00    +0.000 A 
ATOM      9  C   UNL     1       0.017   9.279  22.703  0.00  0.00    +0.000 A 
ATOM     10  C   UNL     1       0.277   9.703  21.416  0.00  0.00    +0.000 A 
ATOM     11  O   UNL     1      -0.309  10.912  21.209  0.00  0.00    +0.000 OA
BRANCH   7  15
ATOM     12  C   UNL     1      -3.012  15.023  22.182  0.00  0.00    +0.000 A 
ATOM     13  C   UNL     1      -2.243  14.687  23.297  0.00  0.00    +0.000 A 
ATOM     14  C   UNL     1      -1.572  13.460  23.355  0.00  0.00    +0.000 A 
ATOM     15  C   UNL     1      -1.675  12.542  22.303  0.00  0.00    +0.000 A 
ATOM     16  C   UNL     1      -2.475  12.880  21.202  0.00  0.00    +0.000 A 
ATOM     17  C   UNL     1      -3.138  14.108  21.141  0.00  0.00    +0.000 A 
BRANCH  12  19
ATOM     18  C   UNL     1      -4.447  16.557  21.111  0.00  0.00    +0.000 C 
ATOM     19  O   UNL     1      -3.622  16.247  22.229  0.00  0.00    +0.000 OA
ENDBRANCH  12  19
ENDBRANCH   7  15
ENDBRANCH   1  10
BRANCH   5  20
ATOM     20  N   UNL     1       2.960   6.116  19.363  0.00  0.00    +0.000 N 
ATOM     21  C   UNL     1       2.365   5.011  19.954  0.00  0.00    +0.000 C 
ATOM     22  O   UNL     1       1.228   4.985  20.426  0.00  0.00    +0.000 OA
ATOM     23  H   UNL     1       3.959   6.080  19.185  0.00  0.00    +0.000 HD
BRANCH  21  24
ATOM     24  C   UNL     1       3.240   3.753  19.953  0.00  0.00    +0.000 C 
BRANCH  24  25
ATOM     25  N   UNL     1       3.685   3.444  18.611  0.00  0.00    +0.000 N 
ATOM     26  C   UNL     1       4.940   3.780  18.219  0.00  0.00    +0.000 C 
ATOM     27  O   UNL     1       5.766   4.247  19.003  0.00  0.00    +0.000 OA
ATOM     28  H   UNL     1       3.019   3.203  17.889  0.00  0.00    +0.000 HD
BRANCH  26  29
ATOM     29  O   UNL     1       5.135   3.554  16.903  0.00  0.00    +0.000 OA
BRANCH  29  30
ATOM     30  C   UNL     1       5.709   4.614  16.087  0.00  0.00    +0.000 C 
ATOM     31  C   UNL     1       5.073   5.971  16.428  0.00  0.00    +0.000 C 
ATOM     32  C   UNL     1       7.206   4.680  16.436  0.00  0.00    +0.000 C 
ATOM     33  C   UNL     1       5.596   4.288  14.591  0.00  0.00    +0.000 C 
ENDBRANCH  29  30
ENDBRANCH  26  29
ENDBRANCH  24  25
ENDBRANCH  21  24
ENDBRANCH   5  20
TORSDOF 8
ENDMDL
MODEL 6
REMARK VINA RESULT:      -7.5      2.339      4.228
REMARK  Name = 
REMARK  12 active torsions:
REMARK  status: ('A' for Active; 'I' for Inactive)
REMARK    1  A    between atoms: C_1  and  O_2
REMARK    2  A    between atoms: O_2  and  C_3
REMARK    3  A    between atoms: C_6  and  C_7
REMARK    4  A    between atoms: C_10  and  C_11
REMARK    5  A    between atoms: C_15  and  N_16
REMARK    6  A    between atoms: C_17  and  C_19
REMARK    7  A    between atoms: C_19  and  N_20
REMARK    8  A    between atoms: C_21  and  O_23
REMARK    9  A    between atoms: O_23  and  C_24
REMARK   10  A    between atoms: C_24  and  C_25
REMARK   11  A    between atoms: C_24  and  C_26
REMARK   12  A    between atoms: C_24  and  C_27
REMARK                            x       y       z     vdW  Elec       q    Type
REMARK                         _______ _______ _______ _____ _____    ______ ____
ROOT
ATOM      1  C   UNL     1       2.551   6.572  19.260  0.00  0.00    +0.000 A 
ATOM      2  C   UNL     1       2.004   5.747  20.253  0.00  0.00    +0.000 A 
ATOM      3  C   UNL     1       2.528   4.474  20.482  0.00  0.00    +0.000 A 
ATOM      4  C   UNL     1       3.629   4.026  19.748  0.00  0.00    +0.000 A 
ATOM      5  C   UNL     1       4.163   4.821  18.733  0.00  0.00    +0.000 A 
ATOM      6  C   UNL     1       3.617   6.084  18.486  0.00  0.00    +0.000 A 
ENDROOT
BRANCH   1  10
ATOM      7  C   UNL     1       0.960   9.714  19.740  0.00  0.00    +0.000 A 
ATOM      8  C   UNL     1       1.372   9.973  18.449  0.00  0.00    +0.000 A 
ATOM      9  C   UNL     1       2.054   8.813  17.998  0.00  0.00    +0.000 A 
ATOM     10  C   UNL     1       2.025   7.912  19.042  0.00  0.00    +0.000 A 
ATOM     11  O   UNL     1       1.349   8.455  20.091  0.00  0.00    +0.000 OA
BRANCH   7  15
ATOM     12  C   UNL     1      -1.223  11.872  22.722  0.00  0.00    +0.000 A 
ATOM     13  C   UNL     1      -0.803  12.511  21.555  0.00  0.00    +0.000 A 
ATOM     14  C   UNL     1      -0.090  11.808  20.577  0.00  0.00    +0.000 A 
ATOM     15  C   UNL     1       0.228  10.457  20.760  0.00  0.00    +0.000 A 
ATOM     16  C   UNL     1      -0.175   9.836  21.951  0.00  0.00    +0.000 A 
ATOM     17  C   UNL     1      -0.893  10.535  22.924  0.00  0.00    +0.000 A 
BRANCH  12  19
ATOM     18  C   UNL     1      -3.326  12.466  23.609  0.00  0.00    +0.000 C 
ATOM     19  O   UNL     1      -1.914  12.652  23.609  0.00  0.00    +0.000 OA
ENDBRANCH  12  19
ENDBRANCH   7  15
ENDBRANCH   1  10
BRANCH   5  20
ATOM     20  N   UNL     1       5.279   4.359  18.011  0.00  0.00    +0.000 N 
ATOM     21  C   UNL     1       6.152   5.207  17.345  0.00  0.00    +0.000 C 
ATOM     22  O   UNL     1       6.082   6.436  17.339  0.00  0.00    +0.000 OA
ATOM     23  H   UNL     1       5.317   3.370  17.791  0.00  0.00    +0.000 HD
BRANCH  21  24
ATOM     24  C   UNL     1       7.285   4.485  16.607  0.00  0.00    +0.000 C 
BRANCH  24  25
ATOM     25  N   UNL     1       6.750   3.609  15.587  0.00  0.00    +0.000 N 
ATOM     26  C   UNL     1       6.238   4.132  14.445  0.00  0.00    +0.000 C 
ATOM     27  O   UNL     1       6.309   5.335  14.188  0.00  0.00    +0.000 OA
ATOM     28  H   UNL     1       6.530   2.645  15.798  0.00  0.00    +0.000 HD
BRANCH  26  29
ATOM     29  O   UNL     1       5.652   3.191  13.675  0.00  0.00    +0.000 OA
BRANCH  29  30
ATOM     30  C   UNL     1       5.824   3.257  12.231  0.00  0.00    +0.000 C 
ATOM     31  C   UNL     1       7.056   4.101  11.867  0.00  0.00    +0.000 C 
ATOM     32  C   UNL     1       6.064   1.817  11.746  0.00  0.00    +0.000 C 
ATOM     33  C   UNL     1       4.553   3.773  11.542  0.00  0.00    +0.000 C 
ENDBRANCH  29  30
ENDBRANCH  26  29
ENDBRANCH  24  25
ENDBRANCH  21  24
ENDBRANCH   5  20
TORSDOF 8
ENDMDL
MODEL 7
REMARK VINA RESULT:      -7.5      1.626      3.151
REMARK  Name = 
REMARK  12 active torsions:
REMARK  status: ('A' for Active; 'I' for Inactive)
REMARK    1  A    between atoms: C_1  and  O_2
REMARK    2  A    between atoms: O_2  and  C_3
REMARK    3  A    between atoms: C_6  and  C_7
REMARK    4  A    between atoms: C_10  and  C_11
REMARK    5  A    between atoms: C_15  and  N_16
REMARK    6  A    between atoms: C_17  and  C_19
REMARK    7  A    between atoms: C_19  and  N_20
REMARK    8  A    between atoms: C_21  and  O_23
REMARK    9  A    between atoms: O_23  and  C_24
REMARK   10  A    between atoms: C_24  and  C_25
REMARK   11  A    between atoms: C_24  and  C_26
REMARK   12  A    between atoms: C_24  and  C_27
REMARK                            x       y       z     vdW  Elec       q    Type
REMARK                         _______ _______ _______ _____ _____    ______ ____
ROOT
ATOM      1  C   UNL     1       1.149   9.337  20.040  0.00  0.00    +0.000 A 
ATOM      2  C   UNL     1       1.219  10.328  19.052  0.00  0.00    +0.000 A 
ATOM      3  C   UNL     1       1.824  10.061  17.822  0.00  0.00    +0.000 A 
ATOM      4  C   UNL     1       2.331   8.788  17.553  0.00  0.00    +0.000 A 
ATOM      5  C   UNL     1       2.300   7.800  18.538  0.00  0.00    +0.000 A 
ATOM      6  C   UNL     1       1.721   8.080  19.779  0.00  0.00    +0.000 A 
ENDROOT
BRANCH   1  10
ATOM      7  C   UNL     1      -0.724  10.890  22.630  0.00  0.00    +0.000 A 
ATOM      8  C   UNL     1      -0.464   9.733  23.334  0.00  0.00    +0.000 A 
ATOM      9  C   UNL     1       0.320   8.907  22.487  0.00  0.00    +0.000 A 
ATOM     10  C   UNL     1       0.491   9.606  21.310  0.00  0.00    +0.000 A 
ATOM     11  O   UNL     1      -0.131  10.812  21.405  0.00  0.00    +0.000 OA
BRANCH   7  15
ATOM     12  C   UNL     1      -2.896  14.499  23.391  0.00  0.00    +0.000 A 
ATOM     13  C   UNL     1      -1.570  14.551  22.960  0.00  0.00    +0.000 A 
ATOM     14  C   UNL     1      -0.857  13.374  22.709  0.00  0.00    +0.000 A 
ATOM     15  C   UNL     1      -1.456  12.123  22.902  0.00  0.00    +0.000 A 
ATOM     16  C   UNL     1      -2.779  12.085  23.364  0.00  0.00    +0.000 A 
ATOM     17  C   UNL     1      -3.494  13.261  23.607  0.00  0.00    +0.000 A 
BRANCH  12  19
ATOM     18  C   UNL     1      -2.677  16.847  23.357  0.00  0.00    +0.000 C 
ATOM     19  O   UNL     1      -3.498  15.710  23.603  0.00  0.00    +0.000 OA
ENDBRANCH  12  19
ENDBRANCH   7  15
ENDBRANCH   1  10
BRANCH   5  20
ATOM     20  N   UNL     1       2.805   6.519  18.246  0.00  0.00    +0.000 N 
ATOM     21  C   UNL     1       4.017   6.313  17.602  0.00  0.00    +0.000 C 
ATOM     22  O   UNL     1       4.796   7.201  17.255  0.00  0.00    +0.000 OA
ATOM     23  H   UNL     1       2.162   5.737  18.310  0.00  0.00    +0.000 HD
BRANCH  21  24
ATOM     24  C   UNL     1       4.357   4.837  17.368  0.00  0.00    +0.000 C 
BRANCH  24  25
ATOM     25  N   UNL     1       3.512   3.985  18.177  0.00  0.00    +0.000 N 
ATOM     26  C   UNL     1       4.017   3.388  19.286  0.00  0.00    +0.000 C 
ATOM     27  O   UNL     1       5.152   3.629  19.699  0.00  0.00    +0.000 OA
ATOM     28  H   UNL     1       2.635   3.635  17.817  0.00  0.00    +0.000 HD
BRANCH  26  29
ATOM     29  O   UNL     1       3.142   2.519  19.834  0.00  0.00    +0.000 OA
BRANCH  29  30
ATOM     30  C   UNL     1       1.999   3.043  20.568  0.00  0.00    +0.000 C 
ATOM     31  C   UNL     1       1.765   2.243  21.859  0.00  0.00    +0.000 C 
ATOM     32  C   UNL     1       2.345   4.492  20.953  0.00  0.00    +0.000 C 
ATOM     33  C   UNL     1       0.743   3.086  19.686  0.00  0.00    +0.000 C 
ENDBRANCH  29  30
ENDBRANCH  26  29
ENDBRANCH  24  25
ENDBRANCH  21  24
ENDBRANCH   5  20
TORSDOF 8
ENDMDL
MODEL 8
REMARK VINA RESULT:      -7.5      1.017      1.489
REMARK  Name = 
REMARK  12 active torsions:
REMARK  status: ('A' for Active; 'I' for Inactive)
REMARK    1  A    between atoms: C_1  and  O_2
REMARK    2  A    between atoms: O_2  and  C_3
REMARK    3  A    between atoms: C_6  and  C_7
REMARK    4  A    between atoms: C_10  and  C_11
REMARK    5  A    between atoms: C_15  and  N_16
REMARK    6  A    between atoms: C_17  and  C_19
REMARK    7  A    between atoms: C_19  and  N_20
REMARK    8  A    between atoms: C_21  and  O_23
REMARK    9  A    between atoms: O_23  and  C_24
REMARK   10  A    between atoms: C_24  and  C_25
REMARK   11  A    between atoms: C_24  and  C_26
REMARK   12  A    between atoms: C_24  and  C_27
REMARK                            x       y       z     vdW  Elec       q    Type
REMARK                         _______ _______ _______ _____ _____    ______ ____
ROOT
ATOM      1  C   UNL     1       0.890   9.205  20.376  0.00  0.00    +0.000 A 
ATOM      2  C   UNL     1       0.831   9.788  19.103  0.00  0.00    +0.000 A 
ATOM      3  C   UNL     1       1.505   9.208  18.027  0.00  0.00    +0.000 A 
ATOM      4  C   UNL     1       2.215   8.018  18.203  0.00  0.00    +0.000 A 
ATOM      5  C   UNL     1       2.312   7.444  19.471  0.00  0.00    +0.000 A 
ATOM      6  C   UNL     1       1.661   8.043  20.553  0.00  0.00    +0.000 A 
ENDROOT
BRANCH   1  10
ATOM      7  C   UNL     1      -0.755  11.518  22.515  0.00  0.00    +0.000 A 
ATOM      8  C   UNL     1      -1.012  10.412  23.298  0.00  0.00    +0.000 A 
ATOM      9  C   UNL     1      -0.419   9.301  22.643  0.00  0.00    +0.000 A 
ATOM     10  C   UNL     1       0.162   9.792  21.492  0.00  0.00    +0.000 A 
ATOM     11  O   UNL     1      -0.031  11.136  21.424  0.00  0.00    +0.000 OA
BRANCH   7  15
ATOM     12  C   UNL     1      -1.707  15.686  22.729  0.00  0.00    +0.000 A 
ATOM     13  C   UNL     1      -0.457  15.270  22.270  0.00  0.00    +0.000 A 
ATOM     14  C   UNL     1      -0.142  13.909  22.197  0.00  0.00    +0.000 A 
ATOM     15  C   UNL     1      -1.070  12.940  22.599  0.00  0.00    +0.000 A 
ATOM     16  C   UNL     1      -2.311  13.373  23.088  0.00  0.00    +0.000 A 
ATOM     17  C   UNL     1      -2.629  14.732  23.153  0.00  0.00    +0.000 A 
BRANCH  12  19
ATOM     18  C   UNL     1      -1.085  17.756  23.670  0.00  0.00    +0.000 C 
ATOM     19  O   UNL     1      -1.909  17.039  22.757  0.00  0.00    +0.000 OA
ENDBRANCH  12  19
ENDBRANCH   7  15
ENDBRANCH   1  10
BRANCH   5  20
ATOM     20  N   UNL     1       3.022   6.239  19.629  0.00  0.00    +0.000 N 
ATOM     21  C   UNL     1       2.404   5.028  19.909  0.00  0.00    +0.000 C 
ATOM     22  O   UNL     1       1.189   4.859  20.009  0.00  0.00    +0.000 OA
ATOM     23  H   UNL     1       4.027   6.301  19.760  0.00  0.00    +0.000 HD
BRANCH  21  24
ATOM     24  C   UNL     1       3.374   3.851  20.060  0.00  0.00    +0.000 C 
BRANCH  24  25
ATOM     25  N   UNL     1       3.972   3.518  18.784  0.00  0.00    +0.000 N 
ATOM     26  C   UNL     1       5.199   3.999  18.465  0.00  0.00    +0.000 C 
ATOM     27  O   UNL     1       5.884   4.630  19.272  0.00  0.00    +0.000 OA
ATOM     28  H   UNL     1       3.410   3.138  18.035  0.00  0.00    +0.000 HD
BRANCH  26  29
ATOM     29  O   UNL     1       5.537   3.715  17.190  0.00  0.00    +0.000 OA
BRANCH  29  30
ATOM     30  C   UNL     1       5.816   4.814  16.276  0.00  0.00    +0.000 C 
ATOM     31  C   UNL     1       5.657   4.363  14.815  0.00  0.00    +0.000 C 
ATOM     32  C   UNL     1       4.769   5.904  16.562  0.00  0.00    +0.000 C 
ATOM     33  C   UNL     1       7.201   5.420  16.540  0.00  0.00    +0.000 C 
ENDBRANCH  29  30
ENDBRANCH  26  29
ENDBRANCH  24  25
ENDBRANCH  21  24
ENDBRANCH   5  20
TORSDOF 8
ENDMDL
MODEL 9
REMARK VINA RESULT:      -7.5      1.765      3.328
REMARK  Name = 
REMARK  12 active torsions:
REMARK  status: ('A' for Active; 'I' for Inactive)
REMARK    1  A    between atoms: C_1  and  O_2
REMARK    2  A    between atoms: O_2  and  C_3
REMARK    3  A    between atoms: C_6  and  C_7
REMARK    4  A    between atoms: C_10  and  C_11
REMARK    5  A    between atoms: C_15  and  N_16
REMARK    6  A    between atoms: C_17  and  C_19
REMARK    7  A    between atoms: C_19  and  N_20
REMARK    8  A    between atoms: C_21  and  O_23
REMARK    9  A    between atoms: O_23  and  C_24
REMARK   10  A    between atoms: C_24  and  C_25
REMARK   11  A    between atoms: C_24  and  C_26
REMARK   12  A    between atoms: C_24  and  C_27
REMARK                            x       y       z     vdW  Elec       q    Type
REMARK                         _______ _______ _______ _____ _____    ______ ____
ROOT
ATOM      1  C   UNL     1       1.124   9.245  20.035  0.00  0.00    +0.000 A 
ATOM      2  C   UNL     1       1.086  10.087  18.915  0.00  0.00    +0.000 A 
ATOM      3  C   UNL     1       1.713   9.712  17.725  0.00  0.00    +0.000 A 
ATOM      4  C   UNL     1       2.353   8.473  17.630  0.00  0.00    +0.000 A 
ATOM      5  C   UNL     1       2.428   7.639  18.746  0.00  0.00    +0.000 A 
ATOM      6  C   UNL     1       1.826   8.031  19.945  0.00  0.00    +0.000 A 
ENDROOT
BRANCH   1  10
ATOM      7  C   UNL     1      -1.019  10.846  22.374  0.00  0.00    +0.000 A 
ATOM      8  C   UNL     1      -0.476   9.959  23.281  0.00  0.00    +0.000 A 
ATOM      9  C   UNL     1       0.468   9.174  22.570  0.00  0.00    +0.000 A 
ATOM     10  C   UNL     1       0.444   9.623  21.265  0.00  0.00    +0.000 A 
ATOM     11  O   UNL     1      -0.447  10.644  21.153  0.00  0.00    +0.000 OA
BRANCH   7  15
ATOM     12  C   UNL     1      -3.926  13.982  22.561  0.00  0.00    +0.000 A 
ATOM     13  C   UNL     1      -3.761  13.109  23.636  0.00  0.00    +0.000 A 
ATOM     14  C   UNL     1      -2.810  12.083  23.580  0.00  0.00    +0.000 A 
ATOM     15  C   UNL     1      -2.021  11.905  22.437  0.00  0.00    +0.000 A 
ATOM     16  C   UNL     1      -2.219  12.771  21.352  0.00  0.00    +0.000 A 
ATOM     17  C   UNL     1      -3.163  13.800  21.411  0.00  0.00    +0.000 A 
BRANCH  12  19
ATOM     18  C   UNL     1      -6.076  14.519  23.369  0.00  0.00    +0.000 C 
ATOM     19  O   UNL     1      -4.881  14.949  22.724  0.00  0.00    +0.000 OA
ENDBRANCH  12  19
ENDBRANCH   7  15
ENDBRANCH   1  10
BRANCH   5  20
ATOM     20  N   UNL     1       3.066   6.389  18.630  0.00  0.00    +0.000 N 
ATOM     21  C   UNL     1       4.265   6.212  17.954  0.00  0.00    +0.000 C 
ATOM     22  O   UNL     1       4.920   7.109  17.424  0.00  0.00    +0.000 OA
ATOM     23  H   UNL     1       2.522   5.564  18.857  0.00  0.00    +0.000 HD
BRANCH  21  24
ATOM     24  C   UNL     1       4.765   4.763  17.936  0.00  0.00    +0.000 C 
BRANCH  24  25
ATOM     25  N   UNL     1       4.329   4.060  19.124  0.00  0.00    +0.000 N 
ATOM     26  C   UNL     1       3.550   2.956  19.010  0.00  0.00    +0.000 C 
ATOM     27  O   UNL     1       3.281   2.455  17.918  0.00  0.00    +0.000 OA
ATOM     28  H   UNL     1       4.389   4.498  20.034  0.00  0.00    +0.000 HD
BRANCH  26  29
ATOM     29  O   UNL     1       3.117   2.517  20.211  0.00  0.00    +0.000 OA
BRANCH  29  30
ATOM     30  C   UNL     1       1.883   3.064  20.755  0.00  0.00    +0.000 C 
ATOM     31  C   UNL     1       1.431   2.269  21.991  0.00  0.00    +0.000 C 
ATOM     32  C   UNL     1       2.192   4.506  21.194  0.00  0.00    +0.000 C 
ATOM     33  C   UNL     1       0.784   3.131  19.685  0.00  0.00    +0.000 C 
ENDBRANCH  29  30
ENDBRANCH  26  29
ENDBRANCH  24  25
ENDBRANCH  21  24
ENDBRANCH   5  20
TORSDOF 8
ENDMDL
