MODEL 1
REMARK VINA RESULT:      -7.1      0.000      0.000
REMARK  Name = 
REMARK  7 active torsions:
REMARK  status: ('A' for Active; 'I' for Inactive)
REMARK    1  A    between atoms: C_1  and  C_2
REMARK    2  A    between atoms: C_2  and  C_3
REMARK    3  A    between atoms: N_8  and  C_9
REMARK    4  A    between atoms: C_11  and  O_12
REMARK    5  A    between atoms: O_12  and  C_13
REMARK    6  A    between atoms: C_15  and  O_16
REMARK    7  A    between atoms: O_16  and  C_17
REMARK                            x       y       z     vdW  Elec       q    Type
REMARK                         _______ _______ _______ _____ _____    ______ ____
ROOT
ATOM      1  C   UNL     1       2.976   3.986  19.751  0.00  0.00    +0.000 C 
ATOM      2  C   UNL     1       2.200   4.818  18.731  0.00  0.00    +0.000 C 
ATOM      3  N   UNL     1       2.948   5.996  18.290  0.00  0.00    +0.000 N 
ATOM      4  C   UNL     1       2.710   7.323  18.643  0.00  0.00    +0.000 C 
ATOM      5  O   UNL     1       3.457   8.227  18.258  0.00  0.00    +0.000 OA
ATOM      6  N   UNL     1       1.642   7.567  19.486  0.00  0.00    +0.000 N 
ATOM      7  C   UNL     1       4.079   5.677  17.463  0.00  0.00    +0.000 A 
ATOM      8  C   UNL     1       4.396   6.472  16.347  0.00  0.00    +0.000 A 
ATOM      9  C   UNL     1       5.481   6.165  15.527  0.00  0.00    +0.000 A 
ATOM     10  C   UNL     1       6.276   5.062  15.816  0.00  0.00    +0.000 A 
ATOM     11  C   UNL     1       5.975   4.264  16.921  0.00  0.00    +0.000 A 
ATOM     12  C   UNL     1       4.873   4.549  17.740  0.00  0.00    +0.000 A 
ATOM     13  S   UNL     1       4.629   3.465  19.141  0.00  0.00    +0.000 S 
ATOM     14  H   UNL     1       1.320   6.807  20.059  0.00  0.00    +0.000 HD
ENDROOT
BRANCH   6  15
ATOM     15  C   UNL     1       1.200   8.865  19.870  0.00  0.00    +0.000 A 
ATOM     16  C   UNL     1       1.149   9.945  18.983  0.00  0.00    +0.000 A 
ATOM     17  C   UNL     1       0.747  11.214  19.400  0.00  0.00    +0.000 A 
ATOM     18  C   UNL     1       0.354  11.401  20.719  0.00  0.00    +0.000 A 
ATOM     19  C   UNL     1       0.388  10.332  21.620  0.00  0.00    +0.000 A 
ATOM     20  C   UNL     1       0.800   9.065  21.194  0.00  0.00    +0.000 A 
BRANCH  17  21
ATOM     21  O   UNL     1       0.798  12.174  18.428  0.00  0.00    +0.000 OA
ATOM     22  C   UNL     1       1.364  13.423  18.796  0.00  0.00    +0.000 C 
ENDBRANCH  17  21
BRANCH  19  23
ATOM     23  O   UNL     1       0.010  10.671  22.892  0.00  0.00    +0.000 OA
ATOM     24  C   UNL     1      -1.282  11.243  23.044  0.00  0.00    +0.000 C 
ENDBRANCH  19  23
ENDBRANCH   6  15
BRANCH   1  26
ATOM     25  C   UNL     1       1.516   2.848  21.563  0.00  0.00    +0.000 C 
ATOM     26  C   UNL     1       2.182   2.742  20.192  0.00  0.00    +0.000 C 
ENDBRANCH   1  26
TORSDOF 4
ENDMDL
MODEL 2
REMARK VINA RESULT:      -7.1      1.530      4.201
REMARK  Name = 
REMARK  7 active torsions:
REMARK  status: ('A' for Active; 'I' for Inactive)
REMARK    1  A    between atoms: C_1  and  C_2
REMARK    2  A    between atoms: C_2  and  C_3
REMARK    3  A    between atoms: N_8  and  C_9
REMARK    4  A    between atoms: C_11  and  O_12
REMARK    5  A    between atoms: O_12  and  C_13
REMARK    6  A    between atoms: C_15  and  O_16
REMARK    7  A    between atoms: O_16  and  C_17
REMARK                            x       y       z     vdW  Elec       q    Type
REMARK                         _______ _______ _______ _____ _____    ______ ____
ROOT
ATOM      1  C   UNL     1       3.973   5.659  17.304  0.00  0.00    +0.000 C 
ATOM      2  C   UNL     1       4.080   6.338  18.669  0.00  0.00    +0.000 C 
ATOM      3  N   UNL     1       2.898   6.106  19.499  0.00  0.00    +0.000 N 
ATOM      4  C   UNL     1       1.891   7.021  19.803  0.00  0.00    +0.000 C 
ATOM      5  O   UNL     1       0.904   6.684  20.462  0.00  0.00    +0.000 OA
ATOM      6  N   UNL     1       2.024   8.295  19.285  0.00  0.00    +0.000 N 
ATOM      7  C   UNL     1       2.784   4.750  19.963  0.00  0.00    +0.000 A 
ATOM      8  C   UNL     1       2.349   4.477  21.272  0.00  0.00    +0.000 A 
ATOM      9  C   UNL     1       2.248   3.168  21.740  0.00  0.00    +0.000 A 
ATOM     10  C   UNL     1       2.571   2.107  20.902  0.00  0.00    +0.000 A 
ATOM     11  C   UNL     1       3.004   2.362  19.600  0.00  0.00    +0.000 A 
ATOM     12  C   UNL     1       3.131   3.675  19.125  0.00  0.00    +0.000 A 
ATOM     13  S   UNL     1       3.660   3.853  17.425  0.00  0.00    +0.000 S 
ATOM     14  H   UNL     1       2.607   8.409  18.475  0.00  0.00    +0.000 HD
ENDROOT
BRANCH   6  15
ATOM     15  C   UNL     1       1.142   9.376  19.572  0.00  0.00    +0.000 A 
ATOM     16  C   UNL     1       0.903   9.840  20.870  0.00  0.00    +0.000 A 
ATOM     17  C   UNL     1       0.004  10.876  21.120  0.00  0.00    +0.000 A 
ATOM     18  C   UNL     1      -0.642  11.487  20.053  0.00  0.00    +0.000 A 
ATOM     19  C   UNL     1      -0.409  11.045  18.746  0.00  0.00    +0.000 A 
ATOM     20  C   UNL     1       0.489  10.000  18.506  0.00  0.00    +0.000 A 
BRANCH  17  21
ATOM     21  O   UNL     1      -0.157  11.181  22.443  0.00  0.00    +0.000 OA
ATOM     22  C   UNL     1      -0.667  10.151  23.276  0.00  0.00    +0.000 C 
ENDBRANCH  17  21
BRANCH  19  23
ATOM     23  O   UNL     1      -1.140  11.713  17.800  0.00  0.00    +0.000 OA
ATOM     24  C   UNL     1      -2.468  11.258  17.580  0.00  0.00    +0.000 C 
ENDBRANCH  19  23
ENDBRANCH   6  15
BRANCH   1  26
ATOM     25  C   UNL     1       5.497   4.850  15.371  0.00  0.00    +0.000 C 
ATOM     26  C   UNL     1       5.232   5.900  16.450  0.00  0.00    +0.000 C 
ENDBRANCH   1  26
TORSDOF 4
ENDMDL
MODEL 3
REMARK VINA RESULT:      -7.1      2.863      8.019
REMARK  Name = 
REMARK  7 active torsions:
REMARK  status: ('A' for Active; 'I' for Inactive)
REMARK    1  A    between atoms: C_1  and  C_2
REMARK    2  A    between atoms: C_2  and  C_3
REMARK    3  A    between atoms: N_8  and  C_9
REMARK    4  A    between atoms: C_11  and  O_12
REMARK    5  A    between atoms: O_12  and  C_13
REMARK    6  A    between atoms: C_15  and  O_16
REMARK    7  A    between atoms: O_16  and  C_17
REMARK                            x       y       z     vdW  Elec       q    Type
REMARK                         _______ _______ _______ _____ _____    ______ ____
ROOT
ATOM      1  C   UNL     1       1.931  11.561  18.819  0.00  0.00    +0.000 C 
ATOM      2  C   UNL     1       1.122  10.316  18.454  0.00  0.00    +0.000 C 
ATOM      3  N   UNL     1       1.227   9.268  19.470  0.00  0.00    +0.000 N 
ATOM      4  C   UNL     1       1.949   8.079  19.380  0.00  0.00    +0.000 C 
ATOM      5  O   UNL     1       2.016   7.301  20.335  0.00  0.00    +0.000 OA
ATOM      6  N   UNL     1       2.629   7.846  18.199  0.00  0.00    +0.000 N 
ATOM      7  C   UNL     1       0.548   9.591  20.695  0.00  0.00    +0.000 A 
ATOM      8  C   UNL     1      -0.174   8.606  21.392  0.00  0.00    +0.000 A 
ATOM      9  C   UNL     1      -0.850   8.909  22.574  0.00  0.00    +0.000 A 
ATOM     10  C   UNL     1      -0.806  10.202  23.084  0.00  0.00    +0.000 A 
ATOM     11  C   UNL     1      -0.094  11.189  22.403  0.00  0.00    +0.000 A 
ATOM     12  C   UNL     1       0.572  10.903  21.202  0.00  0.00    +0.000 A 
ATOM     13  S   UNL     1       1.477  12.254  20.459  0.00  0.00    +0.000 S 
ATOM     14  H   UNL     1       2.857   8.641  17.629  0.00  0.00    +0.000 HD
ENDROOT
BRANCH   6  15
ATOM     15  C   UNL     1       3.335   6.645  17.902  0.00  0.00    +0.000 A 
ATOM     16  C   UNL     1       4.712   6.613  17.658  0.00  0.00    +0.000 A 
ATOM     17  C   UNL     1       5.367   5.426  17.332  0.00  0.00    +0.000 A 
ATOM     18  C   UNL     1       4.643   4.242  17.284  0.00  0.00    +0.000 A 
ATOM     19  C   UNL     1       3.267   4.251  17.535  0.00  0.00    +0.000 A 
ATOM     20  C   UNL     1       2.617   5.447  17.854  0.00  0.00    +0.000 A 
BRANCH  17  21
ATOM     21  O   UNL     1       6.702   5.567  17.074  0.00  0.00    +0.000 OA
ATOM     22  C   UNL     1       7.276   6.833  17.360  0.00  0.00    +0.000 C 
ENDBRANCH  17  21
BRANCH  19  23
ATOM     23  O   UNL     1       2.677   3.020  17.417  0.00  0.00    +0.000 OA
ATOM     24  C   UNL     1       3.332   1.932  18.055  0.00  0.00    +0.000 C 
ENDBRANCH  19  23
ENDBRANCH   6  15
BRANCH   1  26
ATOM     25  C   UNL     1       2.516  13.970  18.066  0.00  0.00    +0.000 C 
ATOM     26  C   UNL     1       1.797  12.659  17.748  0.00  0.00    +0.000 C 
ENDBRANCH   1  26
TORSDOF 4
ENDMDL
MODEL 4
REMARK VINA RESULT:      -7.1      1.749      3.391
REMARK  Name = 
REMARK  7 active torsions:
REMARK  status: ('A' for Active; 'I' for Inactive)
REMARK    1  A    between atoms: C_1  and  C_2
REMARK    2  A    between atoms: C_2  and  C_3
REMARK    3  A    between atoms: N_8  and  C_9
REMARK    4  A    between atoms: C_11  and  O_12
REMARK    5  A    between atoms: O_12  and  C_13
REMARK    6  A    between atoms: C_15  and  O_16
REMARK    7  A    between atoms: O_16  and  C_17
REMARK                            x       y       z     vdW  Elec       q    Type
REMARK                         _______ _______ _______ _____ _____    ______ ____
ROOT
ATOM      1  C   UNL     1       5.409   5.827  17.894  0.00  0.00    +0.000 C 
ATOM      2  C   UNL     1       4.864   5.850  19.322  0.00  0.00    +0.000 C 
ATOM      3  N   UNL     1       3.456   5.458  19.386  0.00  0.00    +0.000 N 
ATOM      4  C   UNL     1       2.361   6.292  19.606  0.00  0.00    +0.000 C 
ATOM      5  O   UNL     1       1.209   5.852  19.569  0.00  0.00    +0.000 OA
ATOM      6  N   UNL     1       2.624   7.634  19.805  0.00  0.00    +0.000 N 
ATOM      7  C   UNL     1       3.239   4.063  19.115  0.00  0.00    +0.000 A 
ATOM      8  C   UNL     1       2.294   3.331  19.856  0.00  0.00    +0.000 A 
ATOM      9  C   UNL     1       2.084   1.974  19.614  0.00  0.00    +0.000 A 
ATOM     10  C   UNL     1       2.809   1.328  18.619  0.00  0.00    +0.000 A 
ATOM     11  C   UNL     1       3.750   2.042  17.876  0.00  0.00    +0.000 A 
ATOM     12  C   UNL     1       3.986   3.402  18.124  0.00  0.00    +0.000 A 
ATOM     13  S   UNL     1       5.191   4.199  17.071  0.00  0.00    +0.000 S 
ATOM     14  H   UNL     1       3.494   7.994  19.455  0.00  0.00    +0.000 HD
ENDROOT
BRANCH   6  15
ATOM     15  C   UNL     1       1.638   8.607  20.136  0.00  0.00    +0.000 A 
ATOM     16  C   UNL     1       0.979   9.380  19.175  0.00  0.00    +0.000 A 
ATOM     17  C   UNL     1       0.044  10.351  19.535  0.00  0.00    +0.000 A 
ATOM     18  C   UNL     1      -0.266  10.529  20.876  0.00  0.00    +0.000 A 
ATOM     19  C   UNL     1       0.373   9.759  21.853  0.00  0.00    +0.000 A 
ATOM     20  C   UNL     1       1.314   8.792  21.483  0.00  0.00    +0.000 A 
BRANCH  17  21
ATOM     21  O   UNL     1      -0.475  11.056  18.485  0.00  0.00    +0.000 OA
ATOM     22  C   UNL     1      -1.818  10.769  18.126  0.00  0.00    +0.000 C 
ENDBRANCH  17  21
BRANCH  19  23
ATOM     23  O   UNL     1      -0.004  10.067  23.133  0.00  0.00    +0.000 OA
ATOM     24  C   UNL     1      -1.199  10.821  23.284  0.00  0.00    +0.000 C 
ENDBRANCH  19  23
ENDBRANCH   6  15
BRANCH   1  26
ATOM     25  C   UNL     1       7.719   5.813  19.066  0.00  0.00    +0.000 C 
ATOM     26  C   UNL     1       6.896   6.226  17.847  0.00  0.00    +0.000 C 
ENDBRANCH   1  26
TORSDOF 4
ENDMDL
MODEL 5
REMARK VINA RESULT:      -7.1      2.745      7.656
REMARK  Name = 
REMARK  7 active torsions:
REMARK  status: ('A' for Active; 'I' for Inactive)
REMARK    1  A    between atoms: C_1  and  C_2
REMARK    2  A    between atoms: C_2  and  C_3
REMARK    3  A    between atoms: N_8  and  C_9
REMARK    4  A    between atoms: C_11  and  O_12
REMARK    5  A    between atoms: O_12  and  C_13
REMARK    6  A    between atoms: C_15  and  O_16
REMARK    7  A    between atoms: O_16  and  C_17
REMARK                            x       y       z     vdW  Elec       q    Type
REMARK                         _______ _______ _______ _____ _____    ______ ____
ROOT
ATOM      1  C   UNL     1      -0.305   9.170  20.985  0.00  0.00    +0.000 C 
ATOM      2  C   UNL     1       1.215   9.187  20.828  0.00  0.00    +0.000 C 
ATOM      3  N   UNL     1       1.629   9.475  19.455  0.00  0.00    +0.000 N 
ATOM      4  C   UNL     1       2.154   8.576  18.529  0.00  0.00    +0.000 C 
ATOM      5  O   UNL     1       2.403   8.927  17.372  0.00  0.00    +0.000 OA
ATOM      6  N   UNL     1       2.326   7.271  18.950  0.00  0.00    +0.000 N 
ATOM      7  C   UNL     1       1.374  10.833  19.055  0.00  0.00    +0.000 A 
ATOM      8  C   UNL     1       2.308  11.534  18.272  0.00  0.00    +0.000 A 
ATOM      9  C   UNL     1       2.081  12.855  17.890  0.00  0.00    +0.000 A 
ATOM     10  C   UNL     1       0.910  13.496  18.278  0.00  0.00    +0.000 A 
ATOM     11  C   UNL     1      -0.026  12.813  19.055  0.00  0.00    +0.000 A 
ATOM     12  C   UNL     1       0.200  11.491  19.465  0.00  0.00    +0.000 A 
ATOM     13  S   UNL     1      -1.101  10.728  20.424  0.00  0.00    +0.000 S 
ATOM     14  H   UNL     1       1.775   6.957  19.728  0.00  0.00    +0.000 HD
ENDROOT
BRANCH   6  15
ATOM     15  C   UNL     1       2.936   6.248  18.168  0.00  0.00    +0.000 A 
ATOM     16  C   UNL     1       2.340   5.002  17.948  0.00  0.00    +0.000 A 
ATOM     17  C   UNL     1       2.981   4.008  17.209  0.00  0.00    +0.000 A 
ATOM     18  C   UNL     1       4.224   4.273  16.648  0.00  0.00    +0.000 A 
ATOM     19  C   UNL     1       4.832   5.517  16.848  0.00  0.00    +0.000 A 
ATOM     20  C   UNL     1       4.185   6.505  17.597  0.00  0.00    +0.000 A 
BRANCH  17  21
ATOM     21  O   UNL     1       2.292   2.830  17.125  0.00  0.00    +0.000 OA
ATOM     22  C   UNL     1       2.015   2.165  18.349  0.00  0.00    +0.000 C 
ENDBRANCH  17  21
BRANCH  19  23
ATOM     23  O   UNL     1       6.069   5.625  16.269  0.00  0.00    +0.000 OA
ATOM     24  C   UNL     1       6.678   4.418  15.831  0.00  0.00    +0.000 C 
ENDBRANCH  19  23
ENDBRANCH   6  15
BRANCH   1  26
ATOM     25  C   UNL     1       0.111   9.587  23.509  0.00  0.00    +0.000 C 
ATOM     26  C   UNL     1      -0.722   8.880  22.440  0.00  0.00    +0.000 C 
ENDBRANCH   1  26
TORSDOF 4
ENDMDL
MODEL 6
REMARK VINA RESULT:      -7.0      0.677      2.375
REMARK  Name = 
REMARK  7 active torsions:
REMARK  status: ('A' for Active; 'I' for Inactive)
REMARK    1  A    between atoms: C_1  and  C_2
REMARK    2  A    between atoms: C_2  and  C_3
REMARK    3  A    between atoms: N_8  and  C_9
REMARK    4  A    between atoms: C_11  and  O_12
REMARK    5  A    between atoms: O_12  and  C_13
REMARK    6  A    between atoms: C_15  and  O_16
REMARK    7  A    between atoms: O_16  and  C_17
REMARK                            x       y       z     vdW  Elec       q    Type
REMARK                         _______ _______ _______ _____ _____    ______ ____
ROOT
ATOM      1  C   UNL     1       2.840   3.996  19.517  0.00  0.00    +0.000 C 
ATOM      2  C   UNL     1       2.149   4.888  18.486  0.00  0.00    +0.000 C 
ATOM      3  N   UNL     1       2.967   6.042  18.112  0.00  0.00    +0.000 N 
ATOM      4  C   UNL     1       2.772   7.369  18.491  0.00  0.00    +0.000 C 
ATOM      5  O   UNL     1       3.574   8.247  18.165  0.00  0.00    +0.000 OA
ATOM      6  N   UNL     1       1.678   7.638  19.291  0.00  0.00    +0.000 N 
ATOM      7  C   UNL     1       4.120   5.692  17.328  0.00  0.00    +0.000 A 
ATOM      8  C   UNL     1       4.522   6.501  16.250  0.00  0.00    +0.000 A 
ATOM      9  C   UNL     1       5.629   6.166  15.471  0.00  0.00    +0.000 A 
ATOM     10  C   UNL     1       6.361   5.021  15.766  0.00  0.00    +0.000 A 
ATOM     11  C   UNL     1       5.975   4.209  16.833  0.00  0.00    +0.000 A 
ATOM     12  C   UNL     1       4.850   4.523  17.609  0.00  0.00    +0.000 A 
ATOM     13  S   UNL     1       4.494   3.416  18.968  0.00  0.00    +0.000 S 
ATOM     14  H   UNL     1       1.296   6.880  19.828  0.00  0.00    +0.000 HD
ENDROOT
BRANCH   6  15
ATOM     15  C   UNL     1       1.277   8.945  19.690  0.00  0.00    +0.000 A 
ATOM     16  C   UNL     1       0.973   9.277  21.015  0.00  0.00    +0.000 A 
ATOM     17  C   UNL     1       0.547  10.557  21.367  0.00  0.00    +0.000 A 
ATOM     18  C   UNL     1       0.456  11.536  20.386  0.00  0.00    +0.000 A 
ATOM     19  C   UNL     1       0.766  11.228  19.057  0.00  0.00    +0.000 A 
ATOM     20  C   UNL     1       1.186   9.939  18.712  0.00  0.00    +0.000 A 
BRANCH  17  21
ATOM     21  O   UNL     1       0.241  10.710  22.691  0.00  0.00    +0.000 OA
ATOM     22  C   UNL     1      -0.128   9.536  23.399  0.00  0.00    +0.000 C 
ENDBRANCH  17  21
BRANCH  19  23
ATOM     23  O   UNL     1       0.597  12.279  18.194  0.00  0.00    +0.000 OA
ATOM     24  C   UNL     1      -0.200  13.362  18.653  0.00  0.00    +0.000 C 
ENDBRANCH  19  23
ENDBRANCH   6  15
BRANCH   1  26
ATOM     25  C   UNL     1       0.822   2.481  18.925  0.00  0.00    +0.000 C 
ATOM     26  C   UNL     1       1.972   2.778  19.888  0.00  0.00    +0.000 C 
ENDBRANCH   1  26
TORSDOF 4
ENDMDL
MODEL 7
REMARK VINA RESULT:      -7.0      2.697      8.274
REMARK  Name = 
REMARK  7 active torsions:
REMARK  status: ('A' for Active; 'I' for Inactive)
REMARK    1  A    between atoms: C_1  and  C_2
REMARK    2  A    between atoms: C_2  and  C_3
REMARK    3  A    between atoms: N_8  and  C_9
REMARK    4  A    between atoms: C_11  and  O_12
REMARK    5  A    between atoms: O_12  and  C_13
REMARK    6  A    between atoms: C_15  and  O_16
REMARK    7  A    between atoms: O_16  and  C_17
REMARK                            x       y       z     vdW  Elec       q    Type
REMARK                         _______ _______ _______ _____ _____    ______ ____
ROOT
ATOM      1  C   UNL     1       1.851  11.764  18.884  0.00  0.00    +0.000 C 
ATOM      2  C   UNL     1       1.062  10.525  18.464  0.00  0.00    +0.000 C 
ATOM      3  N   UNL     1       1.207   9.425  19.418  0.00  0.00    +0.000 N 
ATOM      4  C   UNL     1       1.951   8.259  19.251  0.00  0.00    +0.000 C 
ATOM      5  O   UNL     1       2.051   7.431  20.161  0.00  0.00    +0.000 OA
ATOM      6  N   UNL     1       2.614   8.105  18.048  0.00  0.00    +0.000 N 
ATOM      7  C   UNL     1       0.543   9.665  20.671  0.00  0.00    +0.000 A 
ATOM      8  C   UNL     1      -0.146   8.628  21.325  0.00  0.00    +0.000 A 
ATOM      9  C   UNL     1      -0.807   8.851  22.532  0.00  0.00    +0.000 A 
ATOM     10  C   UNL     1      -0.781  10.114  23.112  0.00  0.00    +0.000 A 
ATOM     11  C   UNL     1      -0.101  11.153  22.475  0.00  0.00    +0.000 A 
ATOM     12  C   UNL     1       0.549  10.948  21.249  0.00  0.00    +0.000 A 
ATOM     13  S   UNL     1       1.412  12.357  20.567  0.00  0.00    +0.000 S 
ATOM     14  H   UNL     1       2.816   8.935  17.519  0.00  0.00    +0.000 HD
ENDROOT
BRANCH   6  15
ATOM     15  C   UNL     1       3.340   6.939  17.673  0.00  0.00    +0.000 A 
ATOM     16  C   UNL     1       2.877   5.642  17.918  0.00  0.00    +0.000 A 
ATOM     17  C   UNL     1       3.630   4.520  17.572  0.00  0.00    +0.000 A 
ATOM     18  C   UNL     1       4.852   4.694  16.936  0.00  0.00    +0.000 A 
ATOM     19  C   UNL     1       5.329   5.982  16.671  0.00  0.00    +0.000 A 
ATOM     20  C   UNL     1       4.570   7.101  17.029  0.00  0.00    +0.000 A 
BRANCH  17  21
ATOM     21  O   UNL     1       3.063   3.326  17.922  0.00  0.00    +0.000 OA
ATOM     22  C   UNL     1       2.854   3.103  19.308  0.00  0.00    +0.000 C 
ENDBRANCH  17  21
BRANCH  19  23
ATOM     23  O   UNL     1       6.562   6.001  16.074  0.00  0.00    +0.000 OA
ATOM     24  C   UNL     1       7.002   4.790  15.477  0.00  0.00    +0.000 C 
ENDBRANCH  19  23
ENDBRANCH   6  15
BRANCH   1  26
ATOM     25  C   UNL     1       2.594  14.119  18.097  0.00  0.00    +0.000 C 
ATOM     26  C   UNL     1       1.675  12.917  17.877  0.00  0.00    +0.000 C 
ENDBRANCH   1  26
TORSDOF 4
ENDMDL
MODEL 8
REMARK VINA RESULT:      -7.0      1.397      3.512
REMARK  Name = 
REMARK  7 active torsions:
REMARK  status: ('A' for Active; 'I' for Inactive)
REMARK    1  A    between atoms: C_1  and  C_2
REMARK    2  A    between atoms: C_2  and  C_3
REMARK    3  A    between atoms: N_8  and  C_9
REMARK    4  A    between atoms: C_11  and  O_12
REMARK    5  A    between atoms: O_12  and  C_13
REMARK    6  A    between atoms: C_15  and  O_16
REMARK    7  A    between atoms: O_16  and  C_17
REMARK                            x       y       z     vdW  Elec       q    Type
REMARK                         _______ _______ _______ _____ _____    ______ ____
ROOT
ATOM      1  C   UNL     1       3.920   5.761  17.342  0.00  0.00    +0.000 C 
ATOM      2  C   UNL     1       4.050   6.355  18.744  0.00  0.00    +0.000 C 
ATOM      3  N   UNL     1       2.883   6.069  19.580  0.00  0.00    +0.000 N 
ATOM      4  C   UNL     1       1.880   6.960  19.957  0.00  0.00    +0.000 C 
ATOM      5  O   UNL     1       0.905   6.580  20.611  0.00  0.00    +0.000 OA
ATOM      6  N   UNL     1       2.002   8.264  19.517  0.00  0.00    +0.000 N 
ATOM      7  C   UNL     1       2.779   4.686  19.960  0.00  0.00    +0.000 A 
ATOM      8  C   UNL     1       2.368   4.331  21.257  0.00  0.00    +0.000 A 
ATOM      9  C   UNL     1       2.278   2.995  21.644  0.00  0.00    +0.000 A 
ATOM     10  C   UNL     1       2.588   1.989  20.736  0.00  0.00    +0.000 A 
ATOM     11  C   UNL     1       2.997   2.325  19.446  0.00  0.00    +0.000 A 
ATOM     12  C   UNL     1       3.114   3.666  19.050  0.00  0.00    +0.000 A 
ATOM     13  S   UNL     1       3.612   3.950  17.357  0.00  0.00    +0.000 S 
ATOM     14  H   UNL     1       2.570   8.429  18.705  0.00  0.00    +0.000 HD
ENDROOT
BRANCH   6  15
ATOM     15  C   UNL     1       1.124   9.323  19.885  0.00  0.00    +0.000 A 
ATOM     16  C   UNL     1       0.493  10.149  18.950  0.00  0.00    +0.000 A 
ATOM     17  C   UNL     1      -0.333  11.202  19.346  0.00  0.00    +0.000 A 
ATOM     18  C   UNL     1      -0.563  11.411  20.699  0.00  0.00    +0.000 A 
ATOM     19  C   UNL     1       0.050  10.589  21.651  0.00  0.00    +0.000 A 
ATOM     20  C   UNL     1       0.882   9.541  21.244  0.00  0.00    +0.000 A 
BRANCH  17  21
ATOM     21  O   UNL     1      -0.835  11.948  18.316  0.00  0.00    +0.000 OA
ATOM     22  C   UNL     1      -0.495  13.326  18.303  0.00  0.00    +0.000 C 
ENDBRANCH  17  21
BRANCH  19  23
ATOM     23  O   UNL     1      -0.238  10.935  22.945  0.00  0.00    +0.000 OA
ATOM     24  C   UNL     1      -1.498  11.549  23.178  0.00  0.00    +0.000 C 
ENDBRANCH  19  23
ENDBRANCH   6  15
BRANCH   1  26
ATOM     25  C   UNL     1       6.486   6.108  17.246  0.00  0.00    +0.000 C 
ATOM     26  C   UNL     1       5.163   6.058  16.482  0.00  0.00    +0.000 C 
ENDBRANCH   1  26
TORSDOF 4
ENDMDL
MODEL 9
REMARK VINA RESULT:      -7.0      1.779      4.033
REMARK  Name = 
REMARK  7 active torsions:
REMARK  status: ('A' for Active; 'I' for Inactive)
REMARK    1  A    between atoms: C_1  and  C_2
REMARK    2  A    between atoms: C_2  and  C_3
REMARK    3  A    between atoms: N_8  and  C_9
REMARK    4  A    between atoms: C_11  and  O_12
REMARK    5  A    between atoms: O_12  and  C_13
REMARK    6  A    between atoms: C_15  and  O_16
REMARK    7  A    between atoms: O_16  and  C_17
REMARK                            x       y       z     vdW  Elec       q    Type
REMARK                         _______ _______ _______ _____ _____    ______ ____
ROOT
ATOM      1  C   UNL     1       5.314   6.015  17.285  0.00  0.00    +0.000 C 
ATOM      2  C   UNL     1       4.912   6.083  18.758  0.00  0.00    +0.000 C 
ATOM      3  N   UNL     1       3.554   5.587  18.987  0.00  0.00    +0.000 N 
ATOM      4  C   UNL     1       2.420   6.344  19.273  0.00  0.00    +0.000 C 
ATOM      5  O   UNL     1       1.311   5.814  19.378  0.00  0.00    +0.000 OA
ATOM      6  N   UNL     1       2.588   7.712  19.372  0.00  0.00    +0.000 N 
ATOM      7  C   UNL     1       3.430   4.165  18.814  0.00  0.00    +0.000 A 
ATOM      8  C   UNL     1       2.627   3.408  19.685  0.00  0.00    +0.000 A 
ATOM      9  C   UNL     1       2.509   2.026  19.539  0.00  0.00    +0.000 A 
ATOM     10  C   UNL     1       3.185   1.379  18.510  0.00  0.00    +0.000 A 
ATOM     11  C   UNL     1       3.985   2.118  17.638  0.00  0.00    +0.000 A 
ATOM     12  C   UNL     1       4.130   3.504  17.788  0.00  0.00    +0.000 A 
ATOM     13  S   UNL     1       5.155   4.328  16.576  0.00  0.00    +0.000 S 
ATOM     14  H   UNL     1       3.386   8.117  18.916  0.00  0.00    +0.000 HD
ENDROOT
BRANCH   6  15
ATOM     15  C   UNL     1       1.560   8.623  19.750  0.00  0.00    +0.000 A 
ATOM     16  C   UNL     1       1.194   8.849  21.081  0.00  0.00    +0.000 A 
ATOM     17  C   UNL     1       0.157   9.720  21.415  0.00  0.00    +0.000 A 
ATOM     18  C   UNL     1      -0.504  10.407  20.405  0.00  0.00    +0.000 A 
ATOM     19  C   UNL     1      -0.146  10.204  19.068  0.00  0.00    +0.000 A 
ATOM     20  C   UNL     1       0.891   9.323  18.743  0.00  0.00    +0.000 A 
BRANCH  17  21
ATOM     21  O   UNL     1      -0.113   9.794  22.753  0.00  0.00    +0.000 OA
ATOM     22  C   UNL     1      -1.137  10.695  23.147  0.00  0.00    +0.000 C 
ENDBRANCH  17  21
BRANCH  19  23
ATOM     23  O   UNL     1      -0.905  10.918  18.180  0.00  0.00    +0.000 OA
ATOM     24  C   UNL     1      -1.837  10.183  17.399  0.00  0.00    +0.000 C 
ENDBRANCH  19  23
ENDBRANCH   6  15
BRANCH   1  26
ATOM     25  C   UNL     1       7.659   6.465  18.293  0.00  0.00    +0.000 C 
ATOM     26  C   UNL     1       6.751   6.525  17.065  0.00  0.00    +0.000 C 
ENDBRANCH   1  26
TORSDOF 4
ENDMDL
