MODEL 1
REMARK VINA RESULT:      -8.1      0.000      0.000
REMARK  Name = 
REMARK  14 active torsions:
REMARK  status: ('A' for Active; 'I' for Inactive)
REMARK    1  A    between atoms: C_2  and  C_3
REMARK    2  A    between atoms: C_5  and  C_6
REMARK    3  A    between atoms: C_6  and  N_7
REMARK    4  A    between atoms: N_7  and  C_8
REMARK    5  A    between atoms: C_8  and  C_10
REMARK    6  A    between atoms: C_10  and  C_11
REMARK    7  A    between atoms: C_11  and  C_12
REMARK    8  A    between atoms: C_15  and  C_16
REMARK    9  A    between atoms: C_16  and  C_17
REMARK   10  A    between atoms: C_16  and  C_18
REMARK   11  A    between atoms: C_16  and  C_19
REMARK   12  A    between atoms: C_24  and  N_25
REMARK   13  A    between atoms: N_25  and  S_26
REMARK   14  A    between atoms: S_26  and  C_27
REMARK                            x       y       z     vdW  Elec       q    Type
REMARK                         _______ _______ _______ _____ _____    ______ ____
ROOT
ATOM      1  N   UNL     1       6.909   7.133  16.695  0.00  0.00    +0.000 N 
ATOM      2  H   UNL     1       6.412   7.834  16.163  0.00  0.00    +0.000 HD
ENDROOT
BRANCH   1   3
ATOM      3  C   UNL     1       7.650   7.519  17.787  0.00  0.00    +0.000 C 
ATOM      4  S   UNL     1       8.118   6.493  19.029  0.00  0.00    +0.000 S 
BRANCH   3   5
ATOM      5  C   UNL     1       8.189   8.947  17.748  0.00  0.00    +0.000 C 
BRANCH   5   6
ATOM      6  C   UNL     1       8.896   9.414  19.016  0.00  0.00    +0.000 C 
BRANCH   6   7
ATOM      7  C   UNL     1       9.485  10.788  18.855  0.00  0.00    +0.000 A 
ATOM      8  C   UNL     1       8.956  11.665  17.905  0.00  0.00    +0.000 A 
ATOM      9  C   UNL     1       9.473  12.955  17.763  0.00  0.00    +0.000 A 
ATOM     10  C   UNL     1      10.537  13.403  18.559  0.00  0.00    +0.000 A 
ATOM     11  C   UNL     1      11.081  12.494  19.485  0.00  0.00    +0.000 A 
ATOM     12  C   UNL     1      10.561  11.206  19.637  0.00  0.00    +0.000 A 
BRANCH  10  13
ATOM     13  C   UNL     1      11.088  14.837  18.460  0.00  0.00    +0.000 C 
ATOM     14  C   UNL     1       9.994  15.898  18.204  0.00  0.00    +0.000 C 
ATOM     15  C   UNL     1      11.785  15.208  19.787  0.00  0.00    +0.000 C 
ATOM     16  C   UNL     1      12.106  14.942  17.306  0.00  0.00    +0.000 C 
ENDBRANCH  10  13
ENDBRANCH   6   7
ENDBRANCH   5   6
ENDBRANCH   3   5
ENDBRANCH   1   3
BRANCH   1  17
ATOM     17  C   UNL     1       6.662   5.773  16.245  0.00  0.00    +0.000 C 
BRANCH  17  20
ATOM     18  C   UNL     1       3.144   5.841  17.752  0.00  0.00    +0.000 A 
ATOM     19  C   UNL     1       4.433   6.224  17.347  0.00  0.00    +0.000 A 
ATOM     20  C   UNL     1       5.298   5.321  16.707  0.00  0.00    +0.000 A 
ATOM     21  C   UNL     1       4.860   4.018  16.482  0.00  0.00    +0.000 A 
ATOM     22  C   UNL     1       3.582   3.621  16.886  0.00  0.00    +0.000 A 
ATOM     23  C   UNL     1       2.717   4.526  17.508  0.00  0.00    +0.000 A 
BRANCH  18  25
ATOM     24  C   UNL     1       2.413   8.159  17.966  0.00  0.00    +0.000 C 
ATOM     25  C   UNL     1       2.298   6.881  18.349  0.00  0.00    +0.000 C 
ENDBRANCH  18  25
BRANCH  23  26
ATOM     26  N   UNL     1       1.417   4.054  17.896  0.00  0.00    +0.000 N 
ATOM     27  H   UNL     1       0.732   4.801  18.035  0.00  0.00    +0.000 HD
BRANCH  26  28
ATOM     28  S   UNL     1       1.331   2.996  19.214  0.00  0.00    +0.000 S 
ATOM     29  C   UNL     1       1.039   4.104  20.584  0.00  0.00    +0.000 C 
ATOM     30  O   UNL     1       0.190   2.122  19.066  0.00  0.00    +0.000 OA
ATOM     31  O   UNL     1       2.667   2.467  19.373  0.00  0.00    +0.000 OA
ENDBRANCH  26  28
ENDBRANCH  23  26
ENDBRANCH  17  20
ENDBRANCH   1  17
TORSDOF 10
ENDMDL
MODEL 2
REMARK VINA RESULT:      -8.1      5.977      8.805
REMARK  Name = 
REMARK  14 active torsions:
REMARK  status: ('A' for Active; 'I' for Inactive)
REMARK    1  A    between atoms: C_2  and  C_3
REMARK    2  A    between atoms: C_5  and  C_6
REMARK    3  A    between atoms: C_6  and  N_7
REMARK    4  A    between atoms: N_7  and  C_8
REMARK    5  A    between atoms: C_8  and  C_10
REMARK    6  A    between atoms: C_10  and  C_11
REMARK    7  A    between atoms: C_11  and  C_12
REMARK    8  A    between atoms: C_15  and  C_16
REMARK    9  A    between atoms: C_16  and  C_17
REMARK   10  A    between atoms: C_16  and  C_18
REMARK   11  A    between atoms: C_16  and  C_19
REMARK   12  A    between atoms: C_24  and  N_25
REMARK   13  A    between atoms: N_25  and  S_26
REMARK   14  A    between atoms: S_26  and  C_27
REMARK                            x       y       z     vdW  Elec       q    Type
REMARK                         _______ _______ _______ _____ _____    ______ ____
ROOT
ATOM      1  N   UNL     1       1.180   4.931  20.463  0.00  0.00    +0.000 N 
ATOM      2  H   UNL     1       0.279   5.357  20.296  0.00  0.00    +0.000 HD
ENDROOT
BRANCH   1   3
ATOM      3  C   UNL     1       1.268   3.562  20.554  0.00  0.00    +0.000 C 
ATOM      4  S   UNL     1       1.717   2.727  21.938  0.00  0.00    +0.000 S 
BRANCH   3   5
ATOM      5  C   UNL     1       0.768   2.786  19.337  0.00  0.00    +0.000 C 
BRANCH   5   6
ATOM      6  C   UNL     1       1.834   1.998  18.581  0.00  0.00    +0.000 C 
BRANCH   6   7
ATOM      7  C   UNL     1       3.006   2.862  18.203  0.00  0.00    +0.000 A 
ATOM      8  C   UNL     1       4.124   2.922  19.037  0.00  0.00    +0.000 A 
ATOM      9  C   UNL     1       5.232   3.697  18.686  0.00  0.00    +0.000 A 
ATOM     10  C   UNL     1       5.251   4.439  17.497  0.00  0.00    +0.000 A 
ATOM     11  C   UNL     1       4.102   4.395  16.687  0.00  0.00    +0.000 A 
ATOM     12  C   UNL     1       2.995   3.615  17.030  0.00  0.00    +0.000 A 
BRANCH  10  13
ATOM     13  C   UNL     1       6.481   5.256  17.061  0.00  0.00    +0.000 C 
ATOM     14  C   UNL     1       6.356   6.765  17.368  0.00  0.00    +0.000 C 
ATOM     15  C   UNL     1       7.729   4.737  17.808  0.00  0.00    +0.000 C 
ATOM     16  C   UNL     1       6.706   5.115  15.541  0.00  0.00    +0.000 C 
ENDBRANCH  10  13
ENDBRANCH   6   7
ENDBRANCH   5   6
ENDBRANCH   3   5
ENDBRANCH   1   3
BRANCH   1  17
ATOM     17  C   UNL     1       2.282   5.879  20.481  0.00  0.00    +0.000 C 
BRANCH  17  20
ATOM     18  C   UNL     1       0.629   9.323  20.730  0.00  0.00    +0.000 A 
ATOM     19  C   UNL     1       1.072   8.027  21.039  0.00  0.00    +0.000 A 
ATOM     20  C   UNL     1       1.782   7.252  20.106  0.00  0.00    +0.000 A 
ATOM     21  C   UNL     1       2.037   7.789  18.846  0.00  0.00    +0.000 A 
ATOM     22  C   UNL     1       1.597   9.076  18.521  0.00  0.00    +0.000 A 
ATOM     23  C   UNL     1       0.905   9.851  19.458  0.00  0.00    +0.000 A 
BRANCH  18  25
ATOM     24  C   UNL     1      -0.142   9.557  23.033  0.00  0.00    +0.000 C 
ATOM     25  C   UNL     1      -0.042  10.071  21.800  0.00  0.00    +0.000 C 
ENDBRANCH  18  25
BRANCH  23  26
ATOM     26  N   UNL     1       0.483  11.165  19.061  0.00  0.00    +0.000 N 
ATOM     27  H   UNL     1       0.075  11.201  18.123  0.00  0.00    +0.000 HD
BRANCH  26  28
ATOM     28  S   UNL     1       1.606  12.423  19.205  0.00  0.00    +0.000 S 
ATOM     29  C   UNL     1       0.654  13.852  18.711  0.00  0.00    +0.000 C 
ATOM     30  O   UNL     1       1.996  12.574  20.588  0.00  0.00    +0.000 OA
ATOM     31  O   UNL     1       2.586  12.188  18.169  0.00  0.00    +0.000 OA
ENDBRANCH  26  28
ENDBRANCH  23  26
ENDBRANCH  17  20
ENDBRANCH   1  17
TORSDOF 10
ENDMDL
MODEL 3
REMARK VINA RESULT:      -8.0      5.506      9.486
REMARK  Name = 
REMARK  14 active torsions:
REMARK  status: ('A' for Active; 'I' for Inactive)
REMARK    1  A    between atoms: C_2  and  C_3
REMARK    2  A    between atoms: C_5  and  C_6
REMARK    3  A    between atoms: C_6  and  N_7
REMARK    4  A    between atoms: N_7  and  C_8
REMARK    5  A    between atoms: C_8  and  C_10
REMARK    6  A    between atoms: C_10  and  C_11
REMARK    7  A    between atoms: C_11  and  C_12
REMARK    8  A    between atoms: C_15  and  C_16
REMARK    9  A    between atoms: C_16  and  C_17
REMARK   10  A    between atoms: C_16  and  C_18
REMARK   11  A    between atoms: C_16  and  C_19
REMARK   12  A    between atoms: C_24  and  N_25
REMARK   13  A    between atoms: N_25  and  S_26
REMARK   14  A    between atoms: S_26  and  C_27
REMARK                            x       y       z     vdW  Elec       q    Type
REMARK                         _______ _______ _______ _____ _____    ______ ____
ROOT
ATOM      1  N   UNL     1       2.314   7.123  20.612  0.00  0.00    +0.000 N 
ATOM      2  H   UNL     1       3.248   7.141  20.996  0.00  0.00    +0.000 HD
ENDROOT
BRANCH   1   3
ATOM      3  C   UNL     1       1.591   8.292  20.552  0.00  0.00    +0.000 C 
ATOM      4  S   UNL     1       1.139   9.201  21.887  0.00  0.00    +0.000 S 
BRANCH   3   5
ATOM      5  C   UNL     1       1.337   8.839  19.149  0.00  0.00    +0.000 C 
BRANCH   5   6
ATOM      6  C   UNL     1       1.100  10.343  19.067  0.00  0.00    +0.000 C 
BRANCH   6   7
ATOM      7  C   UNL     1      -0.354  10.670  18.860  0.00  0.00    +0.000 A 
ATOM      8  C   UNL     1      -1.060  10.071  17.816  0.00  0.00    +0.000 A 
ATOM      9  C   UNL     1      -2.418  10.342  17.628  0.00  0.00    +0.000 A 
ATOM     10  C   UNL     1      -3.105  11.224  18.474  0.00  0.00    +0.000 A 
ATOM     11  C   UNL     1      -2.370  11.846  19.499  0.00  0.00    +0.000 A 
ATOM     12  C   UNL     1      -1.014  11.571  19.695  0.00  0.00    +0.000 A 
BRANCH  10  13
ATOM     13  C   UNL     1      -4.613  11.496  18.323  0.00  0.00    +0.000 C 
ATOM     14  C   UNL     1      -5.126  12.634  19.234  0.00  0.00    +0.000 C 
ATOM     15  C   UNL     1      -4.914  11.905  16.864  0.00  0.00    +0.000 C 
ATOM     16  C   UNL     1      -5.423  10.230  18.671  0.00  0.00    +0.000 C 
ENDBRANCH  10  13
ENDBRANCH   6   7
ENDBRANCH   5   6
ENDBRANCH   3   5
ENDBRANCH   1   3
BRANCH   1  17
ATOM     17  C   UNL     1       1.923   5.828  20.083  0.00  0.00    +0.000 C 
BRANCH  17  20
ATOM     18  C   UNL     1       5.331   5.045  18.522  0.00  0.00    +0.000 A 
ATOM     19  C   UNL     1       4.334   5.529  19.386  0.00  0.00    +0.000 A 
ATOM     20  C   UNL     1       2.970   5.334  19.114  0.00  0.00    +0.000 A 
ATOM     21  C   UNL     1       2.609   4.654  17.953  0.00  0.00    +0.000 A 
ATOM     22  C   UNL     1       3.589   4.173  17.079  0.00  0.00    +0.000 A 
ATOM     23  C   UNL     1       4.947   4.354  17.362  0.00  0.00    +0.000 A 
BRANCH  18  25
ATOM     24  C   UNL     1       7.433   6.282  18.478  0.00  0.00    +0.000 C 
ATOM     25  C   UNL     1       6.724   5.242  18.936  0.00  0.00    +0.000 C 
ENDBRANCH  18  25
BRANCH  23  26
ATOM     26  N   UNL     1       5.902   3.833  16.424  0.00  0.00    +0.000 N 
ATOM     27  H   UNL     1       6.753   3.470  16.862  0.00  0.00    +0.000 HD
BRANCH  26  28
ATOM     28  S   UNL     1       6.349   4.828  15.130  0.00  0.00    +0.000 S 
ATOM     29  C   UNL     1       5.967   3.814  13.710  0.00  0.00    +0.000 C 
ATOM     30  O   UNL     1       5.510   6.005  15.105  0.00  0.00    +0.000 OA
ATOM     31  O   UNL     1       7.789   4.934  15.201  0.00  0.00    +0.000 OA
ENDBRANCH  26  28
ENDBRANCH  23  26
ENDBRANCH  17  20
ENDBRANCH   1  17
TORSDOF 10
ENDMDL
MODEL 4
REMARK VINA RESULT:      -7.9      5.985      9.173
REMARK  Name = 
REMARK  14 active torsions:
REMARK  status: ('A' for Active; 'I' for Inactive)
REMARK    1  A    between atoms: C_2  and  C_3
REMARK    2  A    between atoms: C_5  and  C_6
REMARK    3  A    between atoms: C_6  and  N_7
REMARK    4  A    between atoms: N_7  and  C_8
REMARK    5  A    between atoms: C_8  and  C_10
REMARK    6  A    between atoms: C_10  and  C_11
REMARK    7  A    between atoms: C_11  and  C_12
REMARK    8  A    between atoms: C_15  and  C_16
REMARK    9  A    between atoms: C_16  and  C_17
REMARK   10  A    between atoms: C_16  and  C_18
REMARK   11  A    between atoms: C_16  and  C_19
REMARK   12  A    between atoms: C_24  and  N_25
REMARK   13  A    between atoms: N_25  and  S_26
REMARK   14  A    between atoms: S_26  and  C_27
REMARK                            x       y       z     vdW  Elec       q    Type
REMARK                         _______ _______ _______ _____ _____    ______ ____
ROOT
ATOM      1  N   UNL     1       4.353   7.224  16.942  0.00  0.00    +0.000 N 
ATOM      2  H   UNL     1       4.052   8.065  16.469  0.00  0.00    +0.000 HD
ENDROOT
BRANCH   1   3
ATOM      3  C   UNL     1       5.603   6.716  16.678  0.00  0.00    +0.000 C 
ATOM      4  S   UNL     1       6.991   7.114  17.532  0.00  0.00    +0.000 S 
BRANCH   3   5
ATOM      5  C   UNL     1       5.657   5.606  15.631  0.00  0.00    +0.000 C 
BRANCH   5   6
ATOM      6  C   UNL     1       5.817   4.194  16.183  0.00  0.00    +0.000 C 
BRANCH   6   7
ATOM      7  C   UNL     1       4.749   3.861  17.188  0.00  0.00    +0.000 A 
ATOM      8  C   UNL     1       5.065   3.804  18.547  0.00  0.00    +0.000 A 
ATOM      9  C   UNL     1       4.077   3.525  19.495  0.00  0.00    +0.000 A 
ATOM     10  C   UNL     1       2.750   3.287  19.113  0.00  0.00    +0.000 A 
ATOM     11  C   UNL     1       2.457   3.314  17.737  0.00  0.00    +0.000 A 
ATOM     12  C   UNL     1       3.439   3.601  16.786  0.00  0.00    +0.000 A 
BRANCH  10  13
ATOM     13  C   UNL     1       1.634   3.033  20.142  0.00  0.00    +0.000 C 
ATOM     14  C   UNL     1       2.142   2.394  21.454  0.00  0.00    +0.000 C 
ATOM     15  C   UNL     1       0.967   4.375  20.514  0.00  0.00    +0.000 C 
ATOM     16  C   UNL     1       0.568   2.084  19.554  0.00  0.00    +0.000 C 
ENDBRANCH  10  13
ENDBRANCH   6   7
ENDBRANCH   5   6
ENDBRANCH   3   5
ENDBRANCH   1   3
BRANCH   1  17
ATOM     17  C   UNL     1       3.404   6.738  17.930  0.00  0.00    +0.000 C 
BRANCH  17  20
ATOM     18  C   UNL     1       1.265   8.904  20.252  0.00  0.00    +0.000 A 
ATOM     19  C   UNL     1       2.016   7.835  19.734  0.00  0.00    +0.000 A 
ATOM     20  C   UNL     1       2.567   7.884  18.443  0.00  0.00    +0.000 A 
ATOM     21  C   UNL     1       2.350   9.019  17.665  0.00  0.00    +0.000 A 
ATOM     22  C   UNL     1       1.600  10.088  18.165  0.00  0.00    +0.000 A 
ATOM     23  C   UNL     1       1.066  10.043  19.456  0.00  0.00    +0.000 A 
BRANCH  18  25
ATOM     24  C   UNL     1      -0.478   8.450  21.898  0.00  0.00    +0.000 C 
ATOM     25  C   UNL     1       0.794   8.777  21.636  0.00  0.00    +0.000 C 
ENDBRANCH  18  25
BRANCH  23  26
ATOM     26  N   UNL     1       0.307  11.175  19.909  0.00  0.00    +0.000 N 
ATOM     27  H   UNL     1       0.274  11.269  20.928  0.00  0.00    +0.000 HD
BRANCH  26  28
ATOM     28  S   UNL     1      -1.263  11.355  19.303  0.00  0.00    +0.000 S 
ATOM     29  C   UNL     1      -1.046  12.581  18.021  0.00  0.00    +0.000 C 
ATOM     30  O   UNL     1      -1.700  10.117  18.700  0.00  0.00    +0.000 OA
ATOM     31  O   UNL     1      -2.018  11.982  20.365  0.00  0.00    +0.000 OA
ENDBRANCH  26  28
ENDBRANCH  23  26
ENDBRANCH  17  20
ENDBRANCH   1  17
TORSDOF 10
ENDMDL
MODEL 5
REMARK VINA RESULT:      -7.9      5.717      9.517
REMARK  Name = 
REMARK  14 active torsions:
REMARK  status: ('A' for Active; 'I' for Inactive)
REMARK    1  A    between atoms: C_2  and  C_3
REMARK    2  A    between atoms: C_5  and  C_6
REMARK    3  A    between atoms: C_6  and  N_7
REMARK    4  A    between atoms: N_7  and  C_8
REMARK    5  A    between atoms: C_8  and  C_10
REMARK    6  A    between atoms: C_10  and  C_11
REMARK    7  A    between atoms: C_11  and  C_12
REMARK    8  A    between atoms: C_15  and  C_16
REMARK    9  A    between atoms: C_16  and  C_17
REMARK   10  A    between atoms: C_16  and  C_18
REMARK   11  A    between atoms: C_16  and  C_19
REMARK   12  A    between atoms: C_24  and  N_25
REMARK   13  A    between atoms: N_25  and  S_26
REMARK   14  A    between atoms: S_26  and  C_27
REMARK                            x       y       z     vdW  Elec       q    Type
REMARK                         _______ _______ _______ _____ _____    ______ ____
ROOT
ATOM      1  N   UNL     1       2.333   7.502  20.274  0.00  0.00    +0.000 N 
ATOM      2  H   UNL     1       3.209   7.694  20.740  0.00  0.00    +0.000 HD
ENDROOT
BRANCH   1   3
ATOM      3  C   UNL     1       1.589   8.551  19.787  0.00  0.00    +0.000 C 
ATOM      4  S   UNL     1       1.655   9.111  18.207  0.00  0.00    +0.000 S 
BRANCH   3   5
ATOM      5  C   UNL     1       0.537   9.113  20.740  0.00  0.00    +0.000 C 
BRANCH   5   6
ATOM      6  C   UNL     1       0.828  10.507  21.287  0.00  0.00    +0.000 C 
BRANCH   6   7
ATOM      7  C   UNL     1      -0.429  11.215  21.712  0.00  0.00    +0.000 A 
ATOM      8  C   UNL     1      -1.023  12.149  20.861  0.00  0.00    +0.000 A 
ATOM      9  C   UNL     1      -2.207  12.794  21.229  0.00  0.00    +0.000 A 
ATOM     10  C   UNL     1      -2.824  12.531  22.460  0.00  0.00    +0.000 A 
ATOM     11  C   UNL     1      -2.192  11.615  23.319  0.00  0.00    +0.000 A 
ATOM     12  C   UNL     1      -1.014  10.961  22.952  0.00  0.00    +0.000 A 
BRANCH  10  13
ATOM     13  C   UNL     1      -4.157  13.187  22.864  0.00  0.00    +0.000 C 
ATOM     14  C   UNL     1      -5.334  12.806  21.939  0.00  0.00    +0.000 C 
ATOM     15  C   UNL     1      -4.533  12.739  24.294  0.00  0.00    +0.000 C 
ATOM     16  C   UNL     1      -4.028  14.725  22.833  0.00  0.00    +0.000 C 
ENDBRANCH  10  13
ENDBRANCH   6   7
ENDBRANCH   5   6
ENDBRANCH   3   5
ENDBRANCH   1   3
BRANCH   1  17
ATOM     17  C   UNL     1       2.053   6.085  20.112  0.00  0.00    +0.000 C 
BRANCH  17  20
ATOM     18  C   UNL     1       5.301   4.953  18.430  0.00  0.00    +0.000 A 
ATOM     19  C   UNL     1       4.393   5.536  19.330  0.00  0.00    +0.000 A 
ATOM     20  C   UNL     1       3.007   5.487  19.106  0.00  0.00    +0.000 A 
ATOM     21  C   UNL     1       2.535   4.853  17.959  0.00  0.00    +0.000 A 
ATOM     22  C   UNL     1       3.427   4.275  17.052  0.00  0.00    +0.000 A 
ATOM     23  C   UNL     1       4.805   4.310  17.285  0.00  0.00    +0.000 A 
BRANCH  18  25
ATOM     24  C   UNL     1       7.420   6.138  18.678  0.00  0.00    +0.000 C 
ATOM     25  C   UNL     1       6.722   5.000  18.795  0.00  0.00    +0.000 C 
ENDBRANCH  18  25
BRANCH  23  26
ATOM     26  N   UNL     1       5.666   3.695  16.314  0.00  0.00    +0.000 N 
ATOM     27  H   UNL     1       6.378   3.084  16.723  0.00  0.00    +0.000 HD
BRANCH  26  28
ATOM     28  S   UNL     1       6.414   4.706  15.181  0.00  0.00    +0.000 S 
ATOM     29  C   UNL     1       6.175   3.818  13.650  0.00  0.00    +0.000 C 
ATOM     30  O   UNL     1       5.709   5.965  15.109  0.00  0.00    +0.000 OA
ATOM     31  O   UNL     1       7.827   4.652  15.487  0.00  0.00    +0.000 OA
ENDBRANCH  26  28
ENDBRANCH  23  26
ENDBRANCH  17  20
ENDBRANCH   1  17
TORSDOF 10
ENDMDL
MODEL 6
REMARK VINA RESULT:      -7.8      6.082      9.200
REMARK  Name = 
REMARK  14 active torsions:
REMARK  status: ('A' for Active; 'I' for Inactive)
REMARK    1  A    between atoms: C_2  and  C_3
REMARK    2  A    between atoms: C_5  and  C_6
REMARK    3  A    between atoms: C_6  and  N_7
REMARK    4  A    between atoms: N_7  and  C_8
REMARK    5  A    between atoms: C_8  and  C_10
REMARK    6  A    between atoms: C_10  and  C_11
REMARK    7  A    between atoms: C_11  and  C_12
REMARK    8  A    between atoms: C_15  and  C_16
REMARK    9  A    between atoms: C_16  and  C_17
REMARK   10  A    between atoms: C_16  and  C_18
REMARK   11  A    between atoms: C_16  and  C_19
REMARK   12  A    between atoms: C_24  and  N_25
REMARK   13  A    between atoms: N_25  and  S_26
REMARK   14  A    between atoms: S_26  and  C_27
REMARK                            x       y       z     vdW  Elec       q    Type
REMARK                         _______ _______ _______ _____ _____    ______ ____
ROOT
ATOM      1  N   UNL     1       4.525   7.237  17.143  0.00  0.00    +0.000 N 
ATOM      2  H   UNL     1       4.122   8.021  16.649  0.00  0.00    +0.000 HD
ENDROOT
BRANCH   1   3
ATOM      3  C   UNL     1       5.747   6.749  16.743  0.00  0.00    +0.000 C 
ATOM      4  S   UNL     1       7.209   7.134  17.471  0.00  0.00    +0.000 S 
BRANCH   3   5
ATOM      5  C   UNL     1       5.706   5.672  15.662  0.00  0.00    +0.000 C 
BRANCH   5   6
ATOM      6  C   UNL     1       5.836   4.237  16.163  0.00  0.00    +0.000 C 
BRANCH   6   7
ATOM      7  C   UNL     1       4.770   3.898  17.169  0.00  0.00    +0.000 A 
ATOM      8  C   UNL     1       5.109   3.734  18.514  0.00  0.00    +0.000 A 
ATOM      9  C   UNL     1       4.127   3.447  19.465  0.00  0.00    +0.000 A 
ATOM     10  C   UNL     1       2.781   3.308  19.099  0.00  0.00    +0.000 A 
ATOM     11  C   UNL     1       2.463   3.440  17.735  0.00  0.00    +0.000 A 
ATOM     12  C   UNL     1       3.440   3.736  16.782  0.00  0.00    +0.000 A 
BRANCH  10  13
ATOM     13  C   UNL     1       1.673   3.047  20.135  0.00  0.00    +0.000 C 
ATOM     14  C   UNL     1       0.915   4.326  20.559  0.00  0.00    +0.000 C 
ATOM     15  C   UNL     1       0.632   2.075  19.537  0.00  0.00    +0.000 C 
ATOM     16  C   UNL     1       2.270   2.424  21.414  0.00  0.00    +0.000 C 
ENDBRANCH  10  13
ENDBRANCH   6   7
ENDBRANCH   5   6
ENDBRANCH   3   5
ENDBRANCH   1   3
BRANCH   1  17
ATOM     17  C   UNL     1       3.750   6.810  18.295  0.00  0.00    +0.000 C 
BRANCH  17  20
ATOM     18  C   UNL     1       0.980   8.734  20.107  0.00  0.00    +0.000 A 
ATOM     19  C   UNL     1       1.977   7.792  19.805  0.00  0.00    +0.000 A 
ATOM     20  C   UNL     1       2.654   7.809  18.574  0.00  0.00    +0.000 A 
ATOM     21  C   UNL     1       2.313   8.781  17.636  0.00  0.00    +0.000 A 
ATOM     22  C   UNL     1       1.318   9.721  17.919  0.00  0.00    +0.000 A 
ATOM     23  C   UNL     1       0.658   9.712  19.152  0.00  0.00    +0.000 A 
BRANCH  18  25
ATOM     24  C   UNL     1       0.977   9.272  22.487  0.00  0.00    +0.000 C 
ATOM     25  C   UNL     1       0.386   8.669  21.447  0.00  0.00    +0.000 C 
ENDBRANCH  18  25
BRANCH  23  26
ATOM     26  N   UNL     1      -0.352  10.707  19.379  0.00  0.00    +0.000 N 
ATOM     27  H   UNL     1      -0.934  10.899  18.560  0.00  0.00    +0.000 HD
BRANCH  26  28
ATOM     28  S   UNL     1       0.142  12.184  20.043  0.00  0.00    +0.000 S 
ATOM     29  C   UNL     1      -0.345  13.357  18.786  0.00  0.00    +0.000 C 
ATOM     30  O   UNL     1      -0.606  12.452  21.250  0.00  0.00    +0.000 OA
ATOM     31  O   UNL     1       1.587  12.142  20.048  0.00  0.00    +0.000 OA
ENDBRANCH  26  28
ENDBRANCH  23  26
ENDBRANCH  17  20
ENDBRANCH   1  17
TORSDOF 10
ENDMDL
MODEL 7
REMARK VINA RESULT:      -7.8      5.718      9.072
REMARK  Name = 
REMARK  14 active torsions:
REMARK  status: ('A' for Active; 'I' for Inactive)
REMARK    1  A    between atoms: C_2  and  C_3
REMARK    2  A    between atoms: C_5  and  C_6
REMARK    3  A    between atoms: C_6  and  N_7
REMARK    4  A    between atoms: N_7  and  C_8
REMARK    5  A    between atoms: C_8  and  C_10
REMARK    6  A    between atoms: C_10  and  C_11
REMARK    7  A    between atoms: C_11  and  C_12
REMARK    8  A    between atoms: C_15  and  C_16
REMARK    9  A    between atoms: C_16  and  C_17
REMARK   10  A    between atoms: C_16  and  C_18
REMARK   11  A    between atoms: C_16  and  C_19
REMARK   12  A    between atoms: C_24  and  N_25
REMARK   13  A    between atoms: N_25  and  S_26
REMARK   14  A    between atoms: S_26  and  C_27
REMARK                            x       y       z     vdW  Elec       q    Type
REMARK                         _______ _______ _______ _____ _____    ______ ____
ROOT
ATOM      1  N   UNL     1       2.857   6.753  20.310  0.00  0.00    +0.000 N 
ATOM      2  H   UNL     1       3.755   6.997  20.705  0.00  0.00    +0.000 HD
ENDROOT
BRANCH   1   3
ATOM      3  C   UNL     1       1.956   7.753  20.026  0.00  0.00    +0.000 C 
ATOM      4  S   UNL     1       1.900   8.599  18.579  0.00  0.00    +0.000 S 
BRANCH   3   5
ATOM      5  C   UNL     1       0.858   7.966  21.066  0.00  0.00    +0.000 C 
BRANCH   5   6
ATOM      6  C   UNL     1       1.135   9.058  22.093  0.00  0.00    +0.000 C 
BRANCH   6   7
ATOM      7  C   UNL     1       0.079  10.129  22.070  0.00  0.00    +0.000 A 
ATOM      8  C   UNL     1      -0.082  10.924  20.934  0.00  0.00    +0.000 A 
ATOM      9  C   UNL     1      -1.078  11.903  20.886  0.00  0.00    +0.000 A 
ATOM     10  C   UNL     1      -1.934  12.121  21.974  0.00  0.00    +0.000 A 
ATOM     11  C   UNL     1      -1.734  11.336  23.124  0.00  0.00    +0.000 A 
ATOM     12  C   UNL     1      -0.746  10.350  23.173  0.00  0.00    +0.000 A 
BRANCH  10  13
ATOM     13  C   UNL     1      -3.073  13.155  21.925  0.00  0.00    +0.000 C 
ATOM     14  C   UNL     1      -3.858  13.142  20.594  0.00  0.00    +0.000 C 
ATOM     15  C   UNL     1      -4.082  12.857  23.055  0.00  0.00    +0.000 C 
ATOM     16  C   UNL     1      -2.512  14.580  22.111  0.00  0.00    +0.000 C 
ENDBRANCH  10  13
ENDBRANCH   6   7
ENDBRANCH   5   6
ENDBRANCH   3   5
ENDBRANCH   1   3
BRANCH   1  17
ATOM     17  C   UNL     1       2.713   5.338  20.013  0.00  0.00    +0.000 C 
BRANCH  17  20
ATOM     18  C   UNL     1       5.941   4.839  18.016  0.00  0.00    +0.000 A 
ATOM     19  C   UNL     1       5.032   5.224  19.015  0.00  0.00    +0.000 A 
ATOM     20  C   UNL     1       3.659   4.949  18.903  0.00  0.00    +0.000 A 
ATOM     21  C   UNL     1       3.199   4.288  17.766  0.00  0.00    +0.000 A 
ATOM     22  C   UNL     1       4.091   3.904  16.760  0.00  0.00    +0.000 A 
ATOM     23  C   UNL     1       5.459   4.164  16.883  0.00  0.00    +0.000 A 
BRANCH  18  25
ATOM     24  C   UNL     1       7.745   5.790  19.355  0.00  0.00    +0.000 C 
ATOM     25  C   UNL     1       7.361   5.113  18.265  0.00  0.00    +0.000 C 
ENDBRANCH  18  25
BRANCH  23  26
ATOM     26  N   UNL     1       6.320   3.741  15.814  0.00  0.00    +0.000 N 
ATOM     27  H   UNL     1       7.239   3.417  16.128  0.00  0.00    +0.000 HD
BRANCH  26  28
ATOM     28  S   UNL     1       6.544   4.811  14.521  0.00  0.00    +0.000 S 
ATOM     29  C   UNL     1       6.240   3.771  13.100  0.00  0.00    +0.000 C 
ATOM     30  O   UNL     1       5.540   5.849  14.566  0.00  0.00    +0.000 OA
ATOM     31  O   UNL     1       7.955   5.128  14.520  0.00  0.00    +0.000 OA
ENDBRANCH  26  28
ENDBRANCH  23  26
ENDBRANCH  17  20
ENDBRANCH   1  17
TORSDOF 10
ENDMDL
MODEL 8
REMARK VINA RESULT:      -7.8      5.585      8.528
REMARK  Name = 
REMARK  14 active torsions:
REMARK  status: ('A' for Active; 'I' for Inactive)
REMARK    1  A    between atoms: C_2  and  C_3
REMARK    2  A    between atoms: C_5  and  C_6
REMARK    3  A    between atoms: C_6  and  N_7
REMARK    4  A    between atoms: N_7  and  C_8
REMARK    5  A    between atoms: C_8  and  C_10
REMARK    6  A    between atoms: C_10  and  C_11
REMARK    7  A    between atoms: C_11  and  C_12
REMARK    8  A    between atoms: C_15  and  C_16
REMARK    9  A    between atoms: C_16  and  C_17
REMARK   10  A    between atoms: C_16  and  C_18
REMARK   11  A    between atoms: C_16  and  C_19
REMARK   12  A    between atoms: C_24  and  N_25
REMARK   13  A    between atoms: N_25  and  S_26
REMARK   14  A    between atoms: S_26  and  C_27
REMARK                            x       y       z     vdW  Elec       q    Type
REMARK                         _______ _______ _______ _____ _____    ______ ____
ROOT
ATOM      1  N   UNL     1       1.189   5.039  20.523  0.00  0.00    +0.000 N 
ATOM      2  H   UNL     1       0.300   5.440  20.258  0.00  0.00    +0.000 HD
ENDROOT
BRANCH   1   3
ATOM      3  C   UNL     1       1.383   3.685  20.382  0.00  0.00    +0.000 C 
ATOM      4  S   UNL     1       1.694   2.631  21.649  0.00  0.00    +0.000 S 
BRANCH   3   5
ATOM      5  C   UNL     1       1.139   3.126  18.982  0.00  0.00    +0.000 C 
BRANCH   5   6
ATOM      6  C   UNL     1       1.276   4.132  17.843  0.00  0.00    +0.000 C 
BRANCH   6   7
ATOM      7  C   UNL     1       2.716   4.437  17.537  0.00  0.00    +0.000 A 
ATOM      8  C   UNL     1       3.158   5.761  17.514  0.00  0.00    +0.000 A 
ATOM      9  C   UNL     1       4.499   6.059  17.259  0.00  0.00    +0.000 A 
ATOM     10  C   UNL     1       5.434   5.044  17.011  0.00  0.00    +0.000 A 
ATOM     11  C   UNL     1       4.964   3.718  17.003  0.00  0.00    +0.000 A 
ATOM     12  C   UNL     1       3.626   3.415  17.266  0.00  0.00    +0.000 A 
BRANCH  10  13
ATOM     13  C   UNL     1       6.927   5.343  16.783  0.00  0.00    +0.000 C 
ATOM     14  C   UNL     1       7.315   6.805  17.098  0.00  0.00    +0.000 C 
ATOM     15  C   UNL     1       7.775   4.435  17.700  0.00  0.00    +0.000 C 
ATOM     16  C   UNL     1       7.308   5.074  15.312  0.00  0.00    +0.000 C 
ENDBRANCH  10  13
ENDBRANCH   6   7
ENDBRANCH   5   6
ENDBRANCH   3   5
ENDBRANCH   1   3
BRANCH   1  17
ATOM     17  C   UNL     1       2.177   6.023  20.933  0.00  0.00    +0.000 C 
BRANCH  17  20
ATOM     18  C   UNL     1       0.672   9.527  21.267  0.00  0.00    +0.000 A 
ATOM     19  C   UNL     1       1.094   8.219  21.557  0.00  0.00    +0.000 A 
ATOM     20  C   UNL     1       1.695   7.409  20.580  0.00  0.00    +0.000 A 
ATOM     21  C   UNL     1       1.862   7.922  19.295  0.00  0.00    +0.000 A 
ATOM     22  C   UNL     1       1.441   9.220  18.990  0.00  0.00    +0.000 A 
ATOM     23  C   UNL     1       0.858  10.029  19.969  0.00  0.00    +0.000 A 
BRANCH  18  25
ATOM     24  C   UNL     1      -0.723   9.751  23.257  0.00  0.00    +0.000 C 
ATOM     25  C   UNL     1       0.120  10.311  22.378  0.00  0.00    +0.000 C 
ENDBRANCH  18  25
BRANCH  23  26
ATOM     26  N   UNL     1       0.450  11.353  19.590  0.00  0.00    +0.000 N 
ATOM     27  H   UNL     1       0.707  12.074  20.268  0.00  0.00    +0.000 HD
BRANCH  26  28
ATOM     28  S   UNL     1      -1.172  11.577  19.160  0.00  0.00    +0.000 S 
ATOM     29  C   UNL     1      -1.058  12.739  17.807  0.00  0.00    +0.000 C 
ATOM     30  O   UNL     1      -1.723  10.335  18.667  0.00  0.00    +0.000 OA
ATOM     31  O   UNL     1      -1.775  12.278  20.272  0.00  0.00    +0.000 OA
ENDBRANCH  26  28
ENDBRANCH  23  26
ENDBRANCH  17  20
ENDBRANCH   1  17
TORSDOF 10
ENDMDL
MODEL 9
REMARK VINA RESULT:      -7.8      6.632      8.794
REMARK  Name = 
REMARK  14 active torsions:
REMARK  status: ('A' for Active; 'I' for Inactive)
REMARK    1  A    between atoms: C_2  and  C_3
REMARK    2  A    between atoms: C_5  and  C_6
REMARK    3  A    between atoms: C_6  and  N_7
REMARK    4  A    between atoms: N_7  and  C_8
REMARK    5  A    between atoms: C_8  and  C_10
REMARK    6  A    between atoms: C_10  and  C_11
REMARK    7  A    between atoms: C_11  and  C_12
REMARK    8  A    between atoms: C_15  and  C_16
REMARK    9  A    between atoms: C_16  and  C_17
REMARK   10  A    between atoms: C_16  and  C_18
REMARK   11  A    between atoms: C_16  and  C_19
REMARK   12  A    between atoms: C_24  and  N_25
REMARK   13  A    between atoms: N_25  and  S_26
REMARK   14  A    between atoms: S_26  and  C_27
REMARK                            x       y       z     vdW  Elec       q    Type
REMARK                         _______ _______ _______ _____ _____    ______ ____
ROOT
ATOM      1  N   UNL     1       2.507   5.435  20.792  0.00  0.00    +0.000 N 
ATOM      2  H   UNL     1       2.570   5.901  21.687  0.00  0.00    +0.000 HD
ENDROOT
BRANCH   1   3
ATOM      3  C   UNL     1       2.053   4.138  20.742  0.00  0.00    +0.000 C 
ATOM      4  S   UNL     1       0.632   3.656  19.994  0.00  0.00    +0.000 S 
BRANCH   3   5
ATOM      5  C   UNL     1       3.015   3.081  21.283  0.00  0.00    +0.000 C 
BRANCH   5   6
ATOM      6  C   UNL     1       3.632   2.162  20.234  0.00  0.00    +0.000 C 
BRANCH   6   7
ATOM      7  C   UNL     1       4.159   2.933  19.055  0.00  0.00    +0.000 A 
ATOM      8  C   UNL     1       5.243   3.798  19.217  0.00  0.00    +0.000 A 
ATOM      9  C   UNL     1       5.763   4.499  18.126  0.00  0.00    +0.000 A 
ATOM     10  C   UNL     1       5.210   4.363  16.846  0.00  0.00    +0.000 A 
ATOM     11  C   UNL     1       4.096   3.515  16.707  0.00  0.00    +0.000 A 
ATOM     12  C   UNL     1       3.579   2.805  17.793  0.00  0.00    +0.000 A 
BRANCH  10  13
ATOM     13  C   UNL     1       5.799   5.081  15.618  0.00  0.00    +0.000 C 
ATOM     14  C   UNL     1       5.460   4.387  14.279  0.00  0.00    +0.000 C 
ATOM     15  C   UNL     1       5.234   6.517  15.547  0.00  0.00    +0.000 C 
ATOM     16  C   UNL     1       7.337   5.147  15.723  0.00  0.00    +0.000 C 
ENDBRANCH  10  13
ENDBRANCH   6   7
ENDBRANCH   5   6
ENDBRANCH   3   5
ENDBRANCH   1   3
BRANCH   1  17
ATOM     17  C   UNL     1       2.831   6.290  19.663  0.00  0.00    +0.000 C 
BRANCH  17  20
ATOM     18  C   UNL     1       0.386   8.968  20.891  0.00  0.00    +0.000 A 
ATOM     19  C   UNL     1       1.164   7.801  20.814  0.00  0.00    +0.000 A 
ATOM     20  C   UNL     1       1.974   7.532  19.698  0.00  0.00    +0.000 A 
ATOM     21  C   UNL     1       1.990   8.445  18.646  0.00  0.00    +0.000 A 
ATOM     22  C   UNL     1       1.215   9.608  18.705  0.00  0.00    +0.000 A 
ATOM     23  C   UNL     1       0.423   9.881  19.825  0.00  0.00    +0.000 A 
BRANCH  18  25
ATOM     24  C   UNL     1       0.263   9.504  23.268  0.00  0.00    +0.000 C 
ATOM     25  C   UNL     1      -0.369   9.185  22.130  0.00  0.00    +0.000 C 
ENDBRANCH  18  25
BRANCH  23  26
ATOM     26  N   UNL     1      -0.346  11.094  19.823  0.00  0.00    +0.000 N 
ATOM     27  H   UNL     1      -0.811  11.286  18.931  0.00  0.00    +0.000 HD
BRANCH  26  28
ATOM     28  S   UNL     1       0.426  12.509  20.340  0.00  0.00    +0.000 S 
ATOM     29  C   UNL     1      -0.888  13.384  21.177  0.00  0.00    +0.000 C 
ATOM     30  O   UNL     1       1.457  12.182  21.298  0.00  0.00    +0.000 OA
ATOM     31  O   UNL     1       0.727  13.248  19.134  0.00  0.00    +0.000 OA
ENDBRANCH  26  28
ENDBRANCH  23  26
ENDBRANCH  17  20
ENDBRANCH   1  17
TORSDOF 10
ENDMDL
