MODEL 1
REMARK VINA RESULT:      -8.0      0.000      0.000
REMARK  Name = 
REMARK  8 active torsions:
REMARK  status: ('A' for Active; 'I' for Inactive)
REMARK    1  A    between atoms: C_1  and  C_2
REMARK    2  A    between atoms: C_2  and  C_3
REMARK    3  A    between atoms: C_2  and  N_4
REMARK    4  A    between atoms: C_2  and  C_24
REMARK    5  A    between atoms: C_5  and  C_7
REMARK    6  A    between atoms: N_9  and  C_10
REMARK    7  A    between atoms: C_10  and  C_11
REMARK    8  A    between atoms: C_11  and  N_12
REMARK                            x       y       z     vdW  Elec       q    Type
REMARK                         _______ _______ _______ _____ _____    ______ ____
ROOT
ATOM      1  C   UNL     1       1.482   9.103  18.943  0.00  0.00    +0.000 A 
ATOM      2  N   UNL     1       1.129  10.237  18.282  0.00  0.00    +0.000 NA
ATOM      3  N   UNL     1       0.198  10.832  19.106  0.00  0.00    +0.000 N 
ATOM      4  C   UNL     1       0.102  10.189  20.291  0.00  0.00    +0.000 A 
ATOM      5  C   UNL     1       0.898   9.083  20.222  0.00  0.00    +0.000 A 
ATOM      6  C   UNL     1       0.784   8.179  21.391  0.00  0.00    +0.000 C 
ATOM      7  C   UNL     1      -0.327   8.861  22.217  0.00  0.00    +0.000 C 
ATOM      8  C   UNL     1      -0.069  10.159  22.907  0.00  0.00    +0.000 C 
ATOM      9  C   UNL     1      -0.724  10.202  21.547  0.00  0.00    +0.000 C 
ENDROOT
BRANCH   1  11
ATOM     10  N   UNL     1       2.410   6.863  19.158  0.00  0.00    +0.000 N 
ATOM     11  C   UNL     1       2.309   8.015  18.396  0.00  0.00    +0.000 C 
ATOM     12  O   UNL     1       2.857   8.147  17.303  0.00  0.00    +0.000 OA
ATOM     13  H   UNL     1       2.036   6.920  20.099  0.00  0.00    +0.000 HD
BRANCH  10  15
ATOM     14  C   UNL     1       2.650   5.064  17.445  0.00  0.00    +0.000 C 
ATOM     15  C   UNL     1       3.215   5.693  18.742  0.00  0.00    +0.000 C 
ATOM     16  C   UNL     1       4.668   6.164  18.490  0.00  0.00    +0.000 C 
BRANCH  15  17
ATOM     17  C   UNL     1       3.155   4.556  19.793  0.00  0.00    +0.000 A 
ATOM     18  C   UNL     1       3.930   3.385  19.661  0.00  0.00    +0.000 A 
ATOM     19  C   UNL     1       3.761   2.292  20.515  0.00  0.00    +0.000 A 
ATOM     20  C   UNL     1       2.811   2.341  21.528  0.00  0.00    +0.000 A 
ATOM     21  C   UNL     1       2.035   3.486  21.687  0.00  0.00    +0.000 A 
ATOM     22  C   UNL     1       2.199   4.578  20.827  0.00  0.00    +0.000 A 
ENDBRANCH  15  17
ENDBRANCH  10  15
ENDBRANCH   1  11
BRANCH   3  23
ATOM     23  C   UNL     1      -0.392  12.126  18.805  0.00  0.00    +0.000 C 
BRANCH  23  24
ATOM     24  C   UNL     1      -1.606  12.065  17.870  0.00  0.00    +0.000 C 
BRANCH  24  25
ATOM     25  N   UNL     1      -2.394  10.809  17.962  0.00  0.00    +0.000 NA
ATOM     26  C   UNL     1      -2.167   9.968  16.758  0.00  0.00    +0.000 C 
ATOM     27  C   UNL     1      -2.836  10.507  15.475  0.00  0.00    +0.000 C 
ATOM     28  O   UNL     1      -4.235  10.767  15.659  0.00  0.00    +0.000 OA
ATOM     29  C   UNL     1      -4.460  11.634  16.778  0.00  0.00    +0.000 C 
ATOM     30  C   UNL     1      -3.857  11.032  18.055  0.00  0.00    +0.000 C 
ENDBRANCH  24  25
ENDBRANCH  23  24
ENDBRANCH   3  23
TORSDOF 6
ENDMDL
MODEL 2
REMARK VINA RESULT:      -8.0      2.315      8.058
REMARK  Name = 
REMARK  8 active torsions:
REMARK  status: ('A' for Active; 'I' for Inactive)
REMARK    1  A    between atoms: C_1  and  C_2
REMARK    2  A    between atoms: C_2  and  C_3
REMARK    3  A    between atoms: C_2  and  N_4
REMARK    4  A    between atoms: C_2  and  C_24
REMARK    5  A    between atoms: C_5  and  C_7
REMARK    6  A    between atoms: N_9  and  C_10
REMARK    7  A    between atoms: C_10  and  C_11
REMARK    8  A    between atoms: C_11  and  N_12
REMARK                            x       y       z     vdW  Elec       q    Type
REMARK                         _______ _______ _______ _____ _____    ______ ____
ROOT
ATOM      1  C   UNL     1       2.395   7.501  18.199  0.00  0.00    +0.000 A 
ATOM      2  N   UNL     1       3.198   6.965  17.241  0.00  0.00    +0.000 NA
ATOM      3  N   UNL     1       3.585   5.751  17.766  0.00  0.00    +0.000 N 
ATOM      4  C   UNL     1       2.925   5.474  18.912  0.00  0.00    +0.000 A 
ATOM      5  C   UNL     1       2.166   6.564  19.222  0.00  0.00    +0.000 A 
ATOM      6  C   UNL     1       1.497   6.483  20.542  0.00  0.00    +0.000 C 
ATOM      7  C   UNL     1       2.042   5.150  21.097  0.00  0.00    +0.000 C 
ATOM      8  C   UNL     1       1.615   3.850  20.500  0.00  0.00    +0.000 C 
ATOM      9  C   UNL     1       2.912   4.454  20.018  0.00  0.00    +0.000 C 
ENDROOT
BRANCH   1  11
ATOM     10  N   UNL     1       0.988   9.204  19.220  0.00  0.00    +0.000 N 
ATOM     11  C   UNL     1       1.878   8.879  18.210  0.00  0.00    +0.000 C 
ATOM     12  O   UNL     1       2.251   9.684  17.360  0.00  0.00    +0.000 OA
ATOM     13  H   UNL     1       0.645   8.428  19.776  0.00  0.00    +0.000 HD
BRANCH  10  15
ATOM     14  C   UNL     1       1.432  11.658  19.138  0.00  0.00    +0.000 C 
ATOM     15  C   UNL     1       0.376  10.546  19.351  0.00  0.00    +0.000 C 
ATOM     16  C   UNL     1      -0.733  10.683  18.281  0.00  0.00    +0.000 C 
BRANCH  15  17
ATOM     17  C   UNL     1      -0.171  10.786  20.780  0.00  0.00    +0.000 A 
ATOM     18  C   UNL     1      -0.052   9.810  21.791  0.00  0.00    +0.000 A 
ATOM     19  C   UNL     1      -0.682   9.955  23.030  0.00  0.00    +0.000 A 
ATOM     20  C   UNL     1      -1.450  11.083  23.292  0.00  0.00    +0.000 A 
ATOM     21  C   UNL     1      -1.581  12.066  22.316  0.00  0.00    +0.000 A 
ATOM     22  C   UNL     1      -0.955  11.918  21.072  0.00  0.00    +0.000 A 
ENDBRANCH  15  17
ENDBRANCH  10  15
ENDBRANCH   1  11
BRANCH   3  23
ATOM     23  C   UNL     1       4.404   4.809  17.021  0.00  0.00    +0.000 C 
BRANCH  23  24
ATOM     24  C   UNL     1       5.625   4.288  17.789  0.00  0.00    +0.000 C 
BRANCH  24  25
ATOM     25  N   UNL     1       6.930   4.575  17.140  0.00  0.00    +0.000 NA
ATOM     26  C   UNL     1       8.021   4.567  18.150  0.00  0.00    +0.000 C 
ATOM     27  C   UNL     1       8.017   5.787  19.095  0.00  0.00    +0.000 C 
ATOM     28  O   UNL     1       7.994   7.029  18.379  0.00  0.00    +0.000 OA
ATOM     29  C   UNL     1       6.904   7.076  17.450  0.00  0.00    +0.000 C 
ATOM     30  C   UNL     1       6.982   5.896  16.470  0.00  0.00    +0.000 C 
ENDBRANCH  24  25
ENDBRANCH  23  24
ENDBRANCH   3  23
TORSDOF 6
ENDMDL
MODEL 3
REMARK VINA RESULT:      -8.0      1.159      1.493
REMARK  Name = 
REMARK  8 active torsions:
REMARK  status: ('A' for Active; 'I' for Inactive)
REMARK    1  A    between atoms: C_1  and  C_2
REMARK    2  A    between atoms: C_2  and  C_3
REMARK    3  A    between atoms: C_2  and  N_4
REMARK    4  A    between atoms: C_2  and  C_24
REMARK    5  A    between atoms: C_5  and  C_7
REMARK    6  A    between atoms: N_9  and  C_10
REMARK    7  A    between atoms: C_10  and  C_11
REMARK    8  A    between atoms: C_11  and  N_12
REMARK                            x       y       z     vdW  Elec       q    Type
REMARK                         _______ _______ _______ _____ _____    ______ ____
ROOT
ATOM      1  C   UNL     1       1.640   9.079  18.842  0.00  0.00    +0.000 A 
ATOM      2  N   UNL     1       1.225  10.232  18.254  0.00  0.00    +0.000 NA
ATOM      3  N   UNL     1       0.275  10.729  19.120  0.00  0.00    +0.000 N 
ATOM      4  C   UNL     1       0.223  10.012  20.264  0.00  0.00    +0.000 A 
ATOM      5  C   UNL     1       1.071   8.953  20.122  0.00  0.00    +0.000 A 
ATOM      6  C   UNL     1       1.013   7.975  21.235  0.00  0.00    +0.000 C 
ATOM      7  C   UNL     1      -0.121   8.551  22.110  0.00  0.00    +0.000 C 
ATOM      8  C   UNL     1       0.082   9.816  22.875  0.00  0.00    +0.000 C 
ATOM      9  C   UNL     1      -0.589   9.909  21.525  0.00  0.00    +0.000 C 
ENDROOT
BRANCH   1  11
ATOM     10  N   UNL     1       2.728   6.904  18.943  0.00  0.00    +0.000 N 
ATOM     11  C   UNL     1       2.512   8.067  18.224  0.00  0.00    +0.000 C 
ATOM     12  O   UNL     1       2.997   8.268  17.112  0.00  0.00    +0.000 OA
ATOM     13  H   UNL     1       2.397   6.908  19.902  0.00  0.00    +0.000 HD
BRANCH  10  15
ATOM     14  C   UNL     1       4.058   6.073  17.001  0.00  0.00    +0.000 C 
ATOM     15  C   UNL     1       3.592   5.806  18.454  0.00  0.00    +0.000 C 
ATOM     16  C   UNL     1       4.830   5.708  19.377  0.00  0.00    +0.000 C 
BRANCH  15  17
ATOM     17  C   UNL     1       2.821   4.463  18.383  0.00  0.00    +0.000 A 
ATOM     18  C   UNL     1       1.565   4.298  19.004  0.00  0.00    +0.000 A 
ATOM     19  C   UNL     1       0.943   3.049  19.080  0.00  0.00    +0.000 A 
ATOM     20  C   UNL     1       1.560   1.930  18.536  0.00  0.00    +0.000 A 
ATOM     21  C   UNL     1       2.797   2.063  17.912  0.00  0.00    +0.000 A 
ATOM     22  C   UNL     1       3.424   3.313  17.841  0.00  0.00    +0.000 A 
ENDBRANCH  15  17
ENDBRANCH  10  15
ENDBRANCH   1  11
BRANCH   3  23
ATOM     23  C   UNL     1      -0.380  12.009  18.902  0.00  0.00    +0.000 C 
BRANCH  23  24
ATOM     24  C   UNL     1      -1.542  11.962  17.902  0.00  0.00    +0.000 C 
BRANCH  24  25
ATOM     25  N   UNL     1      -2.323  10.699  17.922  0.00  0.00    +0.000 NA
ATOM     26  C   UNL     1      -2.125   9.950  16.653  0.00  0.00    +0.000 C 
ATOM     27  C   UNL     1      -2.828  10.579  15.432  0.00  0.00    +0.000 C 
ATOM     28  O   UNL     1      -4.222  10.818  15.670  0.00  0.00    +0.000 OA
ATOM     29  C   UNL     1      -4.421  11.599  16.855  0.00  0.00    +0.000 C 
ATOM     30  C   UNL     1      -3.784  10.908  18.068  0.00  0.00    +0.000 C 
ENDBRANCH  24  25
ENDBRANCH  23  24
ENDBRANCH   3  23
TORSDOF 6
ENDMDL
MODEL 4
REMARK VINA RESULT:      -7.9      3.062      5.950
REMARK  Name = 
REMARK  8 active torsions:
REMARK  status: ('A' for Active; 'I' for Inactive)
REMARK    1  A    between atoms: C_1  and  C_2
REMARK    2  A    between atoms: C_2  and  C_3
REMARK    3  A    between atoms: C_2  and  N_4
REMARK    4  A    between atoms: C_2  and  C_24
REMARK    5  A    between atoms: C_5  and  C_7
REMARK    6  A    between atoms: N_9  and  C_10
REMARK    7  A    between atoms: C_10  and  C_11
REMARK    8  A    between atoms: C_11  and  N_12
REMARK                            x       y       z     vdW  Elec       q    Type
REMARK                         _______ _______ _______ _____ _____    ______ ____
ROOT
ATOM      1  C   UNL     1       4.018   5.482  19.604  0.00  0.00    +0.000 A 
ATOM      2  N   UNL     1       3.330   6.623  19.873  0.00  0.00    +0.000 NA
ATOM      3  N   UNL     1       2.064   6.185  20.199  0.00  0.00    +0.000 N 
ATOM      4  C   UNL     1       2.014   4.838  20.290  0.00  0.00    +0.000 A 
ATOM      5  C   UNL     1       3.233   4.356  19.913  0.00  0.00    +0.000 A 
ATOM      6  C   UNL     1       3.296   2.879  19.807  0.00  0.00    +0.000 C 
ATOM      7  C   UNL     1       1.836   2.473  20.099  0.00  0.00    +0.000 C 
ATOM      8  C   UNL     1       1.270   2.619  21.473  0.00  0.00    +0.000 C 
ATOM      9  C   UNL     1       1.014   3.732  20.484  0.00  0.00    +0.000 C 
ENDROOT
BRANCH   1  11
ATOM     10  N   UNL     1       5.458   5.521  17.642  0.00  0.00    +0.000 N 
ATOM     11  C   UNL     1       5.367   5.412  19.019  0.00  0.00    +0.000 C 
ATOM     12  O   UNL     1       6.348   5.280  19.748  0.00  0.00    +0.000 OA
ATOM     13  H   UNL     1       4.580   5.483  17.135  0.00  0.00    +0.000 HD
BRANCH  10  15
ATOM     14  C   UNL     1       7.416   6.849  16.850  0.00  0.00    +0.000 C 
ATOM     15  C   UNL     1       6.745   5.455  16.914  0.00  0.00    +0.000 C 
ATOM     16  C   UNL     1       7.679   4.473  17.661  0.00  0.00    +0.000 C 
BRANCH  15  17
ATOM     17  C   UNL     1       6.543   5.043  15.434  0.00  0.00    +0.000 A 
ATOM     18  C   UNL     1       5.437   4.267  15.027  0.00  0.00    +0.000 A 
ATOM     19  C   UNL     1       5.334   3.759  13.730  0.00  0.00    +0.000 A 
ATOM     20  C   UNL     1       6.336   4.014  12.801  0.00  0.00    +0.000 A 
ATOM     21  C   UNL     1       7.437   4.781  13.172  0.00  0.00    +0.000 A 
ATOM     22  C   UNL     1       7.543   5.285  14.474  0.00  0.00    +0.000 A 
ENDBRANCH  15  17
ENDBRANCH  10  15
ENDBRANCH   1  11
BRANCH   3  23
ATOM     23  C   UNL     1       1.016   7.094  20.631  0.00  0.00    +0.000 C 
BRANCH  23  24
ATOM     24  C   UNL     1       1.343   8.579  20.430  0.00  0.00    +0.000 C 
BRANCH  24  25
ATOM     25  N   UNL     1       0.226   9.389  19.880  0.00  0.00    +0.000 NA
ATOM     26  C   UNL     1       0.597   9.944  18.552  0.00  0.00    +0.000 C 
ATOM     27  C   UNL     1       1.635  11.086  18.612  0.00  0.00    +0.000 C 
ATOM     28  O   UNL     1       1.242  12.132  19.510  0.00  0.00    +0.000 OA
ATOM     29  C   UNL     1       0.947  11.615  20.814  0.00  0.00    +0.000 C 
ATOM     30  C   UNL     1      -0.147  10.542  20.733  0.00  0.00    +0.000 C 
ENDBRANCH  24  25
ENDBRANCH  23  24
ENDBRANCH   3  23
TORSDOF 6
ENDMDL
MODEL 5
REMARK VINA RESULT:      -7.9      2.188      8.294
REMARK  Name = 
REMARK  8 active torsions:
REMARK  status: ('A' for Active; 'I' for Inactive)
REMARK    1  A    between atoms: C_1  and  C_2
REMARK    2  A    between atoms: C_2  and  C_3
REMARK    3  A    between atoms: C_2  and  N_4
REMARK    4  A    between atoms: C_2  and  C_24
REMARK    5  A    between atoms: C_5  and  C_7
REMARK    6  A    between atoms: N_9  and  C_10
REMARK    7  A    between atoms: C_10  and  C_11
REMARK    8  A    between atoms: C_11  and  N_12
REMARK                            x       y       z     vdW  Elec       q    Type
REMARK                         _______ _______ _______ _____ _____    ______ ____
ROOT
ATOM      1  C   UNL     1       1.410   8.463  20.242  0.00  0.00    +0.000 A 
ATOM      2  N   UNL     1       1.288   7.405  21.086  0.00  0.00    +0.000 NA
ATOM      3  N   UNL     1       1.851   6.354  20.395  0.00  0.00    +0.000 N 
ATOM      4  C   UNL     1       2.441   6.772  19.253  0.00  0.00    +0.000 A 
ATOM      5  C   UNL     1       2.176   8.104  19.119  0.00  0.00    +0.000 A 
ATOM      6  C   UNL     1       2.623   8.685  17.830  0.00  0.00    +0.000 C 
ATOM      7  C   UNL     1       3.159   7.444  17.086  0.00  0.00    +0.000 C 
ATOM      8  C   UNL     1       4.419   6.779  17.531  0.00  0.00    +0.000 C 
ATOM      9  C   UNL     1       3.110   6.212  18.028  0.00  0.00    +0.000 C 
ENDROOT
BRANCH   1  11
ATOM     10  N   UNL     1      -0.182  10.154  19.514  0.00  0.00    +0.000 N 
ATOM     11  C   UNL     1       0.789   9.784  20.429  0.00  0.00    +0.000 C 
ATOM     12  O   UNL     1       1.127  10.495  21.373  0.00  0.00    +0.000 OA
ATOM     13  H   UNL     1      -0.277   9.555  18.701  0.00  0.00    +0.000 HD
BRANCH  10  15
ATOM     14  C   UNL     1      -1.413  11.741  20.995  0.00  0.00    +0.000 C 
ATOM     15  C   UNL     1      -0.882  11.457  19.568  0.00  0.00    +0.000 C 
ATOM     16  C   UNL     1       0.118  12.567  19.166  0.00  0.00    +0.000 C 
BRANCH  15  17
ATOM     17  C   UNL     1      -2.142  11.466  18.667  0.00  0.00    +0.000 A 
ATOM     18  C   UNL     1      -3.372  11.989  19.120  0.00  0.00    +0.000 A 
ATOM     19  C   UNL     1      -4.546  11.854  18.374  0.00  0.00    +0.000 A 
ATOM     20  C   UNL     1      -4.523  11.192  17.153  0.00  0.00    +0.000 A 
ATOM     21  C   UNL     1      -3.323  10.670  16.678  0.00  0.00    +0.000 A 
ATOM     22  C   UNL     1      -2.148  10.799  17.427  0.00  0.00    +0.000 A 
ENDBRANCH  15  17
ENDBRANCH  10  15
ENDBRANCH   1  11
BRANCH   3  23
ATOM     23  C   UNL     1       1.995   5.029  20.976  0.00  0.00    +0.000 C 
BRANCH  23  24
ATOM     24  C   UNL     1       1.162   3.942  20.285  0.00  0.00    +0.000 C 
BRANCH  24  25
ATOM     25  N   UNL     1       1.756   2.582  20.340  0.00  0.00    +0.000 NA
ATOM     26  C   UNL     1       3.210   2.666  20.638  0.00  0.00    +0.000 C 
ATOM     27  C   UNL     1       4.067   3.190  19.466  0.00  0.00    +0.000 C 
ATOM     28  O   UNL     1       3.837   2.459  18.254  0.00  0.00    +0.000 OA
ATOM     29  C   UNL     1       2.443   2.430  17.920  0.00  0.00    +0.000 C 
ATOM     30  C   UNL     1       1.626   1.827  19.071  0.00  0.00    +0.000 C 
ENDBRANCH  24  25
ENDBRANCH  23  24
ENDBRANCH   3  23
TORSDOF 6
ENDMDL
MODEL 6
REMARK VINA RESULT:      -7.8      2.449      7.887
REMARK  Name = 
REMARK  8 active torsions:
REMARK  status: ('A' for Active; 'I' for Inactive)
REMARK    1  A    between atoms: C_1  and  C_2
REMARK    2  A    between atoms: C_2  and  C_3
REMARK    3  A    between atoms: C_2  and  N_4
REMARK    4  A    between atoms: C_2  and  C_24
REMARK    5  A    between atoms: C_5  and  C_7
REMARK    6  A    between atoms: N_9  and  C_10
REMARK    7  A    between atoms: C_10  and  C_11
REMARK    8  A    between atoms: C_11  and  N_12
REMARK                            x       y       z     vdW  Elec       q    Type
REMARK                         _______ _______ _______ _____ _____    ______ ____
ROOT
ATOM      1  C   UNL     1       3.306   7.143  18.182  0.00  0.00    +0.000 A 
ATOM      2  N   UNL     1       3.263   6.268  19.222  0.00  0.00    +0.000 NA
ATOM      3  N   UNL     1       4.054   5.217  18.811  0.00  0.00    +0.000 N 
ATOM      4  C   UNL     1       4.687   5.498  17.650  0.00  0.00    +0.000 A 
ATOM      5  C   UNL     1       4.233   6.709  17.218  0.00  0.00    +0.000 A 
ATOM      6  C   UNL     1       4.715   7.093  15.870  0.00  0.00    +0.000 C 
ATOM      7  C   UNL     1       5.514   5.842  15.446  0.00  0.00    +0.000 C 
ATOM      8  C   UNL     1       6.810   5.511  16.110  0.00  0.00    +0.000 C 
ATOM      9  C   UNL     1       5.561   4.833  16.623  0.00  0.00    +0.000 C 
ENDROOT
BRANCH   1  11
ATOM     10  N   UNL     1       1.661   8.676  19.114  0.00  0.00    +0.000 N 
ATOM     11  C   UNL     1       2.469   8.345  18.040  0.00  0.00    +0.000 C 
ATOM     12  O   UNL     1       2.521   9.014  17.009  0.00  0.00    +0.000 OA
ATOM     13  H   UNL     1       1.593   7.980  19.849  0.00  0.00    +0.000 HD
BRANCH  10  15
ATOM     14  C   UNL     1       1.552  11.158  18.881  0.00  0.00    +0.000 C 
ATOM     15  C   UNL     1       0.758   9.849  19.109  0.00  0.00    +0.000 C 
ATOM     16  C   UNL     1      -0.270   9.670  17.967  0.00  0.00    +0.000 C 
BRANCH  15  17
ATOM     17  C   UNL     1       0.064  10.040  20.482  0.00  0.00    +0.000 A 
ATOM     18  C   UNL     1      -0.631  11.226  20.800  0.00  0.00    +0.000 A 
ATOM     19  C   UNL     1      -1.120  11.468  22.086  0.00  0.00    +0.000 A 
ATOM     20  C   UNL     1      -0.926  10.529  23.092  0.00  0.00    +0.000 A 
ATOM     21  C   UNL     1      -0.249   9.346  22.807  0.00  0.00    +0.000 A 
ATOM     22  C   UNL     1       0.246   9.106  21.519  0.00  0.00    +0.000 A 
ENDBRANCH  15  17
ENDBRANCH  10  15
ENDBRANCH   1  11
BRANCH   3  23
ATOM     23  C   UNL     1       4.342   4.080  19.669  0.00  0.00    +0.000 C 
BRANCH  23  24
ATOM     24  C   UNL     1       3.880   2.730  19.106  0.00  0.00    +0.000 C 
BRANCH  24  25
ATOM     25  N   UNL     1       2.899   2.009  19.958  0.00  0.00    +0.000 NA
ATOM     26  C   UNL     1       1.569   1.973  19.296  0.00  0.00    +0.000 C 
ATOM     27  C   UNL     1       0.833   3.330  19.281  0.00  0.00    +0.000 C 
ATOM     28  O   UNL     1       0.736   3.910  20.589  0.00  0.00    +0.000 OA
ATOM     29  C   UNL     1       2.023   4.013  21.210  0.00  0.00    +0.000 C 
ATOM     30  C   UNL     1       2.695   2.635  21.287  0.00  0.00    +0.000 C 
ENDBRANCH  24  25
ENDBRANCH  23  24
ENDBRANCH   3  23
TORSDOF 6
ENDMDL
MODEL 7
REMARK VINA RESULT:      -7.8      2.159      8.183
REMARK  Name = 
REMARK  8 active torsions:
REMARK  status: ('A' for Active; 'I' for Inactive)
REMARK    1  A    between atoms: C_1  and  C_2
REMARK    2  A    between atoms: C_2  and  C_3
REMARK    3  A    between atoms: C_2  and  N_4
REMARK    4  A    between atoms: C_2  and  C_24
REMARK    5  A    between atoms: C_5  and  C_7
REMARK    6  A    between atoms: N_9  and  C_10
REMARK    7  A    between atoms: C_10  and  C_11
REMARK    8  A    between atoms: C_11  and  N_12
REMARK                            x       y       z     vdW  Elec       q    Type
REMARK                         _______ _______ _______ _____ _____    ______ ____
ROOT
ATOM      1  C   UNL     1       1.439   8.315  20.105  0.00  0.00    +0.000 A 
ATOM      2  N   UNL     1       1.320   7.292  20.992  0.00  0.00    +0.000 NA
ATOM      3  N   UNL     1       1.951   6.235  20.374  0.00  0.00    +0.000 N 
ATOM      4  C   UNL     1       2.574   6.624  19.239  0.00  0.00    +0.000 A 
ATOM      5  C   UNL     1       2.267   7.937  19.033  0.00  0.00    +0.000 A 
ATOM      6  C   UNL     1       2.747   8.477  17.739  0.00  0.00    +0.000 C 
ATOM      7  C   UNL     1       3.360   7.226  17.076  0.00  0.00    +0.000 C 
ATOM      8  C   UNL     1       4.624   6.632  17.604  0.00  0.00    +0.000 C 
ATOM      9  C   UNL     1       3.317   6.037  18.071  0.00  0.00    +0.000 C 
ENDROOT
BRANCH   1  11
ATOM     10  N   UNL     1      -0.166   9.918  19.221  0.00  0.00    +0.000 N 
ATOM     11  C   UNL     1       0.762   9.619  20.204  0.00  0.00    +0.000 C 
ATOM     12  O   UNL     1       1.018  10.376  21.139  0.00  0.00    +0.000 OA
ATOM     13  H   UNL     1      -0.190   9.286  18.428  0.00  0.00    +0.000 HD
BRANCH  10  15
ATOM     14  C   UNL     1      -1.437  11.571  20.593  0.00  0.00    +0.000 C 
ATOM     15  C   UNL     1      -0.913  11.195  19.185  0.00  0.00    +0.000 C 
ATOM     16  C   UNL     1       0.040  12.306  18.682  0.00  0.00    +0.000 C 
BRANCH  15  17
ATOM     17  C   UNL     1      -2.184  11.087  18.304  0.00  0.00    +0.000 A 
ATOM     18  C   UNL     1      -2.155  10.465  17.038  0.00  0.00    +0.000 A 
ATOM     19  C   UNL     1      -3.252  10.506  16.175  0.00  0.00    +0.000 A 
ATOM     20  C   UNL     1      -4.412  11.171  16.554  0.00  0.00    +0.000 A 
ATOM     21  C   UNL     1      -4.472  11.790  17.800  0.00  0.00    +0.000 A 
ATOM     22  C   UNL     1      -3.370  11.754  18.663  0.00  0.00    +0.000 A 
ENDBRANCH  15  17
ENDBRANCH  10  15
ENDBRANCH   1  11
BRANCH   3  23
ATOM     23  C   UNL     1       2.119   4.944  21.021  0.00  0.00    +0.000 C 
BRANCH  23  24
ATOM     24  C   UNL     1       3.243   4.083  20.433  0.00  0.00    +0.000 C 
BRANCH  24  25
ATOM     25  N   UNL     1       2.904   2.644  20.281  0.00  0.00    +0.000 NA
ATOM     26  C   UNL     1       3.819   2.000  19.303  0.00  0.00    +0.000 C 
ATOM     27  C   UNL     1       3.562   2.402  17.835  0.00  0.00    +0.000 C 
ATOM     28  O   UNL     1       2.192   2.214  17.453  0.00  0.00    +0.000 OA
ATOM     29  C   UNL     1       1.303   2.890  18.350  0.00  0.00    +0.000 C 
ATOM     30  C   UNL     1       1.525   2.409  19.791  0.00  0.00    +0.000 C 
ENDBRANCH  24  25
ENDBRANCH  23  24
ENDBRANCH   3  23
TORSDOF 6
ENDMDL
MODEL 8
REMARK VINA RESULT:      -7.8      2.501      7.986
REMARK  Name = 
REMARK  8 active torsions:
REMARK  status: ('A' for Active; 'I' for Inactive)
REMARK    1  A    between atoms: C_1  and  C_2
REMARK    2  A    between atoms: C_2  and  C_3
REMARK    3  A    between atoms: C_2  and  N_4
REMARK    4  A    between atoms: C_2  and  C_24
REMARK    5  A    between atoms: C_5  and  C_7
REMARK    6  A    between atoms: N_9  and  C_10
REMARK    7  A    between atoms: C_10  and  C_11
REMARK    8  A    between atoms: C_11  and  N_12
REMARK                            x       y       z     vdW  Elec       q    Type
REMARK                         _______ _______ _______ _____ _____    ______ ____
ROOT
ATOM      1  C   UNL     1       2.581   6.510  18.345  0.00  0.00    +0.000 A 
ATOM      2  N   UNL     1       3.355   5.843  17.449  0.00  0.00    +0.000 NA
ATOM      3  N   UNL     1       3.646   4.651  18.076  0.00  0.00    +0.000 N 
ATOM      4  C   UNL     1       2.953   4.516  19.229  0.00  0.00    +0.000 A 
ATOM      5  C   UNL     1       2.272   5.679  19.436  0.00  0.00    +0.000 A 
ATOM      6  C   UNL     1       1.581   5.754  20.745  0.00  0.00    +0.000 C 
ATOM      7  C   UNL     1       2.020   4.435  21.416  0.00  0.00    +0.000 C 
ATOM      8  C   UNL     1       1.507   3.125  20.917  0.00  0.00    +0.000 C 
ATOM      9  C   UNL     1       2.851   3.593  20.412  0.00  0.00    +0.000 C 
ENDROOT
BRANCH   1  11
ATOM     10  N   UNL     1       1.303   8.393  19.210  0.00  0.00    +0.000 N 
ATOM     11  C   UNL     1       2.165   7.918  18.236  0.00  0.00    +0.000 C 
ATOM     12  O   UNL     1       2.595   8.619  17.321  0.00  0.00    +0.000 OA
ATOM     13  H   UNL     1       0.905   7.694  19.828  0.00  0.00    +0.000 HD
BRANCH  10  15
ATOM     14  C   UNL     1       1.927  10.793  18.935  0.00  0.00    +0.000 C 
ATOM     15  C   UNL     1       0.790   9.781  19.222  0.00  0.00    +0.000 C 
ATOM     16  C   UNL     1      -0.296   9.911  18.128  0.00  0.00    +0.000 C 
BRANCH  15  17
ATOM     17  C   UNL     1       0.249  10.177  20.619  0.00  0.00    +0.000 A 
ATOM     18  C   UNL     1       0.292   9.282  21.709  0.00  0.00    +0.000 A 
ATOM     19  C   UNL     1      -0.336   9.573  22.923  0.00  0.00    +0.000 A 
ATOM     20  C   UNL     1      -1.025  10.770  23.080  0.00  0.00    +0.000 A 
ATOM     21  C   UNL     1      -1.080  11.675  22.024  0.00  0.00    +0.000 A 
ATOM     22  C   UNL     1      -0.456  11.381  20.805  0.00  0.00    +0.000 A 
ENDBRANCH  15  17
ENDBRANCH  10  15
ENDBRANCH   1  11
BRANCH   3  23
ATOM     23  C   UNL     1       4.403   3.595  17.425  0.00  0.00    +0.000 C 
BRANCH  23  24
ATOM     24  C   UNL     1       5.019   3.996  16.079  0.00  0.00    +0.000 C 
BRANCH  24  25
ATOM     25  N   UNL     1       6.497   3.866  16.012  0.00  0.00    +0.000 NA
ATOM     26  C   UNL     1       7.117   4.390  17.258  0.00  0.00    +0.000 C 
ATOM     27  C   UNL     1       7.076   5.927  17.386  0.00  0.00    +0.000 C 
ATOM     28  O   UNL     1       7.618   6.584  16.231  0.00  0.00    +0.000 OA
ATOM     29  C   UNL     1       6.979   6.135  15.030  0.00  0.00    +0.000 C 
ATOM     30  C   UNL     1       7.108   4.612  14.887  0.00  0.00    +0.000 C 
ENDBRANCH  24  25
ENDBRANCH  23  24
ENDBRANCH   3  23
TORSDOF 6
ENDMDL
MODEL 9
REMARK VINA RESULT:      -7.7      3.229      5.875
REMARK  Name = 
REMARK  8 active torsions:
REMARK  status: ('A' for Active; 'I' for Inactive)
REMARK    1  A    between atoms: C_1  and  C_2
REMARK    2  A    between atoms: C_2  and  C_3
REMARK    3  A    between atoms: C_2  and  N_4
REMARK    4  A    between atoms: C_2  and  C_24
REMARK    5  A    between atoms: C_5  and  C_7
REMARK    6  A    between atoms: N_9  and  C_10
REMARK    7  A    between atoms: C_10  and  C_11
REMARK    8  A    between atoms: C_11  and  N_12
REMARK                            x       y       z     vdW  Elec       q    Type
REMARK                         _______ _______ _______ _____ _____    ______ ____
ROOT
ATOM      1  C   UNL     1       3.451   6.020  19.065  0.00  0.00    +0.000 A 
ATOM      2  N   UNL     1       2.783   7.066  19.619  0.00  0.00    +0.000 NA
ATOM      3  N   UNL     1       1.697   6.484  20.238  0.00  0.00    +0.000 N 
ATOM      4  C   UNL     1       1.777   5.135  20.212  0.00  0.00    +0.000 A 
ATOM      5  C   UNL     1       2.873   4.804  19.471  0.00  0.00    +0.000 A 
ATOM      6  C   UNL     1       3.016   3.351  19.213  0.00  0.00    +0.000 C 
ATOM      7  C   UNL     1       1.733   2.783  19.855  0.00  0.00    +0.000 C 
ATOM      8  C   UNL     1       1.568   2.776  21.339  0.00  0.00    +0.000 C 
ATOM      9  C   UNL     1       0.960   3.924  20.568  0.00  0.00    +0.000 C 
ENDROOT
BRANCH   1  11
ATOM     10  N   UNL     1       5.737   5.440  18.463  0.00  0.00    +0.000 N 
ATOM     11  C   UNL     1       4.581   6.125  18.128  0.00  0.00    +0.000 C 
ATOM     12  O   UNL     1       4.466   6.784  17.096  0.00  0.00    +0.000 OA
ATOM     13  H   UNL     1       5.765   5.050  19.399  0.00  0.00    +0.000 HD
BRANCH  10  15
ATOM     14  C   UNL     1       7.389   6.919  17.319  0.00  0.00    +0.000 C 
ATOM     15  C   UNL     1       6.956   5.464  17.624  0.00  0.00    +0.000 C 
ATOM     16  C   UNL     1       8.091   4.744  18.390  0.00  0.00    +0.000 C 
BRANCH  15  17
ATOM     17  C   UNL     1       6.705   4.825  16.235  0.00  0.00    +0.000 A 
ATOM     18  C   UNL     1       7.338   5.313  15.072  0.00  0.00    +0.000 A 
ATOM     19  C   UNL     1       6.995   4.847  13.800  0.00  0.00    +0.000 A 
ATOM     20  C   UNL     1       6.009   3.879  13.655  0.00  0.00    +0.000 A 
ATOM     21  C   UNL     1       5.371   3.374  14.785  0.00  0.00    +0.000 A 
ATOM     22  C   UNL     1       5.710   3.845  16.060  0.00  0.00    +0.000 A 
ENDBRANCH  15  17
ENDBRANCH  10  15
ENDBRANCH   1  11
BRANCH   3  23
ATOM     23  C   UNL     1       0.747   7.252  21.026  0.00  0.00    +0.000 C 
BRANCH  23  24
ATOM     24  C   UNL     1       0.546   8.694  20.543  0.00  0.00    +0.000 C 
BRANCH  24  25
ATOM     25  N   UNL     1       1.301   9.714  21.314  0.00  0.00    +0.000 NA
ATOM     26  C   UNL     1       1.295   9.375  22.761  0.00  0.00    +0.000 C 
ATOM     27  C   UNL     1      -0.065   9.593  23.457  0.00  0.00    +0.000 C 
ATOM     28  O   UNL     1      -0.581  10.914  23.241  0.00  0.00    +0.000 OA
ATOM     29  C   UNL     1      -0.645  11.226  21.844  0.00  0.00    +0.000 C 
ATOM     30  C   UNL     1       0.740  11.081  21.196  0.00  0.00    +0.000 C 
ENDBRANCH  24  25
ENDBRANCH  23  24
ENDBRANCH   3  23
TORSDOF 6
ENDMDL
