MODEL 1
REMARK VINA RESULT:      -6.4      0.000      0.000
REMARK  Name = 
REMARK  11 active torsions:
REMARK  status: ('A' for Active; 'I' for Inactive)
REMARK    1  A    between atoms: C_1  and  O_2
REMARK    2  A    between atoms: O_2  and  C_3
REMARK    3  A    between atoms: C_4  and  C_5
REMARK    4  A    between atoms: C_8  and  C_9
REMARK    5  A    between atoms: C_9  and  N_10
REMARK    6  A    between atoms: N_10  and  C_11
REMARK    7  A    between atoms: C_12  and  C_14
REMARK    8  A    between atoms: C_19  and  N_20
REMARK    9  A    between atoms: N_20  and  C_21
REMARK   10  A    between atoms: N_20  and  C_22
REMARK   11  A    between atoms: C_23  and  C_24
REMARK                            x       y       z     vdW  Elec       q    Type
REMARK                         _______ _______ _______ _____ _____    ______ ____
ROOT
ATOM      1  N   UNL     1       1.003   8.798  20.187  0.00  0.00    +0.000 N 
ATOM      2  C   UNL     1      -0.066   8.661  21.174  0.00  0.00    +0.000 C 
ATOM      3  C   UNL     1       0.935   9.567  19.009  0.00  0.00    +0.000 C 
ATOM      4  O   UNL     1       1.914   9.671  18.265  0.00  0.00    +0.000 OA
ENDROOT
BRANCH   3   5
ATOM      5  C   UNL     1      -0.300  10.331  18.655  0.00  0.00    +0.000 A 
ATOM      6  C   UNL     1      -1.131   9.715  17.688  0.00  0.00    +0.000 A 
ATOM      7  C   UNL     1      -2.269  10.341  17.206  0.00  0.00    +0.000 A 
ATOM      8  C   UNL     1      -2.604  11.543  17.773  0.00  0.00    +0.000 A 
ATOM      9  N   UNL     1      -1.893  12.107  18.768  0.00  0.00    +0.000 NA
ATOM     10  C   UNL     1      -0.750  11.534  19.251  0.00  0.00    +0.000 A 
BRANCH  10  11
ATOM     11  N   UNL     1      -0.158  12.286  20.252  0.00  0.00    +0.000 N 
ATOM     12  C   UNL     1       0.566  13.493  19.822  0.00  0.00    +0.000 C 
ATOM     13  C   UNL     1      -0.596  12.327  21.635  0.00  0.00    +0.000 C 
ENDBRANCH  10  11
ENDBRANCH   3   5
BRANCH   1  14
ATOM     14  C   UNL     1       2.180   7.938  20.401  0.00  0.00    +0.000 C 
BRANCH  14  20
ATOM     15  C   UNL     1       2.312   4.638  18.390  0.00  0.00    +0.000 A 
ATOM     16  C   UNL     1       1.511   3.840  19.215  0.00  0.00    +0.000 A 
ATOM     17  C   UNL     1       1.072   2.431  18.961  0.00  0.00    +0.000 C 
ATOM     18  C   UNL     1       1.041   4.440  20.380  0.00  0.00    +0.000 A 
ATOM     19  N   UNL     1       1.297   5.707  20.771  0.00  0.00    +0.000 NA
ATOM     20  C   UNL     1       2.059   6.486  19.960  0.00  0.00    +0.000 A 
ATOM     21  C   UNL     1       2.603   5.982  18.769  0.00  0.00    +0.000 A 
ATOM     22  C   UNL     1       3.438   6.829  17.843  0.00  0.00    +0.000 C 
BRANCH  15  24
ATOM     23  C   UNL     1       4.100   3.451  17.263  0.00  0.00    +0.000 C 
ATOM     24  O   UNL     1       2.935   4.257  17.229  0.00  0.00    +0.000 OA
ENDBRANCH  15  24
ENDBRANCH  14  20
ENDBRANCH   1  14
TORSDOF 5
ENDMDL
MODEL 2
REMARK VINA RESULT:      -6.3      1.384      1.654
REMARK  Name = 
REMARK  11 active torsions:
REMARK  status: ('A' for Active; 'I' for Inactive)
REMARK    1  A    between atoms: C_1  and  O_2
REMARK    2  A    between atoms: O_2  and  C_3
REMARK    3  A    between atoms: C_4  and  C_5
REMARK    4  A    between atoms: C_8  and  C_9
REMARK    5  A    between atoms: C_9  and  N_10
REMARK    6  A    between atoms: N_10  and  C_11
REMARK    7  A    between atoms: C_12  and  C_14
REMARK    8  A    between atoms: C_19  and  N_20
REMARK    9  A    between atoms: N_20  and  C_21
REMARK   10  A    between atoms: N_20  and  C_22
REMARK   11  A    between atoms: C_23  and  C_24
REMARK                            x       y       z     vdW  Elec       q    Type
REMARK                         _______ _______ _______ _____ _____    ______ ____
ROOT
ATOM      1  N   UNL     1       1.775   8.524  19.068  0.00  0.00    +0.000 N 
ATOM      2  C   UNL     1       2.045   8.717  17.645  0.00  0.00    +0.000 C 
ATOM      3  C   UNL     1       0.865   9.275  19.837  0.00  0.00    +0.000 C 
ATOM      4  O   UNL     1       0.660   8.998  21.022  0.00  0.00    +0.000 OA
ENDROOT
BRANCH   3   5
ATOM      5  C   UNL     1       0.074  10.388  19.229  0.00  0.00    +0.000 A 
ATOM      6  C   UNL     1      -1.258  10.058  18.879  0.00  0.00    +0.000 A 
ATOM      7  C   UNL     1      -2.085  10.965  18.237  0.00  0.00    +0.000 A 
ATOM      8  C   UNL     1      -1.586  12.226  18.037  0.00  0.00    +0.000 A 
ATOM      9  N   UNL     1      -0.362  12.604  18.452  0.00  0.00    +0.000 NA
ATOM     10  C   UNL     1       0.493  11.730  19.064  0.00  0.00    +0.000 A 
BRANCH  10  11
ATOM     11  N   UNL     1       1.708  12.311  19.386  0.00  0.00    +0.000 N 
ATOM     12  C   UNL     1       2.574  12.686  18.257  0.00  0.00    +0.000 C 
ATOM     13  C   UNL     1       1.983  13.048  20.605  0.00  0.00    +0.000 C 
ENDBRANCH  10  11
ENDBRANCH   3   5
BRANCH   1  14
ATOM     14  C   UNL     1       2.644   7.552  19.754  0.00  0.00    +0.000 C 
BRANCH  14  20
ATOM     15  C   UNL     1       2.288   3.936  18.430  0.00  0.00    +0.000 A 
ATOM     16  C   UNL     1       1.318   3.465  19.322  0.00  0.00    +0.000 A 
ATOM     17  C   UNL     1       0.649   2.124  19.306  0.00  0.00    +0.000 C 
ATOM     18  C   UNL     1       0.905   4.357  20.307  0.00  0.00    +0.000 A 
ATOM     19  N   UNL     1       1.362   5.617  20.468  0.00  0.00    +0.000 NA
ATOM     20  C   UNL     1       2.289   6.080  19.590  0.00  0.00    +0.000 A 
ATOM     21  C   UNL     1       2.794   5.263  18.567  0.00  0.00    +0.000 A 
ATOM     22  C   UNL     1       3.811   5.755  17.570  0.00  0.00    +0.000 C 
BRANCH  15  24
ATOM     23  C   UNL     1       3.758   2.147  17.709  0.00  0.00    +0.000 C 
ATOM     24  O   UNL     1       2.891   3.230  17.420  0.00  0.00    +0.000 OA
ENDBRANCH  15  24
ENDBRANCH  14  20
ENDBRANCH   1  14
TORSDOF 5
ENDMDL
MODEL 3
REMARK VINA RESULT:      -6.1      2.212      7.491
REMARK  Name = 
REMARK  11 active torsions:
REMARK  status: ('A' for Active; 'I' for Inactive)
REMARK    1  A    between atoms: C_1  and  O_2
REMARK    2  A    between atoms: O_2  and  C_3
REMARK    3  A    between atoms: C_4  and  C_5
REMARK    4  A    between atoms: C_8  and  C_9
REMARK    5  A    between atoms: C_9  and  N_10
REMARK    6  A    between atoms: N_10  and  C_11
REMARK    7  A    between atoms: C_12  and  C_14
REMARK    8  A    between atoms: C_19  and  N_20
REMARK    9  A    between atoms: N_20  and  C_21
REMARK   10  A    between atoms: N_20  and  C_22
REMARK   11  A    between atoms: C_23  and  C_24
REMARK                            x       y       z     vdW  Elec       q    Type
REMARK                         _______ _______ _______ _____ _____    ______ ____
ROOT
ATOM      1  N   UNL     1       2.171   6.753  19.567  0.00  0.00    +0.000 N 
ATOM      2  C   UNL     1       1.667   6.112  20.780  0.00  0.00    +0.000 C 
ATOM      3  C   UNL     1       2.678   6.081  18.438  0.00  0.00    +0.000 C 
ATOM      4  O   UNL     1       3.025   6.708  17.433  0.00  0.00    +0.000 OA
ENDROOT
BRANCH   3   5
ATOM      5  C   UNL     1       2.755   4.589  18.396  0.00  0.00    +0.000 A 
ATOM      6  C   UNL     1       1.505   3.923  18.387  0.00  0.00    +0.000 A 
ATOM      7  C   UNL     1       1.419   2.541  18.426  0.00  0.00    +0.000 A 
ATOM      8  C   UNL     1       2.600   1.845  18.382  0.00  0.00    +0.000 A 
ATOM      9  N   UNL     1       3.800   2.445  18.285  0.00  0.00    +0.000 NA
ATOM     10  C   UNL     1       3.928   3.806  18.271  0.00  0.00    +0.000 A 
BRANCH  10  11
ATOM     11  N   UNL     1       5.247   4.218  18.192  0.00  0.00    +0.000 N 
ATOM     12  C   UNL     1       5.812   4.349  16.839  0.00  0.00    +0.000 C 
ATOM     13  C   UNL     1       5.936   5.010  19.194  0.00  0.00    +0.000 C 
ENDBRANCH  10  11
ENDBRANCH   3   5
BRANCH   1  14
ATOM     14  C   UNL     1       2.271   8.222  19.619  0.00  0.00    +0.000 C 
BRANCH  14  20
ATOM     15  C   UNL     1      -0.639  10.544  20.663  0.00  0.00    +0.000 A 
ATOM     16  C   UNL     1      -0.550  10.404  22.053  0.00  0.00    +0.000 A 
ATOM     17  C   UNL     1      -1.356  11.127  23.089  0.00  0.00    +0.000 C 
ATOM     18  C   UNL     1       0.422   9.524  22.520  0.00  0.00    +0.000 A 
ATOM     19  N   UNL     1       1.266   8.805  21.751  0.00  0.00    +0.000 NA
ATOM     20  C   UNL     1       1.192   8.957  20.403  0.00  0.00    +0.000 A 
ATOM     21  C   UNL     1       0.238   9.802  19.818  0.00  0.00    +0.000 A 
ATOM     22  C   UNL     1       0.144  10.001  18.327  0.00  0.00    +0.000 C 
BRANCH  15  24
ATOM     23  C   UNL     1      -1.434  12.713  19.926  0.00  0.00    +0.000 C 
ATOM     24  O   UNL     1      -1.548  11.301  19.968  0.00  0.00    +0.000 OA
ENDBRANCH  15  24
ENDBRANCH  14  20
ENDBRANCH   1  14
TORSDOF 5
ENDMDL
MODEL 4
REMARK VINA RESULT:      -6.0      1.125      1.343
REMARK  Name = 
REMARK  11 active torsions:
REMARK  status: ('A' for Active; 'I' for Inactive)
REMARK    1  A    between atoms: C_1  and  O_2
REMARK    2  A    between atoms: O_2  and  C_3
REMARK    3  A    between atoms: C_4  and  C_5
REMARK    4  A    between atoms: C_8  and  C_9
REMARK    5  A    between atoms: C_9  and  N_10
REMARK    6  A    between atoms: N_10  and  C_11
REMARK    7  A    between atoms: C_12  and  C_14
REMARK    8  A    between atoms: C_19  and  N_20
REMARK    9  A    between atoms: N_20  and  C_21
REMARK   10  A    between atoms: N_20  and  C_22
REMARK   11  A    between atoms: C_23  and  C_24
REMARK                            x       y       z     vdW  Elec       q    Type
REMARK                         _______ _______ _______ _____ _____    ______ ____
ROOT
ATOM      1  N   UNL     1       1.318   8.860  19.524  0.00  0.00    +0.000 N 
ATOM      2  C   UNL     1       1.717   9.405  18.228  0.00  0.00    +0.000 C 
ATOM      3  C   UNL     1       0.181   9.250  20.260  0.00  0.00    +0.000 C 
ATOM      4  O   UNL     1      -0.109   8.689  21.320  0.00  0.00    +0.000 OA
ENDROOT
BRANCH   3   5
ATOM      5  C   UNL     1      -0.742  10.310  19.751  0.00  0.00    +0.000 A 
ATOM      6  C   UNL     1      -1.445   9.977  18.568  0.00  0.00    +0.000 A 
ATOM      7  C   UNL     1      -2.278  10.889  17.939  0.00  0.00    +0.000 A 
ATOM      8  C   UNL     1      -2.460  12.096  18.562  0.00  0.00    +0.000 A 
ATOM      9  N   UNL     1      -1.888  12.405  19.741  0.00  0.00    +0.000 NA
ATOM     10  C   UNL     1      -1.039  11.544  20.379  0.00  0.00    +0.000 A 
BRANCH  10  11
ATOM     11  N   UNL     1      -0.541  12.064  21.561  0.00  0.00    +0.000 N 
ATOM     12  C   UNL     1       0.262  13.292  21.448  0.00  0.00    +0.000 C 
ATOM     13  C   UNL     1      -1.128  11.866  22.873  0.00  0.00    +0.000 C 
ENDBRANCH  10  11
ENDBRANCH   3   5
BRANCH   1  14
ATOM     14  C   UNL     1       2.277   7.932  20.148  0.00  0.00    +0.000 C 
BRANCH  14  20
ATOM     15  C   UNL     1       2.422   4.522  18.331  0.00  0.00    +0.000 A 
ATOM     16  C   UNL     1       1.569   3.787  19.163  0.00  0.00    +0.000 A 
ATOM     17  C   UNL     1       1.111   2.374  18.969  0.00  0.00    +0.000 C 
ATOM     18  C   UNL     1       1.064   4.461  20.272  0.00  0.00    +0.000 A 
ATOM     19  N   UNL     1       1.331   5.742  20.602  0.00  0.00    +0.000 NA
ATOM     20  C   UNL     1       2.143   6.459  19.783  0.00  0.00    +0.000 A 
ATOM     21  C   UNL     1       2.726   5.879  18.646  0.00  0.00    +0.000 A 
ATOM     22  C   UNL     1       3.617   6.656  17.712  0.00  0.00    +0.000 C 
BRANCH  15  24
ATOM     23  C   UNL     1       4.231   3.240  17.350  0.00  0.00    +0.000 C 
ATOM     24  O   UNL     1       3.084   4.063  17.221  0.00  0.00    +0.000 OA
ENDBRANCH  15  24
ENDBRANCH  14  20
ENDBRANCH   1  14
TORSDOF 5
ENDMDL
MODEL 5
REMARK VINA RESULT:      -6.0      2.356      7.435
REMARK  Name = 
REMARK  11 active torsions:
REMARK  status: ('A' for Active; 'I' for Inactive)
REMARK    1  A    between atoms: C_1  and  O_2
REMARK    2  A    between atoms: O_2  and  C_3
REMARK    3  A    between atoms: C_4  and  C_5
REMARK    4  A    between atoms: C_8  and  C_9
REMARK    5  A    between atoms: C_9  and  N_10
REMARK    6  A    between atoms: N_10  and  C_11
REMARK    7  A    between atoms: C_12  and  C_14
REMARK    8  A    between atoms: C_19  and  N_20
REMARK    9  A    between atoms: N_20  and  C_21
REMARK   10  A    between atoms: N_20  and  C_22
REMARK   11  A    between atoms: C_23  and  C_24
REMARK                            x       y       z     vdW  Elec       q    Type
REMARK                         _______ _______ _______ _____ _____    ______ ____
ROOT
ATOM      1  N   UNL     1       2.207   7.961  19.045  0.00  0.00    +0.000 N 
ATOM      2  C   UNL     1       1.818   7.325  20.302  0.00  0.00    +0.000 C 
ATOM      3  C   UNL     1       2.801   7.307  17.947  0.00  0.00    +0.000 C 
ATOM      4  O   UNL     1       3.039   7.918  16.901  0.00  0.00    +0.000 OA
ENDROOT
BRANCH   3   5
ATOM      5  C   UNL     1       3.103   5.844  17.991  0.00  0.00    +0.000 A 
ATOM      6  C   UNL     1       1.980   4.994  17.842  0.00  0.00    +0.000 A 
ATOM      7  C   UNL     1       2.095   3.616  17.938  0.00  0.00    +0.000 A 
ATOM      8  C   UNL     1       3.359   3.109  18.093  0.00  0.00    +0.000 A 
ATOM      9  N   UNL     1       4.459   3.884  18.132  0.00  0.00    +0.000 NA
ATOM     10  C   UNL     1       4.384   5.247  18.069  0.00  0.00    +0.000 A 
BRANCH  10  11
ATOM     11  N   UNL     1       5.625   5.854  18.153  0.00  0.00    +0.000 N 
ATOM     12  C   UNL     1       6.447   5.505  19.323  0.00  0.00    +0.000 C 
ATOM     13  C   UNL     1       6.393   6.344  17.023  0.00  0.00    +0.000 C 
ENDBRANCH  10  11
ENDBRANCH   3   5
BRANCH   1  14
ATOM     14  C   UNL     1       2.084   9.429  19.009  0.00  0.00    +0.000 C 
BRANCH  14  20
ATOM     15  C   UNL     1      -1.346  11.116  19.591  0.00  0.00    +0.000 A 
ATOM     16  C   UNL     1      -1.989  10.733  18.408  0.00  0.00    +0.000 A 
ATOM     17  C   UNL     1      -3.415  10.990  18.029  0.00  0.00    +0.000 C 
ATOM     18  C   UNL     1      -1.225   9.999  17.506  0.00  0.00    +0.000 A 
ATOM     19  N   UNL     1       0.064   9.639  17.677  0.00  0.00    +0.000 NA
ATOM     20  C   UNL     1       0.681   9.995  18.834  0.00  0.00    +0.000 A 
ATOM     21  C   UNL     1       0.015  10.753  19.809  0.00  0.00    +0.000 A 
ATOM     22  C   UNL     1       0.670  11.147  21.108  0.00  0.00    +0.000 C 
BRANCH  15  24
ATOM     23  C   UNL     1      -1.977  13.293  20.453  0.00  0.00    +0.000 C 
ATOM     24  O   UNL     1      -1.867  11.887  20.599  0.00  0.00    +0.000 OA
ENDBRANCH  15  24
ENDBRANCH  14  20
ENDBRANCH   1  14
TORSDOF 5
ENDMDL
MODEL 6
REMARK VINA RESULT:      -6.0      3.134      7.807
REMARK  Name = 
REMARK  11 active torsions:
REMARK  status: ('A' for Active; 'I' for Inactive)
REMARK    1  A    between atoms: C_1  and  O_2
REMARK    2  A    between atoms: O_2  and  C_3
REMARK    3  A    between atoms: C_4  and  C_5
REMARK    4  A    between atoms: C_8  and  C_9
REMARK    5  A    between atoms: C_9  and  N_10
REMARK    6  A    between atoms: N_10  and  C_11
REMARK    7  A    between atoms: C_12  and  C_14
REMARK    8  A    between atoms: C_19  and  N_20
REMARK    9  A    between atoms: N_20  and  C_21
REMARK   10  A    between atoms: N_20  and  C_22
REMARK   11  A    between atoms: C_23  and  C_24
REMARK                            x       y       z     vdW  Elec       q    Type
REMARK                         _______ _______ _______ _____ _____    ______ ____
ROOT
ATOM      1  N   UNL     1      -0.858  11.294  19.104  0.00  0.00    +0.000 N 
ATOM      2  C   UNL     1      -1.702  10.293  18.455  0.00  0.00    +0.000 C 
ATOM      3  C   UNL     1       0.486  11.109  19.482  0.00  0.00    +0.000 C 
ATOM      4  O   UNL     1       1.138  12.036  19.971  0.00  0.00    +0.000 OA
ENDROOT
BRANCH   3   5
ATOM      5  C   UNL     1       1.183   9.808  19.247  0.00  0.00    +0.000 A 
ATOM      6  C   UNL     1       1.858   9.703  18.006  0.00  0.00    +0.000 A 
ATOM      7  C   UNL     1       2.483   8.529  17.618  0.00  0.00    +0.000 A 
ATOM      8  C   UNL     1       2.496   7.503  18.527  0.00  0.00    +0.000 A 
ATOM      9  N   UNL     1       1.955   7.606  19.755  0.00  0.00    +0.000 NA
ATOM     10  C   UNL     1       1.305   8.737  20.165  0.00  0.00    +0.000 A 
BRANCH  10  11
ATOM     11  N   UNL     1       0.800   8.626  21.449  0.00  0.00    +0.000 N 
ATOM     12  C   UNL     1       1.593   9.251  22.520  0.00  0.00    +0.000 C 
ATOM     13  C   UNL     1      -0.601   8.452  21.783  0.00  0.00    +0.000 C 
ENDBRANCH  10  11
ENDBRANCH   3   5
BRANCH   1  14
ATOM     14  C   UNL     1      -1.540  12.537  19.507  0.00  0.00    +0.000 C 
BRANCH  14  20
ATOM     15  C   UNL     1      -4.413  12.582  22.094  0.00  0.00    +0.000 A 
ATOM     16  C   UNL     1      -3.656  12.637  23.270  0.00  0.00    +0.000 A 
ATOM     17  C   UNL     1      -4.169  12.769  24.671  0.00  0.00    +0.000 C 
ATOM     18  C   UNL     1      -2.274  12.604  23.111  0.00  0.00    +0.000 A 
ATOM     19  N   UNL     1      -1.619  12.520  21.934  0.00  0.00    +0.000 NA
ATOM     20  C   UNL     1      -2.355  12.486  20.792  0.00  0.00    +0.000 A 
ATOM     21  C   UNL     1      -3.757  12.495  20.831  0.00  0.00    +0.000 A 
ATOM     22  C   UNL     1      -4.598  12.474  19.579  0.00  0.00    +0.000 C 
BRANCH  15  24
ATOM     23  C   UNL     1      -6.561  13.698  22.248  0.00  0.00    +0.000 C 
ATOM     24  O   UNL     1      -5.781  12.541  21.996  0.00  0.00    +0.000 OA
ENDBRANCH  15  24
ENDBRANCH  14  20
ENDBRANCH   1  14
TORSDOF 5
ENDMDL
MODEL 7
REMARK VINA RESULT:      -5.9      2.218      7.490
REMARK  Name = 
REMARK  11 active torsions:
REMARK  status: ('A' for Active; 'I' for Inactive)
REMARK    1  A    between atoms: C_1  and  O_2
REMARK    2  A    between atoms: O_2  and  C_3
REMARK    3  A    between atoms: C_4  and  C_5
REMARK    4  A    between atoms: C_8  and  C_9
REMARK    5  A    between atoms: C_9  and  N_10
REMARK    6  A    between atoms: N_10  and  C_11
REMARK    7  A    between atoms: C_12  and  C_14
REMARK    8  A    between atoms: C_19  and  N_20
REMARK    9  A    between atoms: N_20  and  C_21
REMARK   10  A    between atoms: N_20  and  C_22
REMARK   11  A    between atoms: C_23  and  C_24
REMARK                            x       y       z     vdW  Elec       q    Type
REMARK                         _______ _______ _______ _____ _____    ______ ____
ROOT
ATOM      1  N   UNL     1       2.229   7.070  19.424  0.00  0.00    +0.000 N 
ATOM      2  C   UNL     1       1.624   6.449  20.599  0.00  0.00    +0.000 C 
ATOM      3  C   UNL     1       2.796   6.381  18.334  0.00  0.00    +0.000 C 
ATOM      4  O   UNL     1       3.231   6.994  17.355  0.00  0.00    +0.000 OA
ENDROOT
BRANCH   3   5
ATOM      5  C   UNL     1       2.834   4.887  18.301  0.00  0.00    +0.000 A 
ATOM      6  C   UNL     1       1.569   4.256  18.216  0.00  0.00    +0.000 A 
ATOM      7  C   UNL     1       1.443   2.876  18.253  0.00  0.00    +0.000 A 
ATOM      8  C   UNL     1       2.604   2.148  18.285  0.00  0.00    +0.000 A 
ATOM      9  N   UNL     1       3.825   2.715  18.260  0.00  0.00    +0.000 NA
ATOM     10  C   UNL     1       3.990   4.072  18.251  0.00  0.00    +0.000 A 
BRANCH  10  11
ATOM     11  N   UNL     1       5.323   4.446  18.253  0.00  0.00    +0.000 N 
ATOM     12  C   UNL     1       5.989   4.503  16.942  0.00  0.00    +0.000 C 
ATOM     13  C   UNL     1       5.958   5.265  19.269  0.00  0.00    +0.000 C 
ENDBRANCH  10  11
ENDBRANCH   3   5
BRANCH   1  14
ATOM     14  C   UNL     1       2.367   8.537  19.479  0.00  0.00    +0.000 C 
BRANCH  14  20
ATOM     15  C   UNL     1      -0.837  10.641  19.986  0.00  0.00    +0.000 A 
ATOM     16  C   UNL     1      -1.345  10.595  18.682  0.00  0.00    +0.000 A 
ATOM     17  C   UNL     1      -2.648  11.153  18.198  0.00  0.00    +0.000 C 
ATOM     18  C   UNL     1      -0.567   9.921  17.745  0.00  0.00    +0.000 A 
ATOM     19  N   UNL     1       0.618   9.324  17.990  0.00  0.00    +0.000 NA
ATOM     20  C   UNL     1       1.101   9.354  19.259  0.00  0.00    +0.000 A 
ATOM     21  C   UNL     1       0.412  10.020  20.283  0.00  0.00    +0.000 A 
ATOM     22  C   UNL     1       0.916  10.055  21.704  0.00  0.00    +0.000 C 
BRANCH  15  24
ATOM     23  C   UNL     1      -1.394  12.707  21.127  0.00  0.00    +0.000 C 
ATOM     24  O   UNL     1      -1.387  11.291  21.061  0.00  0.00    +0.000 OA
ENDBRANCH  15  24
ENDBRANCH  14  20
ENDBRANCH   1  14
TORSDOF 5
ENDMDL
MODEL 8
REMARK VINA RESULT:      -5.8      1.742      2.632
REMARK  Name = 
REMARK  11 active torsions:
REMARK  status: ('A' for Active; 'I' for Inactive)
REMARK    1  A    between atoms: C_1  and  O_2
REMARK    2  A    between atoms: O_2  and  C_3
REMARK    3  A    between atoms: C_4  and  C_5
REMARK    4  A    between atoms: C_8  and  C_9
REMARK    5  A    between atoms: C_9  and  N_10
REMARK    6  A    between atoms: N_10  and  C_11
REMARK    7  A    between atoms: C_12  and  C_14
REMARK    8  A    between atoms: C_19  and  N_20
REMARK    9  A    between atoms: N_20  and  C_21
REMARK   10  A    between atoms: N_20  and  C_22
REMARK   11  A    between atoms: C_23  and  C_24
REMARK                            x       y       z     vdW  Elec       q    Type
REMARK                         _______ _______ _______ _____ _____    ______ ____
ROOT
ATOM      1  N   UNL     1       1.551   8.615  19.121  0.00  0.00    +0.000 N 
ATOM      2  C   UNL     1       1.757   8.756  17.681  0.00  0.00    +0.000 C 
ATOM      3  C   UNL     1       0.737   9.445  19.916  0.00  0.00    +0.000 C 
ATOM      4  O   UNL     1       0.576   9.210  21.117  0.00  0.00    +0.000 OA
ENDROOT
BRANCH   3   5
ATOM      5  C   UNL     1      -0.007  10.596  19.320  0.00  0.00    +0.000 A 
ATOM      6  C   UNL     1      -1.369  10.343  19.023  0.00  0.00    +0.000 A 
ATOM      7  C   UNL     1      -2.163  11.291  18.398  0.00  0.00    +0.000 A 
ATOM      8  C   UNL     1      -1.596  12.517  18.162  0.00  0.00    +0.000 A 
ATOM      9  N   UNL     1      -0.337  12.824  18.526  0.00  0.00    +0.000 NA
ATOM     10  C   UNL     1       0.486  11.908  19.120  0.00  0.00    +0.000 A 
BRANCH  10  11
ATOM     11  N   UNL     1       1.745  12.417  19.389  0.00  0.00    +0.000 N 
ATOM     12  C   UNL     1       2.606  12.684  18.225  0.00  0.00    +0.000 C 
ATOM     13  C   UNL     1       2.100  13.185  20.568  0.00  0.00    +0.000 C 
ENDBRANCH  10  11
ENDBRANCH   3   5
BRANCH   1  14
ATOM     14  C   UNL     1       2.386   7.599  19.787  0.00  0.00    +0.000 C 
BRANCH  14  20
ATOM     15  C   UNL     1       3.502   4.207  18.304  0.00  0.00    +0.000 A 
ATOM     16  C   UNL     1       4.364   4.671  17.304  0.00  0.00    +0.000 A 
ATOM     17  C   UNL     1       5.218   3.847  16.390  0.00  0.00    +0.000 C 
ATOM     18  C   UNL     1       4.463   6.054  17.173  0.00  0.00    +0.000 A 
ATOM     19  N   UNL     1       3.802   6.964  17.919  0.00  0.00    +0.000 NA
ATOM     20  C   UNL     1       2.980   6.512  18.902  0.00  0.00    +0.000 A 
ATOM     21  C   UNL     1       2.787   5.138  19.114  0.00  0.00    +0.000 A 
ATOM     22  C   UNL     1       1.895   4.610  20.207  0.00  0.00    +0.000 C 
BRANCH  15  24
ATOM     23  C   UNL     1       2.391   2.138  17.700  0.00  0.00    +0.000 C 
ATOM     24  O   UNL     1       3.195   2.900  18.584  0.00  0.00    +0.000 OA
ENDBRANCH  15  24
ENDBRANCH  14  20
ENDBRANCH   1  14
TORSDOF 5
ENDMDL
MODEL 9
REMARK VINA RESULT:      -5.8      1.432      2.393
REMARK  Name = 
REMARK  11 active torsions:
REMARK  status: ('A' for Active; 'I' for Inactive)
REMARK    1  A    between atoms: C_1  and  O_2
REMARK    2  A    between atoms: O_2  and  C_3
REMARK    3  A    between atoms: C_4  and  C_5
REMARK    4  A    between atoms: C_8  and  C_9
REMARK    5  A    between atoms: C_9  and  N_10
REMARK    6  A    between atoms: N_10  and  C_11
REMARK    7  A    between atoms: C_12  and  C_14
REMARK    8  A    between atoms: C_19  and  N_20
REMARK    9  A    between atoms: N_20  and  C_21
REMARK   10  A    between atoms: N_20  and  C_22
REMARK   11  A    between atoms: C_23  and  C_24
REMARK                            x       y       z     vdW  Elec       q    Type
REMARK                         _______ _______ _______ _____ _____    ______ ____
ROOT
ATOM      1  N   UNL     1       1.284   8.894  19.235  0.00  0.00    +0.000 N 
ATOM      2  C   UNL     1       1.630   9.339  17.887  0.00  0.00    +0.000 C 
ATOM      3  C   UNL     1       0.182   9.345  19.987  0.00  0.00    +0.000 C 
ATOM      4  O   UNL     1      -0.065   8.865  21.097  0.00  0.00    +0.000 OA
ENDROOT
BRANCH   3   5
ATOM      5  C   UNL     1      -0.758  10.372  19.442  0.00  0.00    +0.000 A 
ATOM      6  C   UNL     1      -1.660   9.899  18.458  0.00  0.00    +0.000 A 
ATOM      7  C   UNL     1      -2.537  10.752  17.808  0.00  0.00    +0.000 A 
ATOM      8  C   UNL     1      -2.554  12.058  18.225  0.00  0.00    +0.000 A 
ATOM      9  N   UNL     1      -1.785  12.517  19.228  0.00  0.00    +0.000 NA
ATOM     10  C   UNL     1      -0.887  11.713  19.875  0.00  0.00    +0.000 A 
BRANCH  10  11
ATOM     11  N   UNL     1      -0.178  12.386  20.855  0.00  0.00    +0.000 N 
ATOM     12  C   UNL     1      -0.651  12.215  22.239  0.00  0.00    +0.000 C 
ATOM     13  C   UNL     1       1.215  12.779  20.756  0.00  0.00    +0.000 C 
ENDBRANCH  10  11
ENDBRANCH   3   5
BRANCH   1  14
ATOM     14  C   UNL     1       2.265   8.007  19.884  0.00  0.00    +0.000 C 
BRANCH  14  20
ATOM     15  C   UNL     1       2.838   4.341  18.794  0.00  0.00    +0.000 A 
ATOM     16  C   UNL     1       3.707   4.559  17.719  0.00  0.00    +0.000 A 
ATOM     17  C   UNL     1       4.398   3.521  16.888  0.00  0.00    +0.000 C 
ATOM     18  C   UNL     1       3.988   5.889  17.417  0.00  0.00    +0.000 A 
ATOM     19  N   UNL     1       3.492   6.964  18.066  0.00  0.00    +0.000 NA
ATOM     20  C   UNL     1       2.663   6.750  19.121  0.00  0.00    +0.000 A 
ATOM     21  C   UNL     1       2.295   5.452  19.505  0.00  0.00    +0.000 A 
ATOM     22  C   UNL     1       1.391   5.186  20.682  0.00  0.00    +0.000 C 
BRANCH  15  24
ATOM     23  C   UNL     1       1.372   2.429  18.520  0.00  0.00    +0.000 C 
ATOM     24  O   UNL     1       2.369   3.132  19.242  0.00  0.00    +0.000 OA
ENDBRANCH  15  24
ENDBRANCH  14  20
ENDBRANCH   1  14
TORSDOF 5
ENDMDL
