MODEL 1
REMARK VINA RESULT:      -7.9      0.000      0.000
REMARK  Name = 
REMARK  11 active torsions:
REMARK  status: ('A' for Active; 'I' for Inactive)
REMARK    1  A    between atoms: C_2  and  C_3
REMARK    2  A    between atoms: C_6  and  S_7
REMARK    3  A    between atoms: S_7  and  N_10
REMARK    4  A    between atoms: N_10  and  C_11
REMARK    5  A    between atoms: C_11  and  C_12
REMARK    6  A    between atoms: C_12  and  N_13
REMARK    7  A    between atoms: N_17  and  C_18
REMARK    8  A    between atoms: C_18  and  C_19
REMARK    9  A    between atoms: C_19  and  C_20
REMARK   10  A    between atoms: C_20  and  O_21
REMARK   11  A    between atoms: O_21  and  C_22
REMARK                            x       y       z     vdW  Elec       q    Type
REMARK                         _______ _______ _______ _____ _____    ______ ____
ROOT
ATOM      1  N   UNL     1       3.751   3.225  19.127  0.00  0.00    +0.000 NA
ATOM      2  C   UNL     1       3.065   3.389  20.405  0.00  0.00    +0.000 C 
ATOM      3  C   UNL     1       1.908   4.408  20.430  0.00  0.00    +0.000 C 
ATOM      4  C   UNL     1       2.309   5.894  20.482  0.00  0.00    +0.000 C 
ATOM      5  N   UNL     1       2.566   6.618  19.217  0.00  0.00    +0.000 NA
ATOM      6  C   UNL     1       2.123   5.904  18.000  0.00  0.00    +0.000 C 
ATOM      7  C   UNL     1       1.746   4.416  18.105  0.00  0.00    +0.000 C 
ATOM      8  C   UNL     1       2.922   3.434  17.952  0.00  0.00    +0.000 C 
ATOM      9  O   UNL     1       1.020   4.175  19.322  0.00  0.00    +0.000 OA
ENDROOT
BRANCH   1  10
ATOM     10  C   UNL     1       5.132   3.645  19.054  0.00  0.00    +0.000 C 
BRANCH  10  11
ATOM     11  C   UNL     1       5.445   5.122  19.310  0.00  0.00    +0.000 C 
BRANCH  11  12
ATOM     12  N   UNL     1       5.547   5.908  18.062  0.00  0.00    +0.000 NA
ATOM     13  H   UNL     1       4.756   5.767  17.438  0.00  0.00    +0.000 HD
BRANCH  12  14
ATOM     14  S   UNL     1       7.035   5.883  17.251  0.00  0.00    +0.000 S 
ATOM     15  O   UNL     1       7.954   5.029  17.983  0.00  0.00    +0.000 OA
ATOM     16  O   UNL     1       7.360   7.244  16.896  0.00  0.00    +0.000 OA
BRANCH  14  20
ATOM     17  C   UNL     1       5.830   3.795  13.381  0.00  0.00    +0.000 A 
ATOM     18  C   UNL     1       5.015   3.712  14.518  0.00  0.00    +0.000 A 
ATOM     19  C   UNL     1       5.393   4.348  15.696  0.00  0.00    +0.000 A 
ATOM     20  C   UNL     1       6.593   5.070  15.732  0.00  0.00    +0.000 A 
ATOM     21  C   UNL     1       7.418   5.152  14.606  0.00  0.00    +0.000 A 
ATOM     22  C   UNL     1       7.037   4.507  13.430  0.00  0.00    +0.000 A 
BRANCH  17  24
ATOM     23  N   UNL     1       5.085   2.665  11.176  0.00  0.00    +0.000 NA
ATOM     24  C   UNL     1       5.415   3.169  12.163  0.00  0.00    +0.000 C 
ENDBRANCH  17  24
ENDBRANCH  14  20
ENDBRANCH  12  14
ENDBRANCH  11  12
ENDBRANCH  10  11
ENDBRANCH   1  10
BRANCH   5  25
ATOM     25  C   UNL     1       1.924   7.955  19.247  0.00  0.00    +0.000 C 
BRANCH  25  26
ATOM     26  C   UNL     1       1.937   8.707  17.918  0.00  0.00    +0.000 C 
BRANCH  26  27
ATOM     27  C   UNL     1       1.225  10.041  18.034  0.00  0.00    +0.000 C 
BRANCH  27  28
ATOM     28  O   UNL     1       0.127   9.877  18.929  0.00  0.00    +0.000 OA
BRANCH  28  29
ATOM     29  C   UNL     1      -1.067  10.380  18.487  0.00  0.00    +0.000 A 
ATOM     30  C   UNL     1      -1.802  11.389  19.110  0.00  0.00    +0.000 A 
ATOM     31  C   UNL     1      -3.005  11.838  18.554  0.00  0.00    +0.000 A 
ATOM     32  C   UNL     1      -3.471  11.267  17.374  0.00  0.00    +0.000 A 
ATOM     33  C   UNL     1      -2.739  10.252  16.765  0.00  0.00    +0.000 A 
ATOM     34  F   UNL     1      -3.195   9.704  15.632  0.00  0.00    +0.000 F 
ATOM     35  C   UNL     1      -1.545   9.803  17.310  0.00  0.00    +0.000 A 
ENDBRANCH  28  29
ENDBRANCH  27  28
ENDBRANCH  26  27
ENDBRANCH  25  26
ENDBRANCH   5  25
TORSDOF 11
ENDMDL
MODEL 2
REMARK VINA RESULT:      -7.7      0.519      1.004
REMARK  Name = 
REMARK  11 active torsions:
REMARK  status: ('A' for Active; 'I' for Inactive)
REMARK    1  A    between atoms: C_2  and  C_3
REMARK    2  A    between atoms: C_6  and  S_7
REMARK    3  A    between atoms: S_7  and  N_10
REMARK    4  A    between atoms: N_10  and  C_11
REMARK    5  A    between atoms: C_11  and  C_12
REMARK    6  A    between atoms: C_12  and  N_13
REMARK    7  A    between atoms: N_17  and  C_18
REMARK    8  A    between atoms: C_18  and  C_19
REMARK    9  A    between atoms: C_19  and  C_20
REMARK   10  A    between atoms: C_20  and  O_21
REMARK   11  A    between atoms: O_21  and  C_22
REMARK                            x       y       z     vdW  Elec       q    Type
REMARK                         _______ _______ _______ _____ _____    ______ ____
ROOT
ATOM      1  N   UNL     1       3.669   3.342  19.520  0.00  0.00    +0.000 NA
ATOM      2  C   UNL     1       3.136   4.052  20.679  0.00  0.00    +0.000 C 
ATOM      3  C   UNL     1       2.094   5.149  20.385  0.00  0.00    +0.000 C 
ATOM      4  C   UNL     1       2.644   6.486  19.850  0.00  0.00    +0.000 C 
ATOM      5  N   UNL     1       2.842   6.654  18.393  0.00  0.00    +0.000 NA
ATOM      6  C   UNL     1       2.209   5.608  17.562  0.00  0.00    +0.000 C 
ATOM      7  C   UNL     1       1.699   4.325  18.241  0.00  0.00    +0.000 C 
ATOM      8  C   UNL     1       2.751   3.212  18.402  0.00  0.00    +0.000 C 
ATOM      9  O   UNL     1       1.080   4.643  19.498  0.00  0.00    +0.000 OA
ENDROOT
BRANCH   1  10
ATOM     10  C   UNL     1       5.071   3.523  19.216  0.00  0.00    +0.000 C 
BRANCH  10  11
ATOM     11  C   UNL     1       5.680   4.908  19.449  0.00  0.00    +0.000 C 
BRANCH  11  12
ATOM     12  N   UNL     1       5.780   5.705  18.208  0.00  0.00    +0.000 NA
ATOM     13  H   UNL     1       4.932   5.671  17.645  0.00  0.00    +0.000 HD
BRANCH  12  14
ATOM     14  S   UNL     1       7.188   5.523  17.283  0.00  0.00    +0.000 S 
ATOM     15  O   UNL     1       8.033   4.521  17.907  0.00  0.00    +0.000 OA
ATOM     16  O   UNL     1       7.667   6.844  16.956  0.00  0.00    +0.000 OA
BRANCH  14  20
ATOM     17  C   UNL     1       5.579   3.791  13.384  0.00  0.00    +0.000 A 
ATOM     18  C   UNL     1       6.878   4.313  13.448  0.00  0.00    +0.000 A 
ATOM     19  C   UNL     1       7.358   4.844  14.641  0.00  0.00    +0.000 A 
ATOM     20  C   UNL     1       6.532   4.850  15.772  0.00  0.00    +0.000 A 
ATOM     21  C   UNL     1       5.231   4.340  15.716  0.00  0.00    +0.000 A 
ATOM     22  C   UNL     1       4.753   3.815  14.516  0.00  0.00    +0.000 A 
BRANCH  17  24
ATOM     23  N   UNL     1       4.719   2.748  11.177  0.00  0.00    +0.000 NA
ATOM     24  C   UNL     1       5.106   3.213  12.163  0.00  0.00    +0.000 C 
ENDBRANCH  17  24
ENDBRANCH  14  20
ENDBRANCH  12  14
ENDBRANCH  11  12
ENDBRANCH  10  11
ENDBRANCH   1  10
BRANCH   5  25
ATOM     25  C   UNL     1       2.342   7.980  17.955  0.00  0.00    +0.000 C 
BRANCH  25  26
ATOM     26  C   UNL     1       1.482   8.717  18.980  0.00  0.00    +0.000 C 
BRANCH  26  27
ATOM     27  C   UNL     1       1.072  10.085  18.471  0.00  0.00    +0.000 C 
BRANCH  27  28
ATOM     28  O   UNL     1       0.003  10.556  19.289  0.00  0.00    +0.000 OA
BRANCH  28  29
ATOM     29  C   UNL     1      -1.198  10.710  18.650  0.00  0.00    +0.000 A 
ATOM     30  C   UNL     1      -2.250  11.518  19.083  0.00  0.00    +0.000 A 
ATOM     31  C   UNL     1      -3.428  11.613  18.334  0.00  0.00    +0.000 A 
ATOM     32  C   UNL     1      -3.550  10.890  17.152  0.00  0.00    +0.000 A 
ATOM     33  C   UNL     1      -2.502  10.076  16.732  0.00  0.00    +0.000 A 
ATOM     34  F   UNL     1      -2.626   9.380  15.595  0.00  0.00    +0.000 F 
ATOM     35  C   UNL     1      -1.330   9.979  17.469  0.00  0.00    +0.000 A 
ENDBRANCH  28  29
ENDBRANCH  27  28
ENDBRANCH  26  27
ENDBRANCH  25  26
ENDBRANCH   5  25
TORSDOF 11
ENDMDL
MODEL 3
REMARK VINA RESULT:      -7.7      1.495      1.870
REMARK  Name = 
REMARK  11 active torsions:
REMARK  status: ('A' for Active; 'I' for Inactive)
REMARK    1  A    between atoms: C_2  and  C_3
REMARK    2  A    between atoms: C_6  and  S_7
REMARK    3  A    between atoms: S_7  and  N_10
REMARK    4  A    between atoms: N_10  and  C_11
REMARK    5  A    between atoms: C_11  and  C_12
REMARK    6  A    between atoms: C_12  and  N_13
REMARK    7  A    between atoms: N_17  and  C_18
REMARK    8  A    between atoms: C_18  and  C_19
REMARK    9  A    between atoms: C_19  and  C_20
REMARK   10  A    between atoms: C_20  and  O_21
REMARK   11  A    between atoms: O_21  and  C_22
REMARK                            x       y       z     vdW  Elec       q    Type
REMARK                         _______ _______ _______ _____ _____    ______ ____
ROOT
ATOM      1  N   UNL     1       3.032   2.287  19.906  0.00  0.00    +0.000 NA
ATOM      2  C   UNL     1       2.311   2.743  21.090  0.00  0.00    +0.000 C 
ATOM      3  C   UNL     1       1.408   3.978  20.904  0.00  0.00    +0.000 C 
ATOM      4  C   UNL     1       2.121   5.342  20.843  0.00  0.00    +0.000 C 
ATOM      5  N   UNL     1       2.619   5.839  19.541  0.00  0.00    +0.000 NA
ATOM      6  C   UNL     1       2.115   5.095  18.366  0.00  0.00    +0.000 C 
ATOM      7  C   UNL     1       1.414   3.744  18.586  0.00  0.00    +0.000 C 
ATOM      8  C   UNL     1       2.354   2.525  18.644  0.00  0.00    +0.000 C 
ATOM      9  O   UNL     1       0.570   3.807  19.747  0.00  0.00    +0.000 OA
ENDROOT
BRANCH   1  10
ATOM     10  C   UNL     1       4.473   2.395  19.921  0.00  0.00    +0.000 C 
BRANCH  10  11
ATOM     11  C   UNL     1       5.140   3.230  18.824  0.00  0.00    +0.000 C 
BRANCH  11  12
ATOM     12  N   UNL     1       5.651   4.524  19.323  0.00  0.00    +0.000 NA
ATOM     13  H   UNL     1       4.910   5.156  19.618  0.00  0.00    +0.000 HD
BRANCH  12  14
ATOM     14  S   UNL     1       6.840   5.296  18.397  0.00  0.00    +0.000 S 
ATOM     15  O   UNL     1       8.120   4.657  18.650  0.00  0.00    +0.000 OA
ATOM     16  O   UNL     1       6.646   6.719  18.536  0.00  0.00    +0.000 OA
BRANCH  14  20
ATOM     17  C   UNL     1       5.557   4.193  14.162  0.00  0.00    +0.000 A 
ATOM     18  C   UNL     1       6.793   3.763  14.667  0.00  0.00    +0.000 A 
ATOM     19  C   UNL     1       7.178   4.109  15.958  0.00  0.00    +0.000 A 
ATOM     20  C   UNL     1       6.320   4.888  16.745  0.00  0.00    +0.000 A 
ATOM     21  C   UNL     1       5.089   5.329  16.249  0.00  0.00    +0.000 A 
ATOM     22  C   UNL     1       4.711   4.984  14.951  0.00  0.00    +0.000 A 
BRANCH  17  24
ATOM     23  N   UNL     1       4.821   3.488  11.784  0.00  0.00    +0.000 NA
ATOM     24  C   UNL     1       5.153   3.801  12.847  0.00  0.00    +0.000 C 
ENDBRANCH  17  24
ENDBRANCH  14  20
ENDBRANCH  12  14
ENDBRANCH  11  12
ENDBRANCH  10  11
ENDBRANCH   1  10
BRANCH   5  25
ATOM     25  C   UNL     1       2.286   7.275  19.376  0.00  0.00    +0.000 C 
BRANCH  25  26
ATOM     26  C   UNL     1       2.272   7.773  17.932  0.00  0.00    +0.000 C 
BRANCH  26  27
ATOM     27  C   UNL     1       2.154   9.283  17.871  0.00  0.00    +0.000 C 
BRANCH  27  28
ATOM     28  O   UNL     1       1.265   9.697  18.906  0.00  0.00    +0.000 OA
BRANCH  28  29
ATOM     29  C   UNL     1       0.139  10.352  18.482  0.00  0.00    +0.000 A 
ATOM     30  C   UNL     1      -0.924   9.771  17.790  0.00  0.00    +0.000 A 
ATOM     31  C   UNL     1      -2.036  10.538  17.424  0.00  0.00    +0.000 A 
ATOM     32  C   UNL     1      -2.074  11.890  17.748  0.00  0.00    +0.000 A 
ATOM     33  C   UNL     1      -1.005  12.465  18.427  0.00  0.00    +0.000 A 
ATOM     34  F   UNL     1      -1.046  13.768  18.733  0.00  0.00    +0.000 F 
ATOM     35  C   UNL     1       0.100  11.710  18.795  0.00  0.00    +0.000 A 
ENDBRANCH  28  29
ENDBRANCH  27  28
ENDBRANCH  26  27
ENDBRANCH  25  26
ENDBRANCH   5  25
TORSDOF 11
ENDMDL
MODEL 4
REMARK VINA RESULT:      -7.6      4.687      8.900
REMARK  Name = 
REMARK  11 active torsions:
REMARK  status: ('A' for Active; 'I' for Inactive)
REMARK    1  A    between atoms: C_2  and  C_3
REMARK    2  A    between atoms: C_6  and  S_7
REMARK    3  A    between atoms: S_7  and  N_10
REMARK    4  A    between atoms: N_10  and  C_11
REMARK    5  A    between atoms: C_11  and  C_12
REMARK    6  A    between atoms: C_12  and  N_13
REMARK    7  A    between atoms: N_17  and  C_18
REMARK    8  A    between atoms: C_18  and  C_19
REMARK    9  A    between atoms: C_19  and  C_20
REMARK   10  A    between atoms: C_20  and  O_21
REMARK   11  A    between atoms: O_21  and  C_22
REMARK                            x       y       z     vdW  Elec       q    Type
REMARK                         _______ _______ _______ _____ _____    ______ ____
ROOT
ATOM      1  N   UNL     1       2.491   5.226  19.461  0.00  0.00    +0.000 NA
ATOM      2  C   UNL     1       2.367   5.107  18.011  0.00  0.00    +0.000 C 
ATOM      3  C   UNL     1       3.663   4.785  17.241  0.00  0.00    +0.000 C 
ATOM      4  C   UNL     1       4.644   5.956  17.037  0.00  0.00    +0.000 C 
ATOM      5  N   UNL     1       5.651   6.245  18.082  0.00  0.00    +0.000 NA
ATOM      6  C   UNL     1       5.803   5.182  19.100  0.00  0.00    +0.000 C 
ATOM      7  C   UNL     1       4.742   4.070  19.178  0.00  0.00    +0.000 C 
ATOM      8  C   UNL     1       3.522   4.396  20.059  0.00  0.00    +0.000 C 
ATOM      9  O   UNL     1       4.340   3.675  17.856  0.00  0.00    +0.000 OA
ENDROOT
BRANCH   1  10
ATOM     10  C   UNL     1       2.257   6.527  20.044  0.00  0.00    +0.000 C 
BRANCH  10  11
ATOM     11  C   UNL     1       2.196   7.733  19.103  0.00  0.00    +0.000 C 
BRANCH  11  12
ATOM     12  N   UNL     1       1.288   8.793  19.590  0.00  0.00    +0.000 NA
ATOM     13  H   UNL     1       0.350   8.452  19.786  0.00  0.00    +0.000 HD
BRANCH  12  14
ATOM     14  S   UNL     1       1.289  10.261  18.745  0.00  0.00    +0.000 S 
ATOM     15  O   UNL     1       1.961  10.070  17.472  0.00  0.00    +0.000 OA
ATOM     16  O   UNL     1       1.672  11.297  19.674  0.00  0.00    +0.000 OA
BRANCH  14  20
ATOM     17  C   UNL     1      -3.160  10.922  18.000  0.00  0.00    +0.000 A 
ATOM     18  C   UNL     1      -2.489  11.649  18.993  0.00  0.00    +0.000 A 
ATOM     19  C   UNL     1      -1.133  11.437  19.217  0.00  0.00    +0.000 A 
ATOM     20  C   UNL     1      -0.448  10.492  18.440  0.00  0.00    +0.000 A 
ATOM     21  C   UNL     1      -1.110   9.756  17.454  0.00  0.00    +0.000 A 
ATOM     22  C   UNL     1      -2.472   9.968  17.238  0.00  0.00    +0.000 A 
BRANCH  17  24
ATOM     23  N   UNL     1      -5.668  11.371  17.548  0.00  0.00    +0.000 NA
ATOM     24  C   UNL     1      -4.547  11.174  17.752  0.00  0.00    +0.000 C 
ENDBRANCH  17  24
ENDBRANCH  14  20
ENDBRANCH  12  14
ENDBRANCH  11  12
ENDBRANCH  10  11
ENDBRANCH   1  10
BRANCH   5  25
ATOM     25  C   UNL     1       6.974   6.507  17.465  0.00  0.00    +0.000 C 
BRANCH  25  26
ATOM     26  C   UNL     1       7.934   7.329  18.322  0.00  0.00    +0.000 C 
BRANCH  26  27
ATOM     27  C   UNL     1       8.078   8.740  17.788  0.00  0.00    +0.000 C 
BRANCH  27  28
ATOM     28  O   UNL     1       8.812   9.501  18.745  0.00  0.00    +0.000 OA
BRANCH  28  29
ATOM     29  C   UNL     1       9.265  10.715  18.304  0.00  0.00    +0.000 A 
ATOM     30  C   UNL     1      10.604  11.064  18.122  0.00  0.00    +0.000 A 
ATOM     31  C   UNL     1      10.949  12.333  17.645  0.00  0.00    +0.000 A 
ATOM     32  C   UNL     1       9.947  13.253  17.356  0.00  0.00    +0.000 A 
ATOM     33  C   UNL     1       8.614  12.903  17.551  0.00  0.00    +0.000 A 
ATOM     34  F   UNL     1       7.653  13.795  17.275  0.00  0.00    +0.000 F 
ATOM     35  C   UNL     1       8.265  11.646  18.022  0.00  0.00    +0.000 A 
ENDBRANCH  28  29
ENDBRANCH  27  28
ENDBRANCH  26  27
ENDBRANCH  25  26
ENDBRANCH   5  25
TORSDOF 11
ENDMDL
MODEL 5
REMARK VINA RESULT:      -7.4      5.281      9.807
REMARK  Name = 
REMARK  11 active torsions:
REMARK  status: ('A' for Active; 'I' for Inactive)
REMARK    1  A    between atoms: C_2  and  C_3
REMARK    2  A    between atoms: C_6  and  S_7
REMARK    3  A    between atoms: S_7  and  N_10
REMARK    4  A    between atoms: N_10  and  C_11
REMARK    5  A    between atoms: C_11  and  C_12
REMARK    6  A    between atoms: C_12  and  N_13
REMARK    7  A    between atoms: N_17  and  C_18
REMARK    8  A    between atoms: C_18  and  C_19
REMARK    9  A    between atoms: C_19  and  C_20
REMARK   10  A    between atoms: C_20  and  O_21
REMARK   11  A    between atoms: O_21  and  C_22
REMARK                            x       y       z     vdW  Elec       q    Type
REMARK                         _______ _______ _______ _____ _____    ______ ____
ROOT
ATOM      1  N   UNL     1       2.749   5.205  19.133  0.00  0.00    +0.000 NA
ATOM      2  C   UNL     1       2.848   5.230  17.677  0.00  0.00    +0.000 C 
ATOM      3  C   UNL     1       4.247   4.966  17.086  0.00  0.00    +0.000 C 
ATOM      4  C   UNL     1       5.247   6.136  17.150  0.00  0.00    +0.000 C 
ATOM      5  N   UNL     1       6.082   6.307  18.360  0.00  0.00    +0.000 NA
ATOM      6  C   UNL     1       6.076   5.148  19.279  0.00  0.00    +0.000 C 
ATOM      7  C   UNL     1       5.017   4.049  19.085  0.00  0.00    +0.000 C 
ATOM      8  C   UNL     1       3.676   4.306  19.797  0.00  0.00    +0.000 C 
ATOM      9  O   UNL     1       4.823   3.791  17.685  0.00  0.00    +0.000 OA
ENDROOT
BRANCH   1  10
ATOM     10  C   UNL     1       2.428   6.446  19.800  0.00  0.00    +0.000 C 
BRANCH  10  11
ATOM     11  C   UNL     1       2.204   7.687  18.932  0.00  0.00    +0.000 C 
BRANCH  11  12
ATOM     12  N   UNL     1       1.417   8.732  19.620  0.00  0.00    +0.000 NA
ATOM     13  H   UNL     1       0.652   8.353  20.174  0.00  0.00    +0.000 HD
BRANCH  12  14
ATOM     14  S   UNL     1       0.959  10.084  18.708  0.00  0.00    +0.000 S 
ATOM     15  O   UNL     1      -0.199   9.735  17.902  0.00  0.00    +0.000 OA
ATOM     16  O   UNL     1       2.156  10.651  18.137  0.00  0.00    +0.000 OA
BRANCH  14  20
ATOM     17  C   UNL     1      -0.384  12.912  22.023  0.00  0.00    +0.000 A 
ATOM     18  C   UNL     1      -0.794  11.571  22.021  0.00  0.00    +0.000 A 
ATOM     19  C   UNL     1      -0.384  10.718  21.003  0.00  0.00    +0.000 A 
ATOM     20  C   UNL     1       0.442  11.211  19.984  0.00  0.00    +0.000 A 
ATOM     21  C   UNL     1       0.850  12.548  19.972  0.00  0.00    +0.000 A 
ATOM     22  C   UNL     1       0.429  13.401  20.992  0.00  0.00    +0.000 A 
BRANCH  17  24
ATOM     23  N   UNL     1      -1.103  14.465  23.963  0.00  0.00    +0.000 NA
ATOM     24  C   UNL     1      -0.780  13.773  23.095  0.00  0.00    +0.000 C 
ENDBRANCH  17  24
ENDBRANCH  14  20
ENDBRANCH  12  14
ENDBRANCH  11  12
ENDBRANCH  10  11
ENDBRANCH   1  10
BRANCH   5  25
ATOM     25  C   UNL     1       7.484   6.609  17.980  0.00  0.00    +0.000 C 
BRANCH  25  26
ATOM     26  C   UNL     1       7.706   7.998  17.386  0.00  0.00    +0.000 C 
BRANCH  26  27
ATOM     27  C   UNL     1       8.316   8.941  18.405  0.00  0.00    +0.000 C 
BRANCH  27  28
ATOM     28  O   UNL     1       8.853  10.060  17.704  0.00  0.00    +0.000 OA
BRANCH  28  29
ATOM     29  C   UNL     1       9.714  10.844  18.425  0.00  0.00    +0.000 A 
ATOM     30  C   UNL     1      10.817  11.524  17.908  0.00  0.00    +0.000 A 
ATOM     31  C   UNL     1      11.618  12.314  18.740  0.00  0.00    +0.000 A 
ATOM     32  C   UNL     1      11.312  12.415  20.093  0.00  0.00    +0.000 A 
ATOM     33  C   UNL     1      10.217  11.725  20.604  0.00  0.00    +0.000 A 
ATOM     34  F   UNL     1       9.929  11.823  21.908  0.00  0.00    +0.000 F 
ATOM     35  C   UNL     1       9.418  10.940  19.784  0.00  0.00    +0.000 A 
ENDBRANCH  28  29
ENDBRANCH  27  28
ENDBRANCH  26  27
ENDBRANCH  25  26
ENDBRANCH   5  25
TORSDOF 11
ENDMDL
MODEL 6
REMARK VINA RESULT:      -7.3      5.384      8.477
REMARK  Name = 
REMARK  11 active torsions:
REMARK  status: ('A' for Active; 'I' for Inactive)
REMARK    1  A    between atoms: C_2  and  C_3
REMARK    2  A    between atoms: C_6  and  S_7
REMARK    3  A    between atoms: S_7  and  N_10
REMARK    4  A    between atoms: N_10  and  C_11
REMARK    5  A    between atoms: C_11  and  C_12
REMARK    6  A    between atoms: C_12  and  N_13
REMARK    7  A    between atoms: N_17  and  C_18
REMARK    8  A    between atoms: C_18  and  C_19
REMARK    9  A    between atoms: C_19  and  C_20
REMARK   10  A    between atoms: C_20  and  O_21
REMARK   11  A    between atoms: O_21  and  C_22
REMARK                            x       y       z     vdW  Elec       q    Type
REMARK                         _______ _______ _______ _____ _____    ______ ____
ROOT
ATOM      1  N   UNL     1       7.487   6.570  17.549  0.00  0.00    +0.000 NA
ATOM      2  C   UNL     1       7.405   5.883  18.835  0.00  0.00    +0.000 C 
ATOM      3  C   UNL     1       6.146   5.025  19.069  0.00  0.00    +0.000 C 
ATOM      4  C   UNL     1       4.856   5.789  19.423  0.00  0.00    +0.000 C 
ATOM      5  N   UNL     1       3.989   6.288  18.332  0.00  0.00    +0.000 NA
ATOM      6  C   UNL     1       4.308   5.741  16.995  0.00  0.00    +0.000 C 
ATOM      7  C   UNL     1       5.636   4.992  16.795  0.00  0.00    +0.000 C 
ATOM      8  C   UNL     1       6.841   5.885  16.443  0.00  0.00    +0.000 C 
ATOM      9  O   UNL     1       5.916   4.166  17.938  0.00  0.00    +0.000 OA
ENDROOT
BRANCH   1  10
ATOM     10  C   UNL     1       7.436   8.014  17.562  0.00  0.00    +0.000 C 
BRANCH  10  11
ATOM     11  C   UNL     1       8.477   8.759  18.403  0.00  0.00    +0.000 C 
BRANCH  11  12
ATOM     12  N   UNL     1       8.629  10.173  18.001  0.00  0.00    +0.000 NA
ATOM     13  H   UNL     1       8.746  10.290  16.996  0.00  0.00    +0.000 HD
BRANCH  12  14
ATOM     14  S   UNL     1       9.707  11.122  18.900  0.00  0.00    +0.000 S 
ATOM     15  O   UNL     1      10.966  11.212  18.181  0.00  0.00    +0.000 OA
ATOM     16  O   UNL     1       9.631  10.684  20.273  0.00  0.00    +0.000 OA
BRANCH  14  20
ATOM     17  C   UNL     1       7.704  15.217  18.817  0.00  0.00    +0.000 A 
ATOM     18  C   UNL     1       8.438  14.807  19.938  0.00  0.00    +0.000 A 
ATOM     19  C   UNL     1       9.041  13.553  19.956  0.00  0.00    +0.000 A 
ATOM     20  C   UNL     1       8.907  12.710  18.845  0.00  0.00    +0.000 A 
ATOM     21  C   UNL     1       8.170  13.107  17.726  0.00  0.00    +0.000 A 
ATOM     22  C   UNL     1       7.562  14.362  17.716  0.00  0.00    +0.000 A 
BRANCH  17  24
ATOM     23  N   UNL     1       6.650  17.580  18.775  0.00  0.00    +0.000 NA
ATOM     24  C   UNL     1       7.119  16.523  18.791  0.00  0.00    +0.000 C 
ENDBRANCH  17  24
ENDBRANCH  14  20
ENDBRANCH  12  14
ENDBRANCH  11  12
ENDBRANCH  10  11
ENDBRANCH   1  10
BRANCH   5  25
ATOM     25  C   UNL     1       2.564   6.008  18.636  0.00  0.00    +0.000 C 
BRANCH  25  26
ATOM     26  C   UNL     1       2.236   5.873  20.121  0.00  0.00    +0.000 C 
BRANCH  26  27
ATOM     27  C   UNL     1       0.911   5.166  20.329  0.00  0.00    +0.000 C 
BRANCH  27  28
ATOM     28  O   UNL     1       1.185   3.844  20.789  0.00  0.00    +0.000 OA
BRANCH  28  29
ATOM     29  C   UNL     1       1.929   3.072  19.938  0.00  0.00    +0.000 A 
ATOM     30  C   UNL     1       1.561   2.706  18.643  0.00  0.00    +0.000 A 
ATOM     31  C   UNL     1       2.415   1.926  17.855  0.00  0.00    +0.000 A 
ATOM     32  C   UNL     1       3.637   1.511  18.372  0.00  0.00    +0.000 A 
ATOM     33  C   UNL     1       3.993   1.869  19.669  0.00  0.00    +0.000 A 
ATOM     34  F   UNL     1       5.170   1.463  20.163  0.00  0.00    +0.000 F 
ATOM     35  C   UNL     1       3.152   2.643  20.455  0.00  0.00    +0.000 A 
ENDBRANCH  28  29
ENDBRANCH  27  28
ENDBRANCH  26  27
ENDBRANCH  25  26
ENDBRANCH   5  25
TORSDOF 11
ENDMDL
MODEL 7
REMARK VINA RESULT:      -7.3      3.516      8.524
REMARK  Name = 
REMARK  11 active torsions:
REMARK  status: ('A' for Active; 'I' for Inactive)
REMARK    1  A    between atoms: C_2  and  C_3
REMARK    2  A    between atoms: C_6  and  S_7
REMARK    3  A    between atoms: S_7  and  N_10
REMARK    4  A    between atoms: N_10  and  C_11
REMARK    5  A    between atoms: C_11  and  C_12
REMARK    6  A    between atoms: C_12  and  N_13
REMARK    7  A    between atoms: N_17  and  C_18
REMARK    8  A    between atoms: C_18  and  C_19
REMARK    9  A    between atoms: C_19  and  C_20
REMARK   10  A    between atoms: C_20  and  O_21
REMARK   11  A    between atoms: O_21  and  C_22
REMARK                            x       y       z     vdW  Elec       q    Type
REMARK                         _______ _______ _______ _____ _____    ______ ____
ROOT
ATOM      1  N   UNL     1       1.555   5.057  20.534  0.00  0.00    +0.000 NA
ATOM      2  C   UNL     1       0.740   4.261  19.621  0.00  0.00    +0.000 C 
ATOM      3  C   UNL     1       1.463   3.114  18.888  0.00  0.00    +0.000 C 
ATOM      4  C   UNL     1       2.355   3.520  17.698  0.00  0.00    +0.000 C 
ATOM      5  N   UNL     1       3.765   3.895  17.947  0.00  0.00    +0.000 NA
ATOM      6  C   UNL     1       4.261   3.557  19.299  0.00  0.00    +0.000 C 
ATOM      7  C   UNL     1       3.247   3.161  20.386  0.00  0.00    +0.000 C 
ATOM      8  C   UNL     1       2.643   4.339  21.173  0.00  0.00    +0.000 C 
ATOM      9  O   UNL     1       2.220   2.327  19.825  0.00  0.00    +0.000 OA
ENDROOT
BRANCH   1  10
ATOM     10  C   UNL     1       1.780   6.442  20.188  0.00  0.00    +0.000 C 
BRANCH  10  11
ATOM     11  C   UNL     1       1.283   7.513  21.162  0.00  0.00    +0.000 C 
BRANCH  11  12
ATOM     12  N   UNL     1       1.463   8.886  20.643  0.00  0.00    +0.000 NA
ATOM     13  H   UNL     1       2.431   9.197  20.673  0.00  0.00    +0.000 HD
BRANCH  12  14
ATOM     14  S   UNL     1       0.377  10.068  21.187  0.00  0.00    +0.000 S 
ATOM     15  O   UNL     1       1.122  11.266  21.532  0.00  0.00    +0.000 OA
ATOM     16  O   UNL     1      -0.534   9.432  22.108  0.00  0.00    +0.000 OA
BRANCH  14  20
ATOM     17  C   UNL     1      -2.005  10.823  17.373  0.00  0.00    +0.000 A 
ATOM     18  C   UNL     1      -0.969   9.879  17.390  0.00  0.00    +0.000 A 
ATOM     19  C   UNL     1      -0.244   9.660  18.557  0.00  0.00    +0.000 A 
ATOM     20  C   UNL     1      -0.562  10.389  19.710  0.00  0.00    +0.000 A 
ATOM     21  C   UNL     1      -1.587  11.339  19.702  0.00  0.00    +0.000 A 
ATOM     22  C   UNL     1      -2.306  11.560  18.527  0.00  0.00    +0.000 A 
BRANCH  17  24
ATOM     23  N   UNL     1      -3.382  11.174  15.211  0.00  0.00    +0.000 NA
ATOM     24  C   UNL     1      -2.769  11.016  16.179  0.00  0.00    +0.000 C 
ENDBRANCH  17  24
ENDBRANCH  14  20
ENDBRANCH  12  14
ENDBRANCH  11  12
ENDBRANCH  10  11
ENDBRANCH   1  10
BRANCH   5  25
ATOM     25  C   UNL     1       4.652   3.262  16.940  0.00  0.00    +0.000 C 
BRANCH  25  26
ATOM     26  C   UNL     1       4.937   4.115  15.706  0.00  0.00    +0.000 C 
BRANCH  26  27
ATOM     27  C   UNL     1       4.957   5.591  16.050  0.00  0.00    +0.000 C 
BRANCH  27  28
ATOM     28  O   UNL     1       6.286   6.070  15.855  0.00  0.00    +0.000 OA
BRANCH  28  29
ATOM     29  C   UNL     1       6.987   6.332  17.002  0.00  0.00    +0.000 A 
ATOM     30  C   UNL     1       7.250   5.414  18.019  0.00  0.00    +0.000 A 
ATOM     31  C   UNL     1       7.997   5.791  19.141  0.00  0.00    +0.000 A 
ATOM     32  C   UNL     1       8.473   7.093  19.242  0.00  0.00    +0.000 A 
ATOM     33  C   UNL     1       8.196   8.008  18.230  0.00  0.00    +0.000 A 
ATOM     34  F   UNL     1       8.655   9.262  18.335  0.00  0.00    +0.000 F 
ATOM     35  C   UNL     1       7.458   7.640  17.114  0.00  0.00    +0.000 A 
ENDBRANCH  28  29
ENDBRANCH  27  28
ENDBRANCH  26  27
ENDBRANCH  25  26
ENDBRANCH   5  25
TORSDOF 11
ENDMDL
MODEL 8
REMARK VINA RESULT:      -7.3      5.181      9.152
REMARK  Name = 
REMARK  11 active torsions:
REMARK  status: ('A' for Active; 'I' for Inactive)
REMARK    1  A    between atoms: C_2  and  C_3
REMARK    2  A    between atoms: C_6  and  S_7
REMARK    3  A    between atoms: S_7  and  N_10
REMARK    4  A    between atoms: N_10  and  C_11
REMARK    5  A    between atoms: C_11  and  C_12
REMARK    6  A    between atoms: C_12  and  N_13
REMARK    7  A    between atoms: N_17  and  C_18
REMARK    8  A    between atoms: C_18  and  C_19
REMARK    9  A    between atoms: C_19  and  C_20
REMARK   10  A    between atoms: C_20  and  O_21
REMARK   11  A    between atoms: O_21  and  C_22
REMARK                            x       y       z     vdW  Elec       q    Type
REMARK                         _______ _______ _______ _____ _____    ______ ____
ROOT
ATOM      1  N   UNL     1       2.679   5.391  19.145  0.00  0.00    +0.000 NA
ATOM      2  C   UNL     1       2.817   5.506  17.696  0.00  0.00    +0.000 C 
ATOM      3  C   UNL     1       4.209   5.185  17.117  0.00  0.00    +0.000 C 
ATOM      4  C   UNL     1       5.285   6.275  17.282  0.00  0.00    +0.000 C 
ATOM      5  N   UNL     1       6.099   6.306  18.518  0.00  0.00    +0.000 NA
ATOM      6  C   UNL     1       5.991   5.092  19.355  0.00  0.00    +0.000 C 
ATOM      7  C   UNL     1       4.864   4.085  19.065  0.00  0.00    +0.000 C 
ATOM      8  C   UNL     1       3.526   4.387  19.766  0.00  0.00    +0.000 C 
ATOM      9  O   UNL     1       4.688   3.935  17.647  0.00  0.00    +0.000 OA
ENDROOT
BRANCH   1  10
ATOM     10  C   UNL     1       2.427   6.605  19.888  0.00  0.00    +0.000 C 
BRANCH  10  11
ATOM     11  C   UNL     1       2.128   7.880  19.095  0.00  0.00    +0.000 C 
BRANCH  11  12
ATOM     12  N   UNL     1       1.594   8.968  19.942  0.00  0.00    +0.000 NA
ATOM     13  H   UNL     1       1.312   8.649  20.866  0.00  0.00    +0.000 HD
BRANCH  12  14
ATOM     14  S   UNL     1       0.465  10.015  19.237  0.00  0.00    +0.000 S 
ATOM     15  O   UNL     1      -0.696  10.106  20.104  0.00  0.00    +0.000 OA
ATOM     16  O   UNL     1       0.362   9.668  17.840  0.00  0.00    +0.000 OA
BRANCH  14  20
ATOM     17  C   UNL     1       2.693  13.987  19.464  0.00  0.00    +0.000 A 
ATOM     18  C   UNL     1       1.857  13.579  20.512  0.00  0.00    +0.000 A 
ATOM     19  C   UNL     1       1.177  12.368  20.431  0.00  0.00    +0.000 A 
ATOM     20  C   UNL     1       1.339  11.564  19.295  0.00  0.00    +0.000 A 
ATOM     21  C   UNL     1       2.163  11.966  18.240  0.00  0.00    +0.000 A 
ATOM     22  C   UNL     1       2.837  13.185  18.324  0.00  0.00    +0.000 A 
BRANCH  17  24
ATOM     23  N   UNL     1       3.998  16.213  19.661  0.00  0.00    +0.000 NA
ATOM     24  C   UNL     1       3.417  15.216  19.571  0.00  0.00    +0.000 C 
ENDBRANCH  17  24
ENDBRANCH  14  20
ENDBRANCH  12  14
ENDBRANCH  11  12
ENDBRANCH  10  11
ENDBRANCH   1  10
BRANCH   5  25
ATOM     25  C   UNL     1       7.527   6.534  18.189  0.00  0.00    +0.000 C 
BRANCH  25  26
ATOM     26  C   UNL     1       7.786   7.642  17.170  0.00  0.00    +0.000 C 
BRANCH  26  27
ATOM     27  C   UNL     1       7.782   9.007  17.828  0.00  0.00    +0.000 C 
BRANCH  27  28
ATOM     28  O   UNL     1       8.795   9.015  18.831  0.00  0.00    +0.000 OA
BRANCH  28  29
ATOM     29  C   UNL     1       9.296  10.250  19.147  0.00  0.00    +0.000 A 
ATOM     30  C   UNL     1       9.556  10.714  20.436  0.00  0.00    +0.000 A 
ATOM     31  C   UNL     1      10.088  11.993  20.637  0.00  0.00    +0.000 A 
ATOM     32  C   UNL     1      10.353  12.806  19.540  0.00  0.00    +0.000 A 
ATOM     33  C   UNL     1      10.079  12.341  18.257  0.00  0.00    +0.000 A 
ATOM     34  F   UNL     1      10.333  13.130  17.205  0.00  0.00    +0.000 F 
ATOM     35  C   UNL     1       9.553  11.074  18.051  0.00  0.00    +0.000 A 
ENDBRANCH  28  29
ENDBRANCH  27  28
ENDBRANCH  26  27
ENDBRANCH  25  26
ENDBRANCH   5  25
TORSDOF 11
ENDMDL
MODEL 9
REMARK VINA RESULT:      -7.2      5.181      8.509
REMARK  Name = 
REMARK  11 active torsions:
REMARK  status: ('A' for Active; 'I' for Inactive)
REMARK    1  A    between atoms: C_2  and  C_3
REMARK    2  A    between atoms: C_6  and  S_7
REMARK    3  A    between atoms: S_7  and  N_10
REMARK    4  A    between atoms: N_10  and  C_11
REMARK    5  A    between atoms: C_11  and  C_12
REMARK    6  A    between atoms: C_12  and  N_13
REMARK    7  A    between atoms: N_17  and  C_18
REMARK    8  A    between atoms: C_18  and  C_19
REMARK    9  A    between atoms: C_19  and  C_20
REMARK   10  A    between atoms: C_20  and  O_21
REMARK   11  A    between atoms: O_21  and  C_22
REMARK                            x       y       z     vdW  Elec       q    Type
REMARK                         _______ _______ _______ _____ _____    ______ ____
ROOT
ATOM      1  N   UNL     1       4.771   3.728  16.586  0.00  0.00    +0.000 NA
ATOM      2  C   UNL     1       4.302   5.074  16.267  0.00  0.00    +0.000 C 
ATOM      3  C   UNL     1       5.385   6.164  16.154  0.00  0.00    +0.000 C 
ATOM      4  C   UNL     1       5.953   6.703  17.481  0.00  0.00    +0.000 C 
ATOM      5  N   UNL     1       7.095   6.007  18.113  0.00  0.00    +0.000 NA
ATOM      6  C   UNL     1       7.771   5.020  17.244  0.00  0.00    +0.000 C 
ATOM      7  C   UNL     1       7.082   4.581  15.940  0.00  0.00    +0.000 C 
ATOM      8  C   UNL     1       6.097   3.406  16.088  0.00  0.00    +0.000 C 
ATOM      9  O   UNL     1       6.456   5.710  15.307  0.00  0.00    +0.000 OA
ENDROOT
BRANCH   1  10
ATOM     10  C   UNL     1       4.383   3.173  17.862  0.00  0.00    +0.000 C 
BRANCH  10  11
ATOM     11  C   UNL     1       3.589   1.864  17.861  0.00  0.00    +0.000 C 
BRANCH  11  12
ATOM     12  N   UNL     1       2.155   2.065  18.156  0.00  0.00    +0.000 NA
ATOM     13  H   UNL     1       1.635   2.436  17.363  0.00  0.00    +0.000 HD
BRANCH  12  14
ATOM     14  S   UNL     1       1.765   2.835  19.613  0.00  0.00    +0.000 S 
ATOM     15  O   UNL     1       2.783   2.517  20.599  0.00  0.00    +0.000 OA
ATOM     16  O   UNL     1       0.359   2.621  19.856  0.00  0.00    +0.000 OA
BRANCH  14  20
ATOM     17  C   UNL     1       2.131   7.216  18.402  0.00  0.00    +0.000 A 
ATOM     18  C   UNL     1       1.516   6.290  17.548  0.00  0.00    +0.000 A 
ATOM     19  C   UNL     1       1.414   4.955  17.924  0.00  0.00    +0.000 A 
ATOM     20  C   UNL     1       1.930   4.548  19.161  0.00  0.00    +0.000 A 
ATOM     21  C   UNL     1       2.552   5.461  20.017  0.00  0.00    +0.000 A 
ATOM     22  C   UNL     1       2.658   6.798  19.632  0.00  0.00    +0.000 A 
BRANCH  17  24
ATOM     23  N   UNL     1       2.254   9.710  17.725  0.00  0.00    +0.000 NA
ATOM     24  C   UNL     1       2.199   8.594  18.024  0.00  0.00    +0.000 C 
ENDBRANCH  17  24
ENDBRANCH  14  20
ENDBRANCH  12  14
ENDBRANCH  11  12
ENDBRANCH  10  11
ENDBRANCH   1  10
BRANCH   5  25
ATOM     25  C   UNL     1       8.099   6.990  18.590  0.00  0.00    +0.000 C 
BRANCH  25  26
ATOM     26  C   UNL     1       8.104   8.321  17.841  0.00  0.00    +0.000 C 
BRANCH  26  27
ATOM     27  C   UNL     1       8.649   9.438  18.709  0.00  0.00    +0.000 C 
BRANCH  27  28
ATOM     28  O   UNL     1       9.090  10.488  17.850  0.00  0.00    +0.000 OA
BRANCH  28  29
ATOM     29  C   UNL     1      10.107  11.259  18.344  0.00  0.00    +0.000 A 
ATOM     30  C   UNL     1      10.581  11.232  19.657  0.00  0.00    +0.000 A 
ATOM     31  C   UNL     1      11.644  12.055  20.045  0.00  0.00    +0.000 A 
ATOM     32  C   UNL     1      12.227  12.909  19.114  0.00  0.00    +0.000 A 
ATOM     33  C   UNL     1      11.742  12.939  17.810  0.00  0.00    +0.000 A 
ATOM     34  F   UNL     1      12.305  13.765  16.919  0.00  0.00    +0.000 F 
ATOM     35  C   UNL     1      10.689  12.124  17.418  0.00  0.00    +0.000 A 
ENDBRANCH  28  29
ENDBRANCH  27  28
ENDBRANCH  26  27
ENDBRANCH  25  26
ENDBRANCH   5  25
TORSDOF 11
ENDMDL
