MODEL 1
REMARK VINA RESULT:      -8.3      0.000      0.000
REMARK  Name = 
REMARK  7 active torsions:
REMARK  status: ('A' for Active; 'I' for Inactive)
REMARK    1  A    between atoms: C_1  and  O_2
REMARK    2  A    between atoms: O_2  and  C_3
REMARK    3  A    between atoms: C_6  and  C_7
REMARK    4  A    between atoms: C_11  and  C_12
REMARK    5  A    between atoms: C_21  and  O_22
REMARK    6  A    between atoms: C_21  and  C_23
REMARK    7  A    between atoms: C_26  and  C_27
REMARK                            x       y       z     vdW  Elec       q    Type
REMARK                         _______ _______ _______ _____ _____    ______ ____
ROOT
ATOM      1  C   UNL     1       1.627  13.110  19.741  0.00  0.00    +0.000 C 
ATOM      2  O   UNL     1       2.674  12.792  20.301  0.00  0.00    +0.000 OA
ATOM      3  N   UNL     1       0.495  12.299  19.705  0.00  0.00    +0.000 N 
ATOM      4  N   UNL     1      -0.543  12.534  18.823  0.00  0.00    +0.000 NA
ATOM      5  C   UNL     1      -1.473  11.672  19.115  0.00  0.00    +0.000 C 
ATOM      6  C   UNL     1      -1.180  10.796  20.293  0.00  0.00    +0.000 C 
ATOM      7  C   UNL     1       0.333  11.008  20.397  0.00  0.00    +0.000 C 
ENDROOT
BRANCH   5   8
ATOM      8  C   UNL     1      -2.716  11.548  18.342  0.00  0.00    +0.000 A 
ATOM      9  C   UNL     1      -3.905  12.055  18.880  0.00  0.00    +0.000 A 
ATOM     10  C   UNL     1      -5.079  12.025  18.125  0.00  0.00    +0.000 A 
ATOM     11  C   UNL     1      -5.069  11.473  16.843  0.00  0.00    +0.000 A 
ATOM     12  C   UNL     1      -3.891  10.933  16.324  0.00  0.00    +0.000 A 
ATOM     13 CL   UNL     1      -3.899  10.237  14.750  0.00  0.00    +0.000 Cl
ATOM     14  C   UNL     1      -2.716  10.969  17.075  0.00  0.00    +0.000 A 
ATOM     15  F   UNL     1      -1.593  10.427  16.578  0.00  0.00    +0.000 F 
ENDBRANCH   5   8
BRANCH   1  19
ATOM     16  C   UNL     1       1.385  17.134  18.162  0.00  0.00    +0.000 A 
ATOM     17  C   UNL     1       2.516  16.341  17.926  0.00  0.00    +0.000 A 
ATOM     18  C   UNL     1       2.590  15.027  18.422  0.00  0.00    +0.000 A 
ATOM     19  C   UNL     1       1.529  14.493  19.166  0.00  0.00    +0.000 A 
ATOM     20  C   UNL     1       0.432  15.313  19.442  0.00  0.00    +0.000 A 
ATOM     21  C   UNL     1       0.349  16.595  18.917  0.00  0.00    +0.000 A 
ATOM     22  F   UNL     1      -0.778  17.280  19.171  0.00  0.00    +0.000 F 
BRANCH  16  24
ATOM     23  C   UNL     1       0.639  18.610  16.457  0.00  0.00    +0.000 C 
ATOM     24  O   UNL     1       1.429  18.393  17.624  0.00  0.00    +0.000 OA
ENDBRANCH  16  24
ENDBRANCH   1  19
BRANCH   7  25
ATOM     25  C   UNL     1       1.074   9.831  19.771  0.00  0.00    +0.000 A 
ATOM     26  C   UNL     1       1.437   9.813  18.412  0.00  0.00    +0.000 A 
ATOM     27  C   UNL     1       2.106   8.717  17.857  0.00  0.00    +0.000 A 
ATOM     28  C   UNL     1       2.425   7.608  18.642  0.00  0.00    +0.000 A 
ATOM     29  C   UNL     1       3.220   6.466  18.083  0.00  0.00    +0.000 C 
ATOM     30  C   UNL     1       2.016   7.587  19.979  0.00  0.00    +0.000 A 
ATOM     31  C   UNL     1       1.348   8.683  20.534  0.00  0.00    +0.000 A 
ENDBRANCH   7  25
BRANCH   7  32
ATOM     32  O   UNL     1       0.636  11.168  21.777  0.00  0.00    +0.000 OA
ATOM     33  H   UNL     1       1.585  10.975  21.851  0.00  0.00    +0.000 HD
ENDBRANCH   7  32
TORSDOF 5
ENDMDL
MODEL 2
REMARK VINA RESULT:      -8.2      0.864      1.195
REMARK  Name = 
REMARK  7 active torsions:
REMARK  status: ('A' for Active; 'I' for Inactive)
REMARK    1  A    between atoms: C_1  and  O_2
REMARK    2  A    between atoms: O_2  and  C_3
REMARK    3  A    between atoms: C_6  and  C_7
REMARK    4  A    between atoms: C_11  and  C_12
REMARK    5  A    between atoms: C_21  and  O_22
REMARK    6  A    between atoms: C_21  and  C_23
REMARK    7  A    between atoms: C_26  and  C_27
REMARK                            x       y       z     vdW  Elec       q    Type
REMARK                         _______ _______ _______ _____ _____    ______ ____
ROOT
ATOM      1  C   UNL     1       1.551  12.946  20.163  0.00  0.00    +0.000 C 
ATOM      2  O   UNL     1       2.570  12.593  20.751  0.00  0.00    +0.000 OA
ATOM      3  N   UNL     1       0.430  12.134  20.007  0.00  0.00    +0.000 N 
ATOM      4  N   UNL     1      -0.563  12.429  19.091  0.00  0.00    +0.000 NA
ATOM      5  C   UNL     1      -1.499  11.542  19.268  0.00  0.00    +0.000 C 
ATOM      6  C   UNL     1      -1.259  10.581  20.391  0.00  0.00    +0.000 C 
ATOM      7  C   UNL     1       0.244  10.794  20.590  0.00  0.00    +0.000 C 
ENDROOT
BRANCH   5   8
ATOM      8  C   UNL     1      -2.699  11.470  18.424  0.00  0.00    +0.000 A 
ATOM      9  C   UNL     1      -3.892  12.036  18.889  0.00  0.00    +0.000 A 
ATOM     10  C   UNL     1      -5.020  12.056  18.065  0.00  0.00    +0.000 A 
ATOM     11  C   UNL     1      -4.961  11.493  16.790  0.00  0.00    +0.000 A 
ATOM     12  C   UNL     1      -3.781  10.894  16.344  0.00  0.00    +0.000 A 
ATOM     13 CL   UNL     1      -3.730  10.186  14.776  0.00  0.00    +0.000 Cl
ATOM     14  C   UNL     1      -2.652  10.882  17.162  0.00  0.00    +0.000 A 
ATOM     15  F   UNL     1      -1.529  10.283  16.736  0.00  0.00    +0.000 F 
ENDBRANCH   5   8
BRANCH   1  19
ATOM     16  C   UNL     1       1.250  17.020  18.729  0.00  0.00    +0.000 A 
ATOM     17  C   UNL     1       0.434  16.569  19.776  0.00  0.00    +0.000 A 
ATOM     18  C   UNL     1       0.543  15.252  20.256  0.00  0.00    +0.000 A 
ATOM     19  C   UNL     1       1.469  14.368  19.688  0.00  0.00    +0.000 A 
ATOM     20  C   UNL     1       2.236  14.813  18.608  0.00  0.00    +0.000 A 
ATOM     21  C   UNL     1       2.152  16.125  18.165  0.00  0.00    +0.000 A 
ATOM     22  F   UNL     1       2.984  16.483  17.173  0.00  0.00    +0.000 F 
BRANCH  16  24
ATOM     23  C   UNL     1       0.341  18.529  17.136  0.00  0.00    +0.000 C 
ATOM     24  O   UNL     1       1.054  18.324  18.354  0.00  0.00    +0.000 OA
ENDBRANCH  16  24
ENDBRANCH   1  19
BRANCH   7  25
ATOM     25  C   UNL     1       1.028   9.671  19.917  0.00  0.00    +0.000 A 
ATOM     26  C   UNL     1       1.393   9.724  18.560  0.00  0.00    +0.000 A 
ATOM     27  C   UNL     1       2.101   8.677  17.960  0.00  0.00    +0.000 A 
ATOM     28  C   UNL     1       2.459   7.547  18.700  0.00  0.00    +0.000 A 
ATOM     29  C   UNL     1       3.295   6.459  18.095  0.00  0.00    +0.000 C 
ATOM     30  C   UNL     1       2.049   7.456  20.033  0.00  0.00    +0.000 A 
ATOM     31  C   UNL     1       1.341   8.503  20.632  0.00  0.00    +0.000 A 
ENDBRANCH   7  25
BRANCH   7  32
ATOM     32  O   UNL     1       0.474  10.851  21.992  0.00  0.00    +0.000 OA
ATOM     33  H   UNL     1       1.202  11.484  22.104  0.00  0.00    +0.000 HD
ENDBRANCH   7  32
TORSDOF 5
ENDMDL
MODEL 3
REMARK VINA RESULT:      -8.1      1.486      1.894
REMARK  Name = 
REMARK  7 active torsions:
REMARK  status: ('A' for Active; 'I' for Inactive)
REMARK    1  A    between atoms: C_1  and  O_2
REMARK    2  A    between atoms: O_2  and  C_3
REMARK    3  A    between atoms: C_6  and  C_7
REMARK    4  A    between atoms: C_11  and  C_12
REMARK    5  A    between atoms: C_21  and  O_22
REMARK    6  A    between atoms: C_21  and  C_23
REMARK    7  A    between atoms: C_26  and  C_27
REMARK                            x       y       z     vdW  Elec       q    Type
REMARK                         _______ _______ _______ _____ _____    ______ ____
ROOT
ATOM      1  C   UNL     1       1.655  12.984  20.115  0.00  0.00    +0.000 C 
ATOM      2  O   UNL     1       2.608  12.622  20.802  0.00  0.00    +0.000 OA
ATOM      3  N   UNL     1       0.511  12.215  19.918  0.00  0.00    +0.000 N 
ATOM      4  N   UNL     1      -0.394  12.498  18.912  0.00  0.00    +0.000 NA
ATOM      5  C   UNL     1      -1.383  11.666  19.064  0.00  0.00    +0.000 C 
ATOM      6  C   UNL     1      -1.277  10.765  20.255  0.00  0.00    +0.000 C 
ATOM      7  C   UNL     1       0.215  10.922  20.560  0.00  0.00    +0.000 C 
ENDROOT
BRANCH   5   8
ATOM      8  C   UNL     1      -2.517  11.597  18.133  0.00  0.00    +0.000 A 
ATOM      9  C   UNL     1      -2.289  11.196  16.811  0.00  0.00    +0.000 A 
ATOM     10  C   UNL     1      -3.365  11.039  15.937  0.00  0.00    +0.000 A 
ATOM     11  C   UNL     1      -4.664  11.302  16.374  0.00  0.00    +0.000 A 
ATOM     12  C   UNL     1      -4.885  11.740  17.682  0.00  0.00    +0.000 A 
ATOM     13 CL   UNL     1      -6.490  12.080  18.201  0.00  0.00    +0.000 Cl
ATOM     14  C   UNL     1      -3.811  11.888  18.560  0.00  0.00    +0.000 A 
ATOM     15  F   UNL     1      -4.030  12.332  19.807  0.00  0.00    +0.000 F 
ENDBRANCH   5   8
BRANCH   1  19
ATOM     16  C   UNL     1       1.657  16.976  18.440  0.00  0.00    +0.000 A 
ATOM     17  C   UNL     1       0.841  16.662  19.535  0.00  0.00    +0.000 A 
ATOM     18  C   UNL     1       0.852  15.371  20.093  0.00  0.00    +0.000 A 
ATOM     19  C   UNL     1       1.680  14.377  19.555  0.00  0.00    +0.000 A 
ATOM     20  C   UNL     1       2.445  14.687  18.429  0.00  0.00    +0.000 A 
ATOM     21  C   UNL     1       2.459  15.973  17.907  0.00  0.00    +0.000 A 
ATOM     22  F   UNL     1       3.285  16.197  16.872  0.00  0.00    +0.000 F 
BRANCH  16  24
ATOM     23  C   UNL     1       0.919  18.450  16.729  0.00  0.00    +0.000 C 
ATOM     24  O   UNL     1       1.561  18.267  17.989  0.00  0.00    +0.000 OA
ENDBRANCH  16  24
ENDBRANCH   1  19
BRANCH   7  25
ATOM     25  C   UNL     1       0.992   9.727  20.016  0.00  0.00    +0.000 A 
ATOM     26  C   UNL     1       1.431   9.665  18.681  0.00  0.00    +0.000 A 
ATOM     27  C   UNL     1       2.131   8.553  18.201  0.00  0.00    +0.000 A 
ATOM     28  C   UNL     1       2.407   7.471  19.040  0.00  0.00    +0.000 A 
ATOM     29  C   UNL     1       3.233   6.314  18.565  0.00  0.00    +0.000 C 
ATOM     30  C   UNL     1       1.923   7.494  20.352  0.00  0.00    +0.000 A 
ATOM     31  C   UNL     1       1.224   8.606  20.832  0.00  0.00    +0.000 A 
ENDBRANCH   7  25
BRANCH   7  32
ATOM     32  O   UNL     1       0.340  11.054  21.970  0.00  0.00    +0.000 OA
ATOM     33  H   UNL     1      -0.561  10.944  22.315  0.00  0.00    +0.000 HD
ENDBRANCH   7  32
TORSDOF 5
ENDMDL
MODEL 4
REMARK VINA RESULT:      -8.0      3.100      5.682
REMARK  Name = 
REMARK  7 active torsions:
REMARK  status: ('A' for Active; 'I' for Inactive)
REMARK    1  A    between atoms: C_1  and  O_2
REMARK    2  A    between atoms: O_2  and  C_3
REMARK    3  A    between atoms: C_6  and  C_7
REMARK    4  A    between atoms: C_11  and  C_12
REMARK    5  A    between atoms: C_21  and  O_22
REMARK    6  A    between atoms: C_21  and  C_23
REMARK    7  A    between atoms: C_26  and  C_27
REMARK                            x       y       z     vdW  Elec       q    Type
REMARK                         _______ _______ _______ _____ _____    ______ ____
ROOT
ATOM      1  C   UNL     1       0.640  14.144  19.446  0.00  0.00    +0.000 C 
ATOM      2  O   UNL     1      -0.172  15.060  19.548  0.00  0.00    +0.000 OA
ATOM      3  N   UNL     1       0.283  12.799  19.386  0.00  0.00    +0.000 N 
ATOM      4  N   UNL     1       1.206  11.789  19.583  0.00  0.00    +0.000 NA
ATOM      5  C   UNL     1       0.578  10.671  19.361  0.00  0.00    +0.000 C 
ATOM      6  C   UNL     1      -0.843  10.819  18.916  0.00  0.00    +0.000 C 
ATOM      7  C   UNL     1      -1.091  12.270  19.335  0.00  0.00    +0.000 C 
ENDROOT
BRANCH   5   8
ATOM      8  C   UNL     1       1.204   9.355  19.548  0.00  0.00    +0.000 A 
ATOM      9  C   UNL     1       0.976   8.657  20.740  0.00  0.00    +0.000 A 
ATOM     10  C   UNL     1       1.489   7.368  20.900  0.00  0.00    +0.000 A 
ATOM     11  C   UNL     1       2.245   6.787  19.881  0.00  0.00    +0.000 A 
ATOM     12  C   UNL     1       2.504   7.502  18.709  0.00  0.00    +0.000 A 
ATOM     13 CL   UNL     1       3.454   6.780  17.469  0.00  0.00    +0.000 Cl
ATOM     14  C   UNL     1       1.984   8.786  18.544  0.00  0.00    +0.000 A 
ATOM     15  F   UNL     1       2.257   9.474  17.425  0.00  0.00    +0.000 F 
ENDBRANCH   5   8
BRANCH   1  19
ATOM     16  C   UNL     1       4.830  15.088  18.898  0.00  0.00    +0.000 A 
ATOM     17  C   UNL     1       3.961  15.033  17.800  0.00  0.00    +0.000 A 
ATOM     18  C   UNL     1       2.596  14.745  17.977  0.00  0.00    +0.000 A 
ATOM     19  C   UNL     1       2.086  14.504  19.259  0.00  0.00    +0.000 A 
ATOM     20  C   UNL     1       2.974  14.505  20.338  0.00  0.00    +0.000 A 
ATOM     21  C   UNL     1       4.312  14.828  20.162  0.00  0.00    +0.000 A 
ATOM     22  F   UNL     1       5.072  14.880  21.268  0.00  0.00    +0.000 F 
BRANCH  16  24
ATOM     23  C   UNL     1       6.819  14.445  17.770  0.00  0.00    +0.000 C 
ATOM     24  O   UNL     1       6.135  15.382  18.599  0.00  0.00    +0.000 OA
ENDBRANCH  16  24
ENDBRANCH   1  19
BRANCH   7  25
ATOM     25  C   UNL     1      -1.860  12.314  20.652  0.00  0.00    +0.000 A 
ATOM     26  C   UNL     1      -1.305  11.847  21.857  0.00  0.00    +0.000 A 
ATOM     27  C   UNL     1      -2.033  11.885  23.051  0.00  0.00    +0.000 A 
ATOM     28  C   UNL     1      -3.336  12.385  23.072  0.00  0.00    +0.000 A 
ATOM     29  C   UNL     1      -4.095  12.516  24.359  0.00  0.00    +0.000 C 
ATOM     30  C   UNL     1      -3.921  12.795  21.870  0.00  0.00    +0.000 A 
ATOM     31  C   UNL     1      -3.193  12.758  20.677  0.00  0.00    +0.000 A 
ENDBRANCH   7  25
BRANCH   7  32
ATOM     32  O   UNL     1      -1.801  12.895  18.273  0.00  0.00    +0.000 OA
ATOM     33  H   UNL     1      -1.128  13.383  17.772  0.00  0.00    +0.000 HD
ENDBRANCH   7  32
TORSDOF 5
ENDMDL
MODEL 5
REMARK VINA RESULT:      -8.0      1.185      1.457
REMARK  Name = 
REMARK  7 active torsions:
REMARK  status: ('A' for Active; 'I' for Inactive)
REMARK    1  A    between atoms: C_1  and  O_2
REMARK    2  A    between atoms: O_2  and  C_3
REMARK    3  A    between atoms: C_6  and  C_7
REMARK    4  A    between atoms: C_11  and  C_12
REMARK    5  A    between atoms: C_21  and  O_22
REMARK    6  A    between atoms: C_21  and  C_23
REMARK    7  A    between atoms: C_26  and  C_27
REMARK                            x       y       z     vdW  Elec       q    Type
REMARK                         _______ _______ _______ _____ _____    ______ ____
ROOT
ATOM      1  C   UNL     1       1.598  13.030  19.962  0.00  0.00    +0.000 C 
ATOM      2  O   UNL     1       2.545  12.698  20.673  0.00  0.00    +0.000 OA
ATOM      3  N   UNL     1       0.465  12.244  19.770  0.00  0.00    +0.000 N 
ATOM      4  N   UNL     1      -0.427  12.488  18.743  0.00  0.00    +0.000 NA
ATOM      5  C   UNL     1      -1.410  11.651  18.905  0.00  0.00    +0.000 C 
ATOM      6  C   UNL     1      -1.312  10.785  20.122  0.00  0.00    +0.000 C 
ATOM      7  C   UNL     1       0.174  10.966  20.444  0.00  0.00    +0.000 C 
ENDROOT
BRANCH   5   8
ATOM      8  C   UNL     1      -2.529  11.543  17.960  0.00  0.00    +0.000 A 
ATOM      9  C   UNL     1      -2.273  11.130  16.646  0.00  0.00    +0.000 A 
ATOM     10  C   UNL     1      -3.334  10.937  15.759  0.00  0.00    +0.000 A 
ATOM     11  C   UNL     1      -4.644  11.176  16.176  0.00  0.00    +0.000 A 
ATOM     12  C   UNL     1      -4.893  11.626  17.474  0.00  0.00    +0.000 A 
ATOM     13 CL   UNL     1      -6.512  11.935  17.967  0.00  0.00    +0.000 Cl
ATOM     14  C   UNL     1      -3.835  11.810  18.364  0.00  0.00    +0.000 A 
ATOM     15  F   UNL     1      -4.081  12.265  19.603  0.00  0.00    +0.000 F 
ENDBRANCH   5   8
BRANCH   1  19
ATOM     16  C   UNL     1       1.714  17.029  18.307  0.00  0.00    +0.000 A 
ATOM     17  C   UNL     1       2.636  16.058  17.894  0.00  0.00    +0.000 A 
ATOM     18  C   UNL     1       2.589  14.754  18.416  0.00  0.00    +0.000 A 
ATOM     19  C   UNL     1       1.617  14.407  19.364  0.00  0.00    +0.000 A 
ATOM     20  C   UNL     1       0.741  15.399  19.810  0.00  0.00    +0.000 A 
ATOM     21  C   UNL     1       0.767  16.674  19.263  0.00  0.00    +0.000 A 
ATOM     22  F   UNL     1      -0.165  17.538  19.697  0.00  0.00    +0.000 F 
BRANCH  16  24
ATOM     23  C   UNL     1       0.859  18.631  16.776  0.00  0.00    +0.000 C 
ATOM     24  O   UNL     1       1.858  18.261  17.724  0.00  0.00    +0.000 OA
ENDBRANCH  16  24
ENDBRANCH   1  19
BRANCH   7  25
ATOM     25  C   UNL     1       0.971   9.765  19.945  0.00  0.00    +0.000 A 
ATOM     26  C   UNL     1       1.433   9.672  18.620  0.00  0.00    +0.000 A 
ATOM     27  C   UNL     1       2.152   8.554  18.182  0.00  0.00    +0.000 A 
ATOM     28  C   UNL     1       2.424   7.498  19.054  0.00  0.00    +0.000 A 
ATOM     29  C   UNL     1       3.269   6.337  18.624  0.00  0.00    +0.000 C 
ATOM     30  C   UNL     1       1.917   7.551  20.356  0.00  0.00    +0.000 A 
ATOM     31  C   UNL     1       1.199   8.668  20.794  0.00  0.00    +0.000 A 
ENDBRANCH   7  25
BRANCH   7  32
ATOM     32  O   UNL     1       0.276  11.138  21.851  0.00  0.00    +0.000 OA
ATOM     33  H   UNL     1       0.736  10.345  22.171  0.00  0.00    +0.000 HD
ENDBRANCH   7  32
TORSDOF 5
ENDMDL
MODEL 6
REMARK VINA RESULT:      -7.9      3.077      5.657
REMARK  Name = 
REMARK  7 active torsions:
REMARK  status: ('A' for Active; 'I' for Inactive)
REMARK    1  A    between atoms: C_1  and  O_2
REMARK    2  A    between atoms: O_2  and  C_3
REMARK    3  A    between atoms: C_6  and  C_7
REMARK    4  A    between atoms: C_11  and  C_12
REMARK    5  A    between atoms: C_21  and  O_22
REMARK    6  A    between atoms: C_21  and  C_23
REMARK    7  A    between atoms: C_26  and  C_27
REMARK                            x       y       z     vdW  Elec       q    Type
REMARK                         _______ _______ _______ _____ _____    ______ ____
ROOT
ATOM      1  C   UNL     1       0.638  14.164  19.733  0.00  0.00    +0.000 C 
ATOM      2  O   UNL     1      -0.167  15.086  19.847  0.00  0.00    +0.000 OA
ATOM      3  N   UNL     1       0.268  12.826  19.627  0.00  0.00    +0.000 N 
ATOM      4  N   UNL     1       1.177  11.801  19.811  0.00  0.00    +0.000 NA
ATOM      5  C   UNL     1       0.542  10.697  19.546  0.00  0.00    +0.000 C 
ATOM      6  C   UNL     1      -0.869  10.873  19.078  0.00  0.00    +0.000 C 
ATOM      7  C   UNL     1      -1.110  12.314  19.536  0.00  0.00    +0.000 C 
ENDROOT
BRANCH   5   8
ATOM      8  C   UNL     1       1.150   9.369  19.705  0.00  0.00    +0.000 A 
ATOM      9  C   UNL     1       0.922   8.653  20.886  0.00  0.00    +0.000 A 
ATOM     10  C   UNL     1       1.418   7.356  21.020  0.00  0.00    +0.000 A 
ATOM     11  C   UNL     1       2.158   6.782  19.985  0.00  0.00    +0.000 A 
ATOM     12  C   UNL     1       2.418   7.512  18.824  0.00  0.00    +0.000 A 
ATOM     13 CL   UNL     1       3.349   6.798  17.565  0.00  0.00    +0.000 Cl
ATOM     14  C   UNL     1       1.915   8.806  18.686  0.00  0.00    +0.000 A 
ATOM     15  F   UNL     1       2.189   9.510  17.576  0.00  0.00    +0.000 F 
ENDBRANCH   5   8
BRANCH   1  19
ATOM     16  C   UNL     1       4.803  15.267  19.309  0.00  0.00    +0.000 A 
ATOM     17  C   UNL     1       4.250  15.042  20.577  0.00  0.00    +0.000 A 
ATOM     18  C   UNL     1       2.902  14.666  20.716  0.00  0.00    +0.000 A 
ATOM     19  C   UNL     1       2.091  14.514  19.584  0.00  0.00    +0.000 A 
ATOM     20  C   UNL     1       2.640  14.797  18.331  0.00  0.00    +0.000 A 
ATOM     21  C   UNL     1       3.980  15.130  18.197  0.00  0.00    +0.000 A 
ATOM     22  F   UNL     1       4.437  15.307  16.946  0.00  0.00    +0.000 F 
BRANCH  16  24
ATOM     23  C   UNL     1       6.412  16.986  18.996  0.00  0.00    +0.000 C 
ATOM     24  O   UNL     1       6.127  15.623  19.302  0.00  0.00    +0.000 OA
ENDBRANCH  16  24
ENDBRANCH   1  19
BRANCH   7  25
ATOM     25  C   UNL     1      -1.902  12.327  20.839  0.00  0.00    +0.000 A 
ATOM     26  C   UNL     1      -1.384  11.797  22.035  0.00  0.00    +0.000 A 
ATOM     27  C   UNL     1      -2.134  11.809  23.216  0.00  0.00    +0.000 A 
ATOM     28  C   UNL     1      -3.423  12.345  23.232  0.00  0.00    +0.000 A 
ATOM     29  C   UNL     1      -4.204  12.445  24.509  0.00  0.00    +0.000 C 
ATOM     30  C   UNL     1      -3.974  12.818  22.037  0.00  0.00    +0.000 A 
ATOM     31  C   UNL     1      -3.223  12.807  20.857  0.00  0.00    +0.000 A 
ENDBRANCH   7  25
BRANCH   7  32
ATOM     32  O   UNL     1      -1.793  12.976  18.479  0.00  0.00    +0.000 OA
ATOM     33  H   UNL     1      -1.129  13.090  17.781  0.00  0.00    +0.000 HD
ENDBRANCH   7  32
TORSDOF 5
ENDMDL
MODEL 7
REMARK VINA RESULT:      -7.8      3.052      5.823
REMARK  Name = 
REMARK  7 active torsions:
REMARK  status: ('A' for Active; 'I' for Inactive)
REMARK    1  A    between atoms: C_1  and  O_2
REMARK    2  A    between atoms: O_2  and  C_3
REMARK    3  A    between atoms: C_6  and  C_7
REMARK    4  A    between atoms: C_11  and  C_12
REMARK    5  A    between atoms: C_21  and  O_22
REMARK    6  A    between atoms: C_21  and  C_23
REMARK    7  A    between atoms: C_26  and  C_27
REMARK                            x       y       z     vdW  Elec       q    Type
REMARK                         _______ _______ _______ _____ _____    ______ ____
ROOT
ATOM      1  C   UNL     1       0.839  14.127  19.013  0.00  0.00    +0.000 C 
ATOM      2  O   UNL     1       0.065  15.066  18.837  0.00  0.00    +0.000 OA
ATOM      3  N   UNL     1       0.461  12.790  18.929  0.00  0.00    +0.000 N 
ATOM      4  N   UNL     1       1.255  11.775  19.428  0.00  0.00    +0.000 NA
ATOM      5  C   UNL     1       0.670  10.659  19.102  0.00  0.00    +0.000 C 
ATOM      6  C   UNL     1      -0.567  10.809  18.273  0.00  0.00    +0.000 C 
ATOM      7  C   UNL     1      -0.865  12.289  18.528  0.00  0.00    +0.000 C 
ENDROOT
BRANCH   5   8
ATOM      8  C   UNL     1       1.169   9.344  19.525  0.00  0.00    +0.000 A 
ATOM      9  C   UNL     1       0.845   8.872  20.803  0.00  0.00    +0.000 A 
ATOM     10  C   UNL     1       1.236   7.589  21.191  0.00  0.00    +0.000 A 
ATOM     11  C   UNL     1       1.966   6.787  20.313  0.00  0.00    +0.000 A 
ATOM     12  C   UNL     1       2.323   7.275  19.054  0.00  0.00    +0.000 A 
ATOM     13 CL   UNL     1       3.241   6.283  17.989  0.00  0.00    +0.000 Cl
ATOM     14  C   UNL     1       1.925   8.554  18.662  0.00  0.00    +0.000 A 
ATOM     15  F   UNL     1       2.292   9.024  17.460  0.00  0.00    +0.000 F 
ENDBRANCH   5   8
BRANCH   1  19
ATOM     16  C   UNL     1       5.011  15.134  19.585  0.00  0.00    +0.000 A 
ATOM     17  C   UNL     1       4.134  15.073  20.677  0.00  0.00    +0.000 A 
ATOM     18  C   UNL     1       2.783  14.729  20.496  0.00  0.00    +0.000 A 
ATOM     19  C   UNL     1       2.292  14.444  19.215  0.00  0.00    +0.000 A 
ATOM     20  C   UNL     1       3.163  14.564  18.129  0.00  0.00    +0.000 A 
ATOM     21  C   UNL     1       4.504  14.866  18.318  0.00  0.00    +0.000 A 
ATOM     22  F   UNL     1       5.280  14.882  17.222  0.00  0.00    +0.000 F 
BRANCH  16  24
ATOM     23  C   UNL     1       6.890  14.801  20.998  0.00  0.00    +0.000 C 
ATOM     24  O   UNL     1       6.303  15.476  19.888  0.00  0.00    +0.000 OA
ENDBRANCH  16  24
ENDBRANCH   1  19
BRANCH   7  25
ATOM     25  C   UNL     1      -1.965  12.431  19.576  0.00  0.00    +0.000 A 
ATOM     26  C   UNL     1      -1.677  12.605  20.942  0.00  0.00    +0.000 A 
ATOM     27  C   UNL     1      -2.702  12.721  21.887  0.00  0.00    +0.000 A 
ATOM     28  C   UNL     1      -4.041  12.660  21.494  0.00  0.00    +0.000 A 
ATOM     29  C   UNL     1      -5.148  12.872  22.483  0.00  0.00    +0.000 C 
ATOM     30  C   UNL     1      -4.339  12.425  20.149  0.00  0.00    +0.000 A 
ATOM     31  C   UNL     1      -3.314  12.310  19.204  0.00  0.00    +0.000 A 
ENDBRANCH   7  25
BRANCH   7  32
ATOM     32  O   UNL     1      -1.231  12.861  17.279  0.00  0.00    +0.000 OA
ATOM     33  H   UNL     1      -1.646  13.710  17.501  0.00  0.00    +0.000 HD
ENDBRANCH   7  32
TORSDOF 5
ENDMDL
MODEL 8
REMARK VINA RESULT:      -7.7      3.045      6.975
REMARK  Name = 
REMARK  7 active torsions:
REMARK  status: ('A' for Active; 'I' for Inactive)
REMARK    1  A    between atoms: C_1  and  O_2
REMARK    2  A    between atoms: O_2  and  C_3
REMARK    3  A    between atoms: C_6  and  C_7
REMARK    4  A    between atoms: C_11  and  C_12
REMARK    5  A    between atoms: C_21  and  O_22
REMARK    6  A    between atoms: C_21  and  C_23
REMARK    7  A    between atoms: C_26  and  C_27
REMARK                            x       y       z     vdW  Elec       q    Type
REMARK                         _______ _______ _______ _____ _____    ______ ____
ROOT
ATOM      1  C   UNL     1       1.020   9.820  20.965  0.00  0.00    +0.000 C 
ATOM      2  O   UNL     1       1.548  10.190  22.012  0.00  0.00    +0.000 OA
ATOM      3  N   UNL     1       0.182  10.625  20.198  0.00  0.00    +0.000 N 
ATOM      4  N   UNL     1      -0.633  10.099  19.213  0.00  0.00    +0.000 NA
ATOM      5  C   UNL     1      -1.200  11.114  18.628  0.00  0.00    +0.000 C 
ATOM      6  C   UNL     1      -0.763  12.457  19.122  0.00  0.00    +0.000 C 
ATOM      7  C   UNL     1      -0.124  12.044  20.450  0.00  0.00    +0.000 C 
ENDROOT
BRANCH   5   8
ATOM      8  C   UNL     1      -2.208  10.962  17.570  0.00  0.00    +0.000 A 
ATOM      9  C   UNL     1      -1.889  10.217  16.428  0.00  0.00    +0.000 A 
ATOM     10  C   UNL     1      -2.862   9.989  15.453  0.00  0.00    +0.000 A 
ATOM     11  C   UNL     1      -4.143  10.520  15.607  0.00  0.00    +0.000 A 
ATOM     12  C   UNL     1      -4.446  11.296  16.728  0.00  0.00    +0.000 A 
ATOM     13 CL   UNL     1      -6.025  11.962  16.895  0.00  0.00    +0.000 Cl
ATOM     14  C   UNL     1      -3.478  11.518  17.707  0.00  0.00    +0.000 A 
ATOM     15  F   UNL     1      -3.771  12.284  18.769  0.00  0.00    +0.000 F 
ENDBRANCH   5   8
BRANCH   1  19
ATOM     16  C   UNL     1       2.182   5.930  19.462  0.00  0.00    +0.000 A 
ATOM     17  C   UNL     1       1.564   6.056  20.713  0.00  0.00    +0.000 A 
ATOM     18  C   UNL     1       1.169   7.316  21.196  0.00  0.00    +0.000 A 
ATOM     19  C   UNL     1       1.393   8.468  20.430  0.00  0.00    +0.000 A 
ATOM     20  C   UNL     1       2.061   8.334  19.210  0.00  0.00    +0.000 A 
ATOM     21  C   UNL     1       2.414   7.084  18.722  0.00  0.00    +0.000 A 
ATOM     22  F   UNL     1       2.981   7.048  17.505  0.00  0.00    +0.000 F 
BRANCH  16  24
ATOM     23  C   UNL     1       1.684   4.035  18.119  0.00  0.00    +0.000 C 
ATOM     24  O   UNL     1       2.516   4.651  19.099  0.00  0.00    +0.000 OA
ENDBRANCH  16  24
ENDBRANCH   1  19
BRANCH   7  25
ATOM     25  C   UNL     1      -1.085  12.313  21.603  0.00  0.00    +0.000 A 
ATOM     26  C   UNL     1      -1.457  11.311  22.516  0.00  0.00    +0.000 A 
ATOM     27  C   UNL     1      -2.350  11.578  23.560  0.00  0.00    +0.000 A 
ATOM     28  C   UNL     1      -2.900  12.852  23.715  0.00  0.00    +0.000 A 
ATOM     29  C   UNL     1      -3.787  13.176  24.879  0.00  0.00    +0.000 C 
ATOM     30  C   UNL     1      -2.586  13.841  22.778  0.00  0.00    +0.000 A 
ATOM     31  C   UNL     1      -1.692  13.574  21.735  0.00  0.00    +0.000 A 
ENDBRANCH   7  25
BRANCH   7  32
ATOM     32  O   UNL     1       1.089  12.776  20.573  0.00  0.00    +0.000 OA
ATOM     33  H   UNL     1       1.634  12.260  21.189  0.00  0.00    +0.000 HD
ENDBRANCH   7  32
TORSDOF 5
ENDMDL
MODEL 9
REMARK VINA RESULT:      -7.6      2.958      5.676
REMARK  Name = 
REMARK  7 active torsions:
REMARK  status: ('A' for Active; 'I' for Inactive)
REMARK    1  A    between atoms: C_1  and  O_2
REMARK    2  A    between atoms: O_2  and  C_3
REMARK    3  A    between atoms: C_6  and  C_7
REMARK    4  A    between atoms: C_11  and  C_12
REMARK    5  A    between atoms: C_21  and  O_22
REMARK    6  A    between atoms: C_21  and  C_23
REMARK    7  A    between atoms: C_26  and  C_27
REMARK                            x       y       z     vdW  Elec       q    Type
REMARK                         _______ _______ _______ _____ _____    ______ ____
ROOT
ATOM      1  C   UNL     1       0.637  14.116  18.797  0.00  0.00    +0.000 C 
ATOM      2  O   UNL     1      -0.167  15.025  18.599  0.00  0.00    +0.000 OA
ATOM      3  N   UNL     1       0.296  12.766  18.773  0.00  0.00    +0.000 N 
ATOM      4  N   UNL     1       1.128  11.794  19.296  0.00  0.00    +0.000 NA
ATOM      5  C   UNL     1       0.569  10.651  19.026  0.00  0.00    +0.000 C 
ATOM      6  C   UNL     1      -0.687  10.733  18.216  0.00  0.00    +0.000 C 
ATOM      7  C   UNL     1      -1.023  12.213  18.420  0.00  0.00    +0.000 C 
ENDROOT
BRANCH   5   8
ATOM      8  C   UNL     1       1.114   9.368  19.491  0.00  0.00    +0.000 A 
ATOM      9  C   UNL     1       0.804   8.925  20.782  0.00  0.00    +0.000 A 
ATOM     10  C   UNL     1       1.239   7.669  21.210  0.00  0.00    +0.000 A 
ATOM     11  C   UNL     1       1.999   6.867  20.358  0.00  0.00    +0.000 A 
ATOM     12  C   UNL     1       2.341   7.328  19.085  0.00  0.00    +0.000 A 
ATOM     13 CL   UNL     1       3.296   6.336  18.053  0.00  0.00    +0.000 Cl
ATOM     14  C   UNL     1       1.899   8.579  18.653  0.00  0.00    +0.000 A 
ATOM     15  F   UNL     1       2.252   9.024  17.437  0.00  0.00    +0.000 F 
ENDBRANCH   5   8
BRANCH   1  19
ATOM     16  C   UNL     1       4.830  15.076  19.286  0.00  0.00    +0.000 A 
ATOM     17  C   UNL     1       4.340  14.626  18.053  0.00  0.00    +0.000 A 
ATOM     18  C   UNL     1       2.975  14.331  17.886  0.00  0.00    +0.000 A 
ATOM     19  C   UNL     1       2.084  14.481  18.957  0.00  0.00    +0.000 A 
ATOM     20  C   UNL     1       2.596  14.875  20.196  0.00  0.00    +0.000 A 
ATOM     21  C   UNL     1       3.936  15.202  20.344  0.00  0.00    +0.000 A 
ATOM     22  F   UNL     1       4.320  15.646  21.552  0.00  0.00    +0.000 F 
BRANCH  16  24
ATOM     23  C   UNL     1       6.553  16.709  19.373  0.00  0.00    +0.000 C 
ATOM     24  O   UNL     1       6.175  15.335  19.324  0.00  0.00    +0.000 OA
ENDBRANCH  16  24
ENDBRANCH   1  19
BRANCH   7  25
ATOM     25  C   UNL     1      -2.106  12.366  19.483  0.00  0.00    +0.000 A 
ATOM     26  C   UNL     1      -1.798  12.508  20.848  0.00  0.00    +0.000 A 
ATOM     27  C   UNL     1      -2.808  12.635  21.808  0.00  0.00    +0.000 A 
ATOM     28  C   UNL     1      -4.152  12.617  21.430  0.00  0.00    +0.000 A 
ATOM     29  C   UNL     1      -5.242  12.841  22.436  0.00  0.00    +0.000 C 
ATOM     30  C   UNL     1      -4.473  12.414  20.084  0.00  0.00    +0.000 A 
ATOM     31  C   UNL     1      -3.462  12.288  19.125  0.00  0.00    +0.000 A 
ENDBRANCH   7  25
BRANCH   7  32
ATOM     32  O   UNL     1      -1.428  12.724  17.156  0.00  0.00    +0.000 OA
ATOM     33  H   UNL     1      -2.312  12.352  17.004  0.00  0.00    +0.000 HD
ENDBRANCH   7  32
TORSDOF 5
ENDMDL
