MODEL 1
REMARK VINA RESULT:      -7.3      0.000      0.000
REMARK  Name = 
REMARK  7 active torsions:
REMARK  status: ('A' for Active; 'I' for Inactive)
REMARK    1  A    between atoms: C_2  and  C_3
REMARK    2  A    between atoms: C_3  and  C_4
REMARK    3  A    between atoms: C_7  and  N_8
REMARK    4  A    between atoms: N_13  and  C_14
REMARK    5  A    between atoms: C_17  and  O_18
REMARK    6  A    between atoms: C_20  and  C_21
REMARK    7  A    between atoms: C_21  and  O_23
REMARK                            x       y       z     vdW  Elec       q    Type
REMARK                         _______ _______ _______ _____ _____    ______ ____
ROOT
ATOM      1  O   UNL     1       1.509   4.810  19.590  0.00  0.00    +0.000 OA
ATOM      2  C   UNL     1       2.605   5.349  19.749  0.00  0.00    +0.000 C 
ATOM      3  N   UNL     1       2.816   6.709  19.907  0.00  0.00    +0.000 N 
ATOM      4  H   UNL     1       3.768   7.064  19.784  0.00  0.00    +0.000 HD
ENDROOT
BRANCH   3   5
ATOM      5  C   UNL     1       1.819   7.695  20.148  0.00  0.00    +0.000 A 
ATOM      6  C   UNL     1       1.064   7.688  21.330  0.00  0.00    +0.000 A 
ATOM      7  C   UNL     1       0.122   8.685  21.603  0.00  0.00    +0.000 A 
ATOM      8  C   UNL     1      -0.050   9.721  20.706  0.00  0.00    +0.000 A 
ATOM      9  C   UNL     1       0.687   9.771  19.531  0.00  0.00    +0.000 A 
ATOM     10  C   UNL     1       1.599   8.745  19.226  0.00  0.00    +0.000 A 
BRANCH   8  11
ATOM     11  O   UNL     1      -0.942  10.723  20.938  0.00  0.00    +0.000 OA
ATOM     12  H   UNL     1      -1.545  10.449  21.650  0.00  0.00    +0.000 HD
ENDBRANCH   8  11
BRANCH  10  13
ATOM     13  C   UNL     1       2.320   8.771  17.925  0.00  0.00    +0.000 C 
ATOM     14  O   UNL     1       2.973   7.822  17.522  0.00  0.00    +0.000 OA
BRANCH  13  15
ATOM     15  O   UNL     1       2.130   9.892  17.198  0.00  0.00    +0.000 OA
ATOM     16  H   UNL     1       2.922  10.277  16.778  0.00  0.00    +0.000 HD
ENDBRANCH  13  15
ENDBRANCH  10  13
ENDBRANCH   3   5
BRANCH   2  17
ATOM     17  C   UNL     1       3.867   4.502  19.783  0.00  0.00    +0.000 C 
BRANCH  17  18
ATOM     18  C   UNL     1       4.642   4.547  18.489  0.00  0.00    +0.000 A 
ATOM     19  C   UNL     1       3.977   4.385  17.266  0.00  0.00    +0.000 A 
ATOM     20  C   UNL     1       4.688   4.404  16.066  0.00  0.00    +0.000 A 
ATOM     21  C   UNL     1       6.077   4.583  16.087  0.00  0.00    +0.000 A 
ATOM     22  C   UNL     1       6.756   4.749  17.300  0.00  0.00    +0.000 A 
ATOM     23  C   UNL     1       6.035   4.727  18.497  0.00  0.00    +0.000 A 
BRANCH  21  24
ATOM     24  N   UNL     1       6.827   4.587  14.825  0.00  0.00    +0.000 N 
ATOM     25  O   UNL     1       7.807   5.342  14.739  0.00  0.00    +0.000 OA
ATOM     26  O   UNL     1       6.438   3.838  13.917  0.00  0.00    +0.000 OA
ENDBRANCH  21  24
ENDBRANCH  17  18
ENDBRANCH   2  17
TORSDOF 7
ENDMDL
MODEL 2
REMARK VINA RESULT:      -7.2      0.649      1.352
REMARK  Name = 
REMARK  7 active torsions:
REMARK  status: ('A' for Active; 'I' for Inactive)
REMARK    1  A    between atoms: C_2  and  C_3
REMARK    2  A    between atoms: C_3  and  C_4
REMARK    3  A    between atoms: C_7  and  N_8
REMARK    4  A    between atoms: N_13  and  C_14
REMARK    5  A    between atoms: C_17  and  O_18
REMARK    6  A    between atoms: C_20  and  C_21
REMARK    7  A    between atoms: C_21  and  O_23
REMARK                            x       y       z     vdW  Elec       q    Type
REMARK                         _______ _______ _______ _____ _____    ______ ____
ROOT
ATOM      1  O   UNL     1       0.975   4.995  20.114  0.00  0.00    +0.000 OA
ATOM      2  C   UNL     1       2.117   5.438  20.224  0.00  0.00    +0.000 C 
ATOM      3  N   UNL     1       2.460   6.781  20.235  0.00  0.00    +0.000 N 
ATOM      4  H   UNL     1       3.442   7.026  20.083  0.00  0.00    +0.000 HD
ENDROOT
BRANCH   3   5
ATOM      5  C   UNL     1       1.564   7.879  20.358  0.00  0.00    +0.000 A 
ATOM      6  C   UNL     1       0.780   8.049  21.509  0.00  0.00    +0.000 A 
ATOM      7  C   UNL     1      -0.061   9.155  21.666  0.00  0.00    +0.000 A 
ATOM      8  C   UNL     1      -0.100  10.123  20.681  0.00  0.00    +0.000 A 
ATOM      9  C   UNL     1       0.670   9.999  19.533  0.00  0.00    +0.000 A 
ATOM     10  C   UNL     1       1.480   8.864  19.347  0.00  0.00    +0.000 A 
BRANCH   8  11
ATOM     11  O   UNL     1      -0.889  11.226  20.798  0.00  0.00    +0.000 OA
ATOM     12  H   UNL     1      -1.816  10.943  20.879  0.00  0.00    +0.000 HD
ENDBRANCH   8  11
BRANCH  10  13
ATOM     13  C   UNL     1       2.235   8.707  18.075  0.00  0.00    +0.000 C 
ATOM     14  O   UNL     1       2.864   7.694  17.810  0.00  0.00    +0.000 OA
BRANCH  13  15
ATOM     15  O   UNL     1       2.105   9.735  17.210  0.00  0.00    +0.000 OA
ATOM     16  H   UNL     1       2.825   9.853  16.563  0.00  0.00    +0.000 HD
ENDBRANCH  13  15
ENDBRANCH  10  13
ENDBRANCH   3   5
BRANCH   2  17
ATOM     17  C   UNL     1       3.291   4.482  20.361  0.00  0.00    +0.000 C 
BRANCH  17  18
ATOM     18  C   UNL     1       4.153   4.425  19.124  0.00  0.00    +0.000 A 
ATOM     19  C   UNL     1       5.490   4.841  19.179  0.00  0.00    +0.000 A 
ATOM     20  C   UNL     1       6.288   4.812  18.034  0.00  0.00    +0.000 A 
ATOM     21  C   UNL     1       5.745   4.367  16.822  0.00  0.00    +0.000 A 
ATOM     22  C   UNL     1       4.412   3.947  16.751  0.00  0.00    +0.000 A 
ATOM     23  C   UNL     1       3.620   3.980  17.902  0.00  0.00    +0.000 A 
BRANCH  21  24
ATOM     24  N   UNL     1       6.581   4.352  15.615  0.00  0.00    +0.000 N 
ATOM     25  O   UNL     1       6.051   3.998  14.552  0.00  0.00    +0.000 OA
ATOM     26  O   UNL     1       7.768   4.692  15.728  0.00  0.00    +0.000 OA
ENDBRANCH  21  24
ENDBRANCH  17  18
ENDBRANCH   2  17
TORSDOF 7
ENDMDL
MODEL 3
REMARK VINA RESULT:      -7.2      3.963      5.017
REMARK  Name = 
REMARK  7 active torsions:
REMARK  status: ('A' for Active; 'I' for Inactive)
REMARK    1  A    between atoms: C_2  and  C_3
REMARK    2  A    between atoms: C_3  and  C_4
REMARK    3  A    between atoms: C_7  and  N_8
REMARK    4  A    between atoms: N_13  and  C_14
REMARK    5  A    between atoms: C_17  and  O_18
REMARK    6  A    between atoms: C_20  and  C_21
REMARK    7  A    between atoms: C_21  and  O_23
REMARK                            x       y       z     vdW  Elec       q    Type
REMARK                         _______ _______ _______ _____ _____    ______ ____
ROOT
ATOM      1  O   UNL     1       6.162   4.453  19.259  0.00  0.00    +0.000 OA
ATOM      2  C   UNL     1       5.370   4.967  18.470  0.00  0.00    +0.000 C 
ATOM      3  N   UNL     1       3.999   4.762  18.459  0.00  0.00    +0.000 N 
ATOM      4  H   UNL     1       3.480   5.038  17.622  0.00  0.00    +0.000 HD
ENDROOT
BRANCH   3   5
ATOM      5  C   UNL     1       3.234   4.125  19.475  0.00  0.00    +0.000 A 
ATOM      6  C   UNL     1       2.941   4.780  20.680  0.00  0.00    +0.000 A 
ATOM      7  C   UNL     1       2.142   4.185  21.661  0.00  0.00    +0.000 A 
ATOM      8  C   UNL     1       1.599   2.935  21.430  0.00  0.00    +0.000 A 
ATOM      9  C   UNL     1       1.854   2.260  20.245  0.00  0.00    +0.000 A 
ATOM     10  C   UNL     1       2.698   2.831  19.275  0.00  0.00    +0.000 A 
BRANCH   8  11
ATOM     11  O   UNL     1       0.800   2.325  22.348  0.00  0.00    +0.000 OA
ATOM     12  H   UNL     1       0.845   1.363  22.215  0.00  0.00    +0.000 HD
ENDBRANCH   8  11
BRANCH  10  13
ATOM     13  C   UNL     1       3.027   2.058  18.048  0.00  0.00    +0.000 C 
ATOM     14  O   UNL     1       2.347   2.119  17.036  0.00  0.00    +0.000 OA
BRANCH  13  15
ATOM     15  O   UNL     1       4.174   1.350  18.117  0.00  0.00    +0.000 OA
ATOM     16  H   UNL     1       5.004   1.858  18.045  0.00  0.00    +0.000 HD
ENDBRANCH  13  15
ENDBRANCH  10  13
ENDBRANCH   3   5
BRANCH   2  17
ATOM     17  C   UNL     1       5.879   5.915  17.395  0.00  0.00    +0.000 C 
BRANCH  17  18
ATOM     18  C   UNL     1       6.032   5.251  16.049  0.00  0.00    +0.000 A 
ATOM     19  C   UNL     1       7.245   5.343  15.354  0.00  0.00    +0.000 A 
ATOM     20  C   UNL     1       7.389   4.750  14.099  0.00  0.00    +0.000 A 
ATOM     21  C   UNL     1       6.310   4.062  13.530  0.00  0.00    +0.000 A 
ATOM     22  C   UNL     1       5.092   3.959  14.213  0.00  0.00    +0.000 A 
ATOM     23  C   UNL     1       4.957   4.557  15.469  0.00  0.00    +0.000 A 
BRANCH  21  24
ATOM     24  N   UNL     1       6.456   3.452  12.203  0.00  0.00    +0.000 N 
ATOM     25  O   UNL     1       5.684   2.530  11.904  0.00  0.00    +0.000 OA
ATOM     26  O   UNL     1       7.345   3.892  11.459  0.00  0.00    +0.000 OA
ENDBRANCH  21  24
ENDBRANCH  17  18
ENDBRANCH   2  17
TORSDOF 7
ENDMDL
MODEL 4
REMARK VINA RESULT:      -7.1      2.672      4.456
REMARK  Name = 
REMARK  7 active torsions:
REMARK  status: ('A' for Active; 'I' for Inactive)
REMARK    1  A    between atoms: C_2  and  C_3
REMARK    2  A    between atoms: C_3  and  C_4
REMARK    3  A    between atoms: C_7  and  N_8
REMARK    4  A    between atoms: N_13  and  C_14
REMARK    5  A    between atoms: C_17  and  O_18
REMARK    6  A    between atoms: C_20  and  C_21
REMARK    7  A    between atoms: C_21  and  O_23
REMARK                            x       y       z     vdW  Elec       q    Type
REMARK                         _______ _______ _______ _____ _____    ______ ____
ROOT
ATOM      1  O   UNL     1       6.643   5.168  19.733  0.00  0.00    +0.000 OA
ATOM      2  C   UNL     1       6.010   5.282  18.684  0.00  0.00    +0.000 C 
ATOM      3  N   UNL     1       4.748   4.761  18.446  0.00  0.00    +0.000 N 
ATOM      4  H   UNL     1       4.429   4.704  17.475  0.00  0.00    +0.000 HD
ENDROOT
BRANCH   3   5
ATOM      5  C   UNL     1       3.865   4.212  19.417  0.00  0.00    +0.000 A 
ATOM      6  C   UNL     1       4.012   2.891  19.865  0.00  0.00    +0.000 A 
ATOM      7  C   UNL     1       3.186   2.360  20.861  0.00  0.00    +0.000 A 
ATOM      8  C   UNL     1       2.222   3.161  21.443  0.00  0.00    +0.000 A 
ATOM      9  C   UNL     1       2.054   4.477  21.037  0.00  0.00    +0.000 A 
ATOM     10  C   UNL     1       2.848   5.002  20.001  0.00  0.00    +0.000 A 
BRANCH   8  11
ATOM     11  O   UNL     1       1.408   2.693  22.429  0.00  0.00    +0.000 OA
ATOM     12  H   UNL     1       1.880   2.744  23.278  0.00  0.00    +0.000 HD
ENDBRANCH   8  11
BRANCH  10  13
ATOM     13  C   UNL     1       2.599   6.388  19.521  0.00  0.00    +0.000 C 
ATOM     14  O   UNL     1       2.663   6.692  18.341  0.00  0.00    +0.000 OA
BRANCH  13  15
ATOM     15  O   UNL     1       2.223   7.259  20.482  0.00  0.00    +0.000 OA
ATOM     16  H   UNL     1       2.416   8.201  20.315  0.00  0.00    +0.000 HD
ENDBRANCH  13  15
ENDBRANCH  10  13
ENDBRANCH   3   5
BRANCH   2  17
ATOM     17  C   UNL     1       6.611   6.049  17.516  0.00  0.00    +0.000 C 
BRANCH  17  18
ATOM     18  C   UNL     1       6.430   5.345  16.194  0.00  0.00    +0.000 A 
ATOM     19  C   UNL     1       7.435   5.412  15.219  0.00  0.00    +0.000 A 
ATOM     20  C   UNL     1       7.267   4.782  13.985  0.00  0.00    +0.000 A 
ATOM     21  C   UNL     1       6.084   4.080  13.721  0.00  0.00    +0.000 A 
ATOM     22  C   UNL     1       5.073   4.002  14.686  0.00  0.00    +0.000 A 
ATOM     23  C   UNL     1       5.249   4.637  15.918  0.00  0.00    +0.000 A 
BRANCH  21  24
ATOM     24  N   UNL     1       5.902   3.430  12.417  0.00  0.00    +0.000 N 
ATOM     25  O   UNL     1       4.763   3.426  11.929  0.00  0.00    +0.000 OA
ATOM     26  O   UNL     1       6.897   2.922  11.880  0.00  0.00    +0.000 OA
ENDBRANCH  21  24
ENDBRANCH  17  18
ENDBRANCH   2  17
TORSDOF 7
ENDMDL
MODEL 5
REMARK VINA RESULT:      -7.1      2.662      4.386
REMARK  Name = 
REMARK  7 active torsions:
REMARK  status: ('A' for Active; 'I' for Inactive)
REMARK    1  A    between atoms: C_2  and  C_3
REMARK    2  A    between atoms: C_3  and  C_4
REMARK    3  A    between atoms: C_7  and  N_8
REMARK    4  A    between atoms: N_13  and  C_14
REMARK    5  A    between atoms: C_17  and  O_18
REMARK    6  A    between atoms: C_20  and  C_21
REMARK    7  A    between atoms: C_21  and  O_23
REMARK                            x       y       z     vdW  Elec       q    Type
REMARK                         _______ _______ _______ _____ _____    ______ ____
ROOT
ATOM      1  O   UNL     1       6.653   5.146  19.682  0.00  0.00    +0.000 OA
ATOM      2  C   UNL     1       6.002   5.302  18.650  0.00  0.00    +0.000 C 
ATOM      3  N   UNL     1       4.729   4.805  18.420  0.00  0.00    +0.000 N 
ATOM      4  H   UNL     1       4.390   4.782  17.455  0.00  0.00    +0.000 HD
ENDROOT
BRANCH   3   5
ATOM      5  C   UNL     1       3.857   4.238  19.391  0.00  0.00    +0.000 A 
ATOM      6  C   UNL     1       4.008   2.909  19.813  0.00  0.00    +0.000 A 
ATOM      7  C   UNL     1       3.193   2.360  20.809  0.00  0.00    +0.000 A 
ATOM      8  C   UNL     1       2.236   3.151  21.416  0.00  0.00    +0.000 A 
ATOM      9  C   UNL     1       2.064   4.474  21.036  0.00  0.00    +0.000 A 
ATOM     10  C   UNL     1       2.846   5.018  20.000  0.00  0.00    +0.000 A 
BRANCH   8  11
ATOM     11  O   UNL     1       1.433   2.665  22.402  0.00  0.00    +0.000 OA
ATOM     12  H   UNL     1       0.739   2.114  22.000  0.00  0.00    +0.000 HD
ENDBRANCH   8  11
BRANCH  10  13
ATOM     13  C   UNL     1       2.591   6.412  19.549  0.00  0.00    +0.000 C 
ATOM     14  O   UNL     1       2.618   6.732  18.371  0.00  0.00    +0.000 OA
BRANCH  13  15
ATOM     15  O   UNL     1       2.255   7.271  20.533  0.00  0.00    +0.000 OA
ATOM     16  H   UNL     1       1.875   6.879  21.342  0.00  0.00    +0.000 HD
ENDBRANCH  13  15
ENDBRANCH  10  13
ENDBRANCH   3   5
BRANCH   2  17
ATOM     17  C   UNL     1       6.591   6.096  17.495  0.00  0.00    +0.000 C 
BRANCH  17  18
ATOM     18  C   UNL     1       6.410   5.416  16.160  0.00  0.00    +0.000 A 
ATOM     19  C   UNL     1       5.215   4.743  15.870  0.00  0.00    +0.000 A 
ATOM     20  C   UNL     1       5.047   4.094  14.646  0.00  0.00    +0.000 A 
ATOM     21  C   UNL     1       6.083   4.114  13.704  0.00  0.00    +0.000 A 
ATOM     22  C   UNL     1       7.281   4.785  13.977  0.00  0.00    +0.000 A 
ATOM     23  C   UNL     1       7.441   5.431  15.205  0.00  0.00    +0.000 A 
BRANCH  21  24
ATOM     24  N   UNL     1       5.912   3.418  12.422  0.00  0.00    +0.000 N 
ATOM     25  O   UNL     1       4.773   3.380  11.935  0.00  0.00    +0.000 OA
ATOM     26  O   UNL     1       6.915   2.908  11.902  0.00  0.00    +0.000 OA
ENDBRANCH  21  24
ENDBRANCH  17  18
ENDBRANCH   2  17
TORSDOF 7
ENDMDL
MODEL 6
REMARK VINA RESULT:      -7.1      2.785      7.936
REMARK  Name = 
REMARK  7 active torsions:
REMARK  status: ('A' for Active; 'I' for Inactive)
REMARK    1  A    between atoms: C_2  and  C_3
REMARK    2  A    between atoms: C_3  and  C_4
REMARK    3  A    between atoms: C_7  and  N_8
REMARK    4  A    between atoms: N_13  and  C_14
REMARK    5  A    between atoms: C_17  and  O_18
REMARK    6  A    between atoms: C_20  and  C_21
REMARK    7  A    between atoms: C_21  and  O_23
REMARK                            x       y       z     vdW  Elec       q    Type
REMARK                         _______ _______ _______ _____ _____    ______ ____
ROOT
ATOM      1  O   UNL     1       1.982   7.559  19.720  0.00  0.00    +0.000 OA
ATOM      2  C   UNL     1       2.403   7.742  18.578  0.00  0.00    +0.000 C 
ATOM      3  N   UNL     1       2.977   6.775  17.769  0.00  0.00    +0.000 N 
ATOM      4  H   UNL     1       3.507   7.089  16.951  0.00  0.00    +0.000 HD
ENDROOT
BRANCH   3   5
ATOM      5  C   UNL     1       2.977   5.372  18.001  0.00  0.00    +0.000 A 
ATOM      6  C   UNL     1       1.804   4.615  17.865  0.00  0.00    +0.000 A 
ATOM      7  C   UNL     1       1.805   3.227  18.035  0.00  0.00    +0.000 A 
ATOM      8  C   UNL     1       2.993   2.577  18.311  0.00  0.00    +0.000 A 
ATOM      9  C   UNL     1       4.177   3.288  18.441  0.00  0.00    +0.000 A 
ATOM     10  C   UNL     1       4.174   4.690  18.322  0.00  0.00    +0.000 A 
BRANCH   8  11
ATOM     11  O   UNL     1       3.044   1.225  18.466  0.00  0.00    +0.000 OA
ATOM     12  H   UNL     1       3.959   0.966  18.670  0.00  0.00    +0.000 HD
ENDBRANCH   8  11
BRANCH  10  13
ATOM     13  C   UNL     1       5.437   5.444  18.545  0.00  0.00    +0.000 C 
ATOM     14  O   UNL     1       5.796   6.349  17.809  0.00  0.00    +0.000 OA
BRANCH  13  15
ATOM     15  O   UNL     1       6.109   5.100  19.664  0.00  0.00    +0.000 OA
ATOM     16  H   UNL     1       6.989   5.505  19.785  0.00  0.00    +0.000 HD
ENDBRANCH  13  15
ENDBRANCH  10  13
ENDBRANCH   3   5
BRANCH   2  17
ATOM     17  C   UNL     1       2.311   9.124  17.950  0.00  0.00    +0.000 C 
BRANCH  17  18
ATOM     18  C   UNL     1       1.062   9.871  18.350  0.00  0.00    +0.000 A 
ATOM     19  C   UNL     1       1.124  10.867  19.333  0.00  0.00    +0.000 A 
ATOM     20  C   UNL     1      -0.030  11.548  19.724  0.00  0.00    +0.000 A 
ATOM     21  C   UNL     1      -1.257  11.229  19.131  0.00  0.00    +0.000 A 
ATOM     22  C   UNL     1      -1.335  10.238  18.145  0.00  0.00    +0.000 A 
ATOM     23  C   UNL     1      -0.175   9.561  17.760  0.00  0.00    +0.000 A 
BRANCH  21  24
ATOM     24  N   UNL     1      -2.473  11.935  19.553  0.00  0.00    +0.000 N 
ATOM     25  O   UNL     1      -2.450  12.520  20.646  0.00  0.00    +0.000 OA
ATOM     26  O   UNL     1      -3.453  11.905  18.795  0.00  0.00    +0.000 OA
ENDBRANCH  21  24
ENDBRANCH  17  18
ENDBRANCH   2  17
TORSDOF 7
ENDMDL
MODEL 7
REMARK VINA RESULT:      -7.1      3.954      4.881
REMARK  Name = 
REMARK  7 active torsions:
REMARK  status: ('A' for Active; 'I' for Inactive)
REMARK    1  A    between atoms: C_2  and  C_3
REMARK    2  A    between atoms: C_3  and  C_4
REMARK    3  A    between atoms: C_7  and  N_8
REMARK    4  A    between atoms: N_13  and  C_14
REMARK    5  A    between atoms: C_17  and  O_18
REMARK    6  A    between atoms: C_20  and  C_21
REMARK    7  A    between atoms: C_21  and  O_23
REMARK                            x       y       z     vdW  Elec       q    Type
REMARK                         _______ _______ _______ _____ _____    ______ ____
ROOT
ATOM      1  O   UNL     1       6.030   4.054  18.978  0.00  0.00    +0.000 OA
ATOM      2  C   UNL     1       5.258   4.802  18.380  0.00  0.00    +0.000 C 
ATOM      3  N   UNL     1       3.880   4.820  18.528  0.00  0.00    +0.000 N 
ATOM      4  H   UNL     1       3.328   5.301  17.813  0.00  0.00    +0.000 HD
ENDROOT
BRANCH   3   5
ATOM      5  C   UNL     1       3.133   4.162  19.544  0.00  0.00    +0.000 A 
ATOM      6  C   UNL     1       2.815   4.812  20.745  0.00  0.00    +0.000 A 
ATOM      7  C   UNL     1       2.032   4.196  21.726  0.00  0.00    +0.000 A 
ATOM      8  C   UNL     1       1.530   2.928  21.498  0.00  0.00    +0.000 A 
ATOM      9  C   UNL     1       1.812   2.257  20.317  0.00  0.00    +0.000 A 
ATOM     10  C   UNL     1       2.641   2.851  19.348  0.00  0.00    +0.000 A 
BRANCH   8  11
ATOM     11  O   UNL     1       0.749   2.296  22.416  0.00  0.00    +0.000 OA
ATOM     12  H   UNL     1       1.047   2.544  23.308  0.00  0.00    +0.000 HD
ENDBRANCH   8  11
BRANCH  10  13
ATOM     13  C   UNL     1       2.999   2.084  18.125  0.00  0.00    +0.000 C 
ATOM     14  O   UNL     1       2.310   2.102  17.117  0.00  0.00    +0.000 OA
BRANCH  13  15
ATOM     15  O   UNL     1       4.180   1.434  18.193  0.00  0.00    +0.000 OA
ATOM     16  H   UNL     1       4.449   0.937  17.397  0.00  0.00    +0.000 HD
ENDBRANCH  13  15
ENDBRANCH  10  13
ENDBRANCH   3   5
BRANCH   2  17
ATOM     17  C   UNL     1       5.803   5.812  17.383  0.00  0.00    +0.000 C 
BRANCH  17  18
ATOM     18  C   UNL     1       6.001   5.232  16.004  0.00  0.00    +0.000 A 
ATOM     19  C   UNL     1       4.944   4.572  15.361  0.00  0.00    +0.000 A 
ATOM     20  C   UNL     1       5.124   4.013  14.095  0.00  0.00    +0.000 A 
ATOM     21  C   UNL     1       6.372   4.111  13.466  0.00  0.00    +0.000 A 
ATOM     22  C   UNL     1       7.436   4.769  14.094  0.00  0.00    +0.000 A 
ATOM     23  C   UNL     1       7.247   5.324  15.362  0.00  0.00    +0.000 A 
BRANCH  21  24
ATOM     24  N   UNL     1       6.565   3.509  12.141  0.00  0.00    +0.000 N 
ATOM     25  O   UNL     1       7.402   4.029  11.389  0.00  0.00    +0.000 OA
ATOM     26  O   UNL     1       5.881   2.517  11.850  0.00  0.00    +0.000 OA
ENDBRANCH  21  24
ENDBRANCH  17  18
ENDBRANCH   2  17
TORSDOF 7
ENDMDL
MODEL 8
REMARK VINA RESULT:      -7.1      2.783      7.903
REMARK  Name = 
REMARK  7 active torsions:
REMARK  status: ('A' for Active; 'I' for Inactive)
REMARK    1  A    between atoms: C_2  and  C_3
REMARK    2  A    between atoms: C_3  and  C_4
REMARK    3  A    between atoms: C_7  and  N_8
REMARK    4  A    between atoms: N_13  and  C_14
REMARK    5  A    between atoms: C_17  and  O_18
REMARK    6  A    between atoms: C_20  and  C_21
REMARK    7  A    between atoms: C_21  and  O_23
REMARK                            x       y       z     vdW  Elec       q    Type
REMARK                         _______ _______ _______ _____ _____    ______ ____
ROOT
ATOM      1  O   UNL     1       2.011   7.552  19.732  0.00  0.00    +0.000 OA
ATOM      2  C   UNL     1       2.388   7.743  18.576  0.00  0.00    +0.000 C 
ATOM      3  N   UNL     1       2.947   6.786  17.744  0.00  0.00    +0.000 N 
ATOM      4  H   UNL     1       3.443   7.109  16.909  0.00  0.00    +0.000 HD
ENDROOT
BRANCH   3   5
ATOM      5  C   UNL     1       2.975   5.383  17.973  0.00  0.00    +0.000 A 
ATOM      6  C   UNL     1       1.823   4.599  17.808  0.00  0.00    +0.000 A 
ATOM      7  C   UNL     1       1.852   3.211  17.974  0.00  0.00    +0.000 A 
ATOM      8  C   UNL     1       3.048   2.588  18.276  0.00  0.00    +0.000 A 
ATOM      9  C   UNL     1       4.212   3.326  18.435  0.00  0.00    +0.000 A 
ATOM     10  C   UNL     1       4.179   4.728  18.320  0.00  0.00    +0.000 A 
BRANCH   8  11
ATOM     11  O   UNL     1       3.128   1.237  18.429  0.00  0.00    +0.000 OA
ATOM     12  H   UNL     1       4.065   0.977  18.449  0.00  0.00    +0.000 HD
ENDBRANCH   8  11
BRANCH  10  13
ATOM     13  C   UNL     1       5.418   5.510  18.574  0.00  0.00    +0.000 C 
ATOM     14  O   UNL     1       6.021   5.451  19.635  0.00  0.00    +0.000 OA
BRANCH  13  15
ATOM     15  O   UNL     1       5.862   6.225  17.519  0.00  0.00    +0.000 OA
ATOM     16  H   UNL     1       5.781   7.195  17.586  0.00  0.00    +0.000 HD
ENDBRANCH  13  15
ENDBRANCH  10  13
ENDBRANCH   3   5
BRANCH   2  17
ATOM     17  C   UNL     1       2.255   9.125  17.955  0.00  0.00    +0.000 C 
BRANCH  17  18
ATOM     18  C   UNL     1       1.010   9.853  18.399  0.00  0.00    +0.000 A 
ATOM     19  C   UNL     1      -0.217   9.589  17.777  0.00  0.00    +0.000 A 
ATOM     20  C   UNL     1      -1.370  10.273  18.167  0.00  0.00    +0.000 A 
ATOM     21  C   UNL     1      -1.295  11.232  19.185  0.00  0.00    +0.000 A 
ATOM     22  C   UNL     1      -0.077  11.505  19.818  0.00  0.00    +0.000 A 
ATOM     23  C   UNL     1       1.072  10.816  19.420  0.00  0.00    +0.000 A 
BRANCH  21  24
ATOM     24  N   UNL     1      -2.505  11.962  19.584  0.00  0.00    +0.000 N 
ATOM     25  O   UNL     1      -3.473  11.941  18.810  0.00  0.00    +0.000 OA
ATOM     26  O   UNL     1      -2.489  12.559  20.670  0.00  0.00    +0.000 OA
ENDBRANCH  21  24
ENDBRANCH  17  18
ENDBRANCH   2  17
TORSDOF 7
ENDMDL
MODEL 9
REMARK VINA RESULT:      -7.0      2.680      7.725
REMARK  Name = 
REMARK  7 active torsions:
REMARK  status: ('A' for Active; 'I' for Inactive)
REMARK    1  A    between atoms: C_2  and  C_3
REMARK    2  A    between atoms: C_3  and  C_4
REMARK    3  A    between atoms: C_7  and  N_8
REMARK    4  A    between atoms: N_13  and  C_14
REMARK    5  A    between atoms: C_17  and  O_18
REMARK    6  A    between atoms: C_20  and  C_21
REMARK    7  A    between atoms: C_21  and  O_23
REMARK                            x       y       z     vdW  Elec       q    Type
REMARK                         _______ _______ _______ _____ _____    ______ ____
ROOT
ATOM      1  O   UNL     1       4.049   7.101  17.959  0.00  0.00    +0.000 OA
ATOM      2  C   UNL     1       2.824   6.999  17.887  0.00  0.00    +0.000 C 
ATOM      3  N   UNL     1       2.118   5.807  17.844  0.00  0.00    +0.000 N 
ATOM      4  H   UNL     1       1.142   5.839  17.539  0.00  0.00    +0.000 HD
ENDROOT
BRANCH   3   5
ATOM      5  C   UNL     1       2.638   4.509  18.108  0.00  0.00    +0.000 A 
ATOM      6  C   UNL     1       3.340   3.796  17.125  0.00  0.00    +0.000 A 
ATOM      7  C   UNL     1       3.904   2.545  17.392  0.00  0.00    +0.000 A 
ATOM      8  C   UNL     1       3.798   2.008  18.661  0.00  0.00    +0.000 A 
ATOM      9  C   UNL     1       3.123   2.688  19.664  0.00  0.00    +0.000 A 
ATOM     10  C   UNL     1       2.509   3.924  19.389  0.00  0.00    +0.000 A 
BRANCH   8  11
ATOM     11  O   UNL     1       4.348   0.801  18.971  0.00  0.00    +0.000 OA
ATOM     12  H   UNL     1       5.299   0.921  19.133  0.00  0.00    +0.000 HD
ENDBRANCH   8  11
BRANCH  10  13
ATOM     13  C   UNL     1       1.720   4.599  20.453  0.00  0.00    +0.000 C 
ATOM     14  O   UNL     1       0.510   4.743  20.376  0.00  0.00    +0.000 OA
BRANCH  13  15
ATOM     15  O   UNL     1       2.433   4.968  21.538  0.00  0.00    +0.000 OA
ATOM     16  H   UNL     1       2.083   4.688  22.405  0.00  0.00    +0.000 HD
ENDBRANCH  13  15
ENDBRANCH  10  13
ENDBRANCH   3   5
BRANCH   2  17
ATOM     17  C   UNL     1       1.962   8.250  17.836  0.00  0.00    +0.000 C 
BRANCH  17  18
ATOM     18  C   UNL     1       1.456   8.672  19.194  0.00  0.00    +0.000 A 
ATOM     19  C   UNL     1       1.840   7.961  20.339  0.00  0.00    +0.000 A 
ATOM     20  C   UNL     1       1.360   8.331  21.596  0.00  0.00    +0.000 A 
ATOM     21  C   UNL     1       0.486   9.419  21.711  0.00  0.00    +0.000 A 
ATOM     22  C   UNL     1       0.096  10.142  20.577  0.00  0.00    +0.000 A 
ATOM     23  C   UNL     1       0.580   9.763  19.322  0.00  0.00    +0.000 A 
BRANCH  21  24
ATOM     24  N   UNL     1      -0.031   9.799  23.032  0.00  0.00    +0.000 N 
ATOM     25  O   UNL     1      -1.144  10.340  23.081  0.00  0.00    +0.000 OA
ATOM     26  O   UNL     1       0.677   9.558  24.021  0.00  0.00    +0.000 OA
ENDBRANCH  21  24
ENDBRANCH  17  18
ENDBRANCH   2  17
TORSDOF 7
ENDMDL
