MODEL 1
REMARK VINA RESULT:      -7.7      0.000      0.000
REMARK  Name = 
REMARK  5 active torsions:
REMARK  status: ('A' for Active; 'I' for Inactive)
REMARK    1  A    between atoms: C_1  and  N_2
REMARK    2  A    between atoms: C_6  and  C_7
REMARK    3  A    between atoms: C_7  and  N_8
REMARK    4  A    between atoms: C_9  and  C_11
REMARK    5  A    between atoms: C_14  and  C_15
REMARK                            x       y       z     vdW  Elec       q    Type
REMARK                         _______ _______ _______ _____ _____    ______ ____
ROOT
ATOM      1  C   UNL     1       6.925   5.847  17.993  0.00  0.00    +0.000 A 
ATOM      2  C   UNL     1       6.628   6.889  17.194  0.00  0.00    +0.000 A 
ATOM      3  C   UNL     1       7.255   8.181  17.365  0.00  0.00    +0.000 A 
ATOM      4  C   UNL     1       8.175   8.360  18.325  0.00  0.00    +0.000 A 
ATOM      5  N   UNL     1       8.521   7.302  19.129  0.00  0.00    +0.000 N 
ATOM      6  C   UNL     1       7.963   6.046  19.047  0.00  0.00    +0.000 A 
ATOM      7  O   UNL     1       8.298   5.140  19.806  0.00  0.00    +0.000 OA
ATOM      8  H   UNL     1       9.224   7.451  19.844  0.00  0.00    +0.000 HD
ENDROOT
BRANCH   4   9
ATOM      9  C   UNL     1       8.801   9.626  18.552  0.00  0.00    +0.000 A 
ATOM     10  C   UNL     1       8.871  10.766  17.753  0.00  0.00    +0.000 A 
ATOM     11  C   UNL     1       9.604  11.757  18.446  0.00  0.00    +0.000 A 
ATOM     12  C   UNL     1       9.955  11.186  19.643  0.00  0.00    +0.000 A 
ATOM     13  O   UNL     1       9.481   9.919  19.722  0.00  0.00    +0.000 OA
ENDBRANCH   4   9
BRANCH   1  15
ATOM     14  N   UNL     1       5.548   4.053  18.898  0.00  0.00    +0.000 N 
ATOM     15  C   UNL     1       6.154   4.586  17.788  0.00  0.00    +0.000 C 
ATOM     16  O   UNL     1       6.040   4.082  16.672  0.00  0.00    +0.000 OA
ATOM     17  H   UNL     1       5.801   4.409  19.820  0.00  0.00    +0.000 HD
BRANCH  14  18
ATOM     18  C   UNL     1       4.762   2.853  18.780  0.00  0.00    +0.000 C 
BRANCH  18  24
ATOM     19  C   UNL     1       2.672   2.784  21.102  0.00  0.00    +0.000 C 
ATOM     20  N   UNL     1       2.438   3.189  19.736  0.00  0.00    +0.000 N 
ATOM     21  N   UNL     1       1.210   3.628  19.397  0.00  0.00    +0.000 NA
ATOM     22  C   UNL     1       1.309   3.902  18.097  0.00  0.00    +0.000 A 
ATOM     23  C   UNL     1       2.593   3.640  17.597  0.00  0.00    +0.000 A 
ATOM     24  C   UNL     1       3.324   3.196  18.685  0.00  0.00    +0.000 A 
ENDBRANCH  18  24
ENDBRANCH  14  18
ENDBRANCH   1  15
TORSDOF 4
ENDMDL
MODEL 2
REMARK VINA RESULT:      -7.7      0.494      1.321
REMARK  Name = 
REMARK  5 active torsions:
REMARK  status: ('A' for Active; 'I' for Inactive)
REMARK    1  A    between atoms: C_1  and  N_2
REMARK    2  A    between atoms: C_6  and  C_7
REMARK    3  A    between atoms: C_7  and  N_8
REMARK    4  A    between atoms: C_9  and  C_11
REMARK    5  A    between atoms: C_14  and  C_15
REMARK                            x       y       z     vdW  Elec       q    Type
REMARK                         _______ _______ _______ _____ _____    ______ ____
ROOT
ATOM      1  C   UNL     1       6.808   5.959  18.034  0.00  0.00    +0.000 A 
ATOM      2  C   UNL     1       6.538   7.025  17.259  0.00  0.00    +0.000 A 
ATOM      3  C   UNL     1       7.236   8.281  17.422  0.00  0.00    +0.000 A 
ATOM      4  C   UNL     1       8.196   8.400  18.351  0.00  0.00    +0.000 A 
ATOM      5  N   UNL     1       8.515   7.314  19.130  0.00  0.00    +0.000 N 
ATOM      6  C   UNL     1       7.891   6.090  19.053  0.00  0.00    +0.000 A 
ATOM      7  O   UNL     1       8.204   5.157  19.789  0.00  0.00    +0.000 OA
ATOM      8  H   UNL     1       9.250   7.417  19.822  0.00  0.00    +0.000 HD
ENDROOT
BRANCH   4   9
ATOM      9  C   UNL     1       8.895   9.628  18.571  0.00  0.00    +0.000 A 
ATOM     10  C   UNL     1       9.237  10.653  17.691  0.00  0.00    +0.000 A 
ATOM     11  C   UNL     1       9.921  11.658  18.414  0.00  0.00    +0.000 A 
ATOM     12  C   UNL     1       9.969  11.211  19.710  0.00  0.00    +0.000 A 
ATOM     13  O   UNL     1       9.360  10.006  19.819  0.00  0.00    +0.000 OA
ENDBRANCH   4   9
BRANCH   1  15
ATOM     14  N   UNL     1       5.347   4.244  18.960  0.00  0.00    +0.000 N 
ATOM     15  C   UNL     1       5.967   4.741  17.842  0.00  0.00    +0.000 C 
ATOM     16  O   UNL     1       5.810   4.243  16.729  0.00  0.00    +0.000 OA
ATOM     17  H   UNL     1       5.630   4.586  19.879  0.00  0.00    +0.000 HD
BRANCH  14  18
ATOM     18  C   UNL     1       4.494   3.089  18.855  0.00  0.00    +0.000 C 
BRANCH  18  24
ATOM     19  C   UNL     1       1.889   4.479  17.833  0.00  0.00    +0.000 C 
ATOM     20  N   UNL     1       2.106   3.891  19.134  0.00  0.00    +0.000 N 
ATOM     21  N   UNL     1       1.086   3.887  20.015  0.00  0.00    +0.000 NA
ATOM     22  C   UNL     1       1.595   3.305  21.100  0.00  0.00    +0.000 A 
ATOM     23  C   UNL     1       2.937   2.937  20.923  0.00  0.00    +0.000 A 
ATOM     24  C   UNL     1       3.248   3.306  19.626  0.00  0.00    +0.000 A 
ENDBRANCH  18  24
ENDBRANCH  14  18
ENDBRANCH   1  15
TORSDOF 4
ENDMDL
MODEL 3
REMARK VINA RESULT:      -7.4      4.691      6.691
REMARK  Name = 
REMARK  5 active torsions:
REMARK  status: ('A' for Active; 'I' for Inactive)
REMARK    1  A    between atoms: C_1  and  N_2
REMARK    2  A    between atoms: C_6  and  C_7
REMARK    3  A    between atoms: C_7  and  N_8
REMARK    4  A    between atoms: C_9  and  C_11
REMARK    5  A    between atoms: C_14  and  C_15
REMARK                            x       y       z     vdW  Elec       q    Type
REMARK                         _______ _______ _______ _____ _____    ______ ____
ROOT
ATOM      1  C   UNL     1       2.916   5.896  19.227  0.00  0.00    +0.000 A 
ATOM      2  C   UNL     1       2.216   5.664  20.353  0.00  0.00    +0.000 A 
ATOM      3  C   UNL     1       1.433   6.699  20.989  0.00  0.00    +0.000 A 
ATOM      4  C   UNL     1       1.372   7.925  20.447  0.00  0.00    +0.000 A 
ATOM      5  N   UNL     1       2.049   8.176  19.279  0.00  0.00    +0.000 N 
ATOM      6  C   UNL     1       2.830   7.256  18.617  0.00  0.00    +0.000 A 
ATOM      7  O   UNL     1       3.429   7.541  17.583  0.00  0.00    +0.000 OA
ATOM      8  H   UNL     1       1.986   9.105  18.876  0.00  0.00    +0.000 HD
ENDROOT
BRANCH   4   9
ATOM      9  C   UNL     1       0.636   8.990  21.054  0.00  0.00    +0.000 A 
ATOM     10  C   UNL     1       0.316   9.233  22.389  0.00  0.00    +0.000 A 
ATOM     11  C   UNL     1      -0.427  10.435  22.462  0.00  0.00    +0.000 A 
ATOM     12  C   UNL     1      -0.532  10.882  21.169  0.00  0.00    +0.000 A 
ATOM     13  O   UNL     1       0.099  10.034  20.321  0.00  0.00    +0.000 OA
ENDBRANCH   4   9
BRANCH   1  15
ATOM     14  N   UNL     1       3.802   4.635  17.341  0.00  0.00    +0.000 N 
ATOM     15  C   UNL     1       3.762   4.784  18.704  0.00  0.00    +0.000 C 
ATOM     16  O   UNL     1       4.418   4.070  19.461  0.00  0.00    +0.000 OA
ATOM     17  H   UNL     1       3.124   5.137  16.767  0.00  0.00    +0.000 HD
BRANCH  14  18
ATOM     18  C   UNL     1       4.617   3.603  16.754  0.00  0.00    +0.000 C 
BRANCH  18  24
ATOM     19  C   UNL     1       7.410   4.719  17.601  0.00  0.00    +0.000 C 
ATOM     20  N   UNL     1       6.869   4.657  16.263  0.00  0.00    +0.000 N 
ATOM     21  N   UNL     1       7.638   5.079  15.239  0.00  0.00    +0.000 NA
ATOM     22  C   UNL     1       6.867   4.914  14.165  0.00  0.00    +0.000 A 
ATOM     23  C   UNL     1       5.608   4.390  14.491  0.00  0.00    +0.000 A 
ATOM     24  C   UNL     1       5.634   4.207  15.862  0.00  0.00    +0.000 A 
ENDBRANCH  18  24
ENDBRANCH  14  18
ENDBRANCH   1  15
TORSDOF 4
ENDMDL
MODEL 4
REMARK VINA RESULT:      -7.4      0.984      1.205
REMARK  Name = 
REMARK  5 active torsions:
REMARK  status: ('A' for Active; 'I' for Inactive)
REMARK    1  A    between atoms: C_1  and  N_2
REMARK    2  A    between atoms: C_6  and  C_7
REMARK    3  A    between atoms: C_7  and  N_8
REMARK    4  A    between atoms: C_9  and  C_11
REMARK    5  A    between atoms: C_14  and  C_15
REMARK                            x       y       z     vdW  Elec       q    Type
REMARK                         _______ _______ _______ _____ _____    ______ ____
ROOT
ATOM      1  C   UNL     1       7.036   6.194  17.689  0.00  0.00    +0.000 A 
ATOM      2  C   UNL     1       6.861   7.320  16.972  0.00  0.00    +0.000 A 
ATOM      3  C   UNL     1       7.522   8.557  17.324  0.00  0.00    +0.000 A 
ATOM      4  C   UNL     1       8.353   8.599  18.378  0.00  0.00    +0.000 A 
ATOM      5  N   UNL     1       8.576   7.454  19.103  0.00  0.00    +0.000 N 
ATOM      6  C   UNL     1       7.976   6.241  18.848  0.00  0.00    +0.000 A 
ATOM      7  O   UNL     1       8.199   5.252  19.542  0.00  0.00    +0.000 OA
ATOM      8  H   UNL     1       9.213   7.500  19.891  0.00  0.00    +0.000 HD
ENDROOT
BRANCH   4   9
ATOM      9  C   UNL     1       9.007   9.804  18.784  0.00  0.00    +0.000 A 
ATOM     10  C   UNL     1       9.279  10.311  20.053  0.00  0.00    +0.000 A 
ATOM     11  C   UNL     1       9.959  11.543  19.909  0.00  0.00    +0.000 A 
ATOM     12  C   UNL     1      10.078  11.742  18.557  0.00  0.00    +0.000 A 
ATOM     13  O   UNL     1       9.519  10.714  17.875  0.00  0.00    +0.000 OA
ENDBRANCH   4   9
BRANCH   1  15
ATOM     14  N   UNL     1       4.963   4.921  17.795  0.00  0.00    +0.000 N 
ATOM     15  C   UNL     1       6.237   4.998  17.293  0.00  0.00    +0.000 C 
ATOM     16  O   UNL     1       6.691   4.154  16.522  0.00  0.00    +0.000 OA
ATOM     17  H   UNL     1       4.688   5.550  18.549  0.00  0.00    +0.000 HD
BRANCH  14  18
ATOM     18  C   UNL     1       4.116   3.813  17.437  0.00  0.00    +0.000 C 
BRANCH  18  24
ATOM     19  C   UNL     1       4.302   2.276  20.151  0.00  0.00    +0.000 C 
ATOM     20  N   UNL     1       3.162   3.003  19.641  0.00  0.00    +0.000 N 
ATOM     21  N   UNL     1       2.056   3.082  20.407  0.00  0.00    +0.000 NA
ATOM     22  C   UNL     1       1.199   3.785  19.668  0.00  0.00    +0.000 A 
ATOM     23  C   UNL     1       1.746   4.156  18.431  0.00  0.00    +0.000 A 
ATOM     24  C   UNL     1       3.036   3.657  18.439  0.00  0.00    +0.000 A 
ENDBRANCH  18  24
ENDBRANCH  14  18
ENDBRANCH   1  15
TORSDOF 4
ENDMDL
MODEL 5
REMARK VINA RESULT:      -7.2      4.742      6.612
REMARK  Name = 
REMARK  5 active torsions:
REMARK  status: ('A' for Active; 'I' for Inactive)
REMARK    1  A    between atoms: C_1  and  N_2
REMARK    2  A    between atoms: C_6  and  C_7
REMARK    3  A    between atoms: C_7  and  N_8
REMARK    4  A    between atoms: C_9  and  C_11
REMARK    5  A    between atoms: C_14  and  C_15
REMARK                            x       y       z     vdW  Elec       q    Type
REMARK                         _______ _______ _______ _____ _____    ______ ____
ROOT
ATOM      1  C   UNL     1       2.551   6.066  18.959  0.00  0.00    +0.000 A 
ATOM      2  C   UNL     1       2.415   7.281  18.394  0.00  0.00    +0.000 A 
ATOM      3  C   UNL     1       1.808   8.385  19.102  0.00  0.00    +0.000 A 
ATOM      4  C   UNL     1       1.383   8.222  20.364  0.00  0.00    +0.000 A 
ATOM      5  N   UNL     1       1.544   7.003  20.975  0.00  0.00    +0.000 N 
ATOM      6  C   UNL     1       2.095   5.895  20.370  0.00  0.00    +0.000 A 
ATOM      7  O   UNL     1       2.198   4.821  20.959  0.00  0.00    +0.000 OA
ATOM      8  H   UNL     1       1.226   6.897  21.932  0.00  0.00    +0.000 HD
ENDROOT
BRANCH   4   9
ATOM      9  C   UNL     1       0.750   9.276  21.097  0.00  0.00    +0.000 A 
ATOM     10  C   UNL     1       0.040   9.254  22.296  0.00  0.00    +0.000 A 
ATOM     11  C   UNL     1      -0.375  10.572  22.597  0.00  0.00    +0.000 A 
ATOM     12  C   UNL     1       0.099  11.350  21.571  0.00  0.00    +0.000 A 
ATOM     13  O   UNL     1       0.773  10.593  20.673  0.00  0.00    +0.000 OA
ENDBRANCH   4   9
BRANCH   1  15
ATOM     14  N   UNL     1       4.465   4.785  18.168  0.00  0.00    +0.000 N 
ATOM     15  C   UNL     1       3.108   4.974  18.109  0.00  0.00    +0.000 C 
ATOM     16  O   UNL     1       2.375   4.259  17.427  0.00  0.00    +0.000 OA
ATOM     17  H   UNL     1       5.046   5.496  18.615  0.00  0.00    +0.000 HD
BRANCH  14  18
ATOM     18  C   UNL     1       5.079   3.733  17.401  0.00  0.00    +0.000 C 
BRANCH  18  24
ATOM     19  C   UNL     1       7.449   5.753  17.659  0.00  0.00    +0.000 C 
ATOM     20  N   UNL     1       6.932   5.171  16.442  0.00  0.00    +0.000 N 
ATOM     21  N   UNL     1       7.537   5.478  15.277  0.00  0.00    +0.000 NA
ATOM     22  C   UNL     1       6.833   4.814  14.361  0.00  0.00    +0.000 A 
ATOM     23  C   UNL     1       5.778   4.084  14.929  0.00  0.00    +0.000 A 
ATOM     24  C   UNL     1       5.871   4.310  16.291  0.00  0.00    +0.000 A 
ENDBRANCH  18  24
ENDBRANCH  14  18
ENDBRANCH   1  15
TORSDOF 4
ENDMDL
MODEL 6
REMARK VINA RESULT:      -7.1      4.717      6.536
REMARK  Name = 
REMARK  5 active torsions:
REMARK  status: ('A' for Active; 'I' for Inactive)
REMARK    1  A    between atoms: C_1  and  N_2
REMARK    2  A    between atoms: C_6  and  C_7
REMARK    3  A    between atoms: C_7  and  N_8
REMARK    4  A    between atoms: C_9  and  C_11
REMARK    5  A    between atoms: C_14  and  C_15
REMARK                            x       y       z     vdW  Elec       q    Type
REMARK                         _______ _______ _______ _____ _____    ______ ____
ROOT
ATOM      1  C   UNL     1       3.064   5.916  19.213  0.00  0.00    +0.000 A 
ATOM      2  C   UNL     1       3.009   7.050  18.490  0.00  0.00    +0.000 A 
ATOM      3  C   UNL     1       2.207   8.179  18.905  0.00  0.00    +0.000 A 
ATOM      4  C   UNL     1       1.508   8.123  20.049  0.00  0.00    +0.000 A 
ATOM      5  N   UNL     1       1.577   6.990  20.823  0.00  0.00    +0.000 N 
ATOM      6  C   UNL     1       2.301   5.865  20.495  0.00  0.00    +0.000 A 
ATOM      7  O   UNL     1       2.312   4.871  21.217  0.00  0.00    +0.000 OA
ATOM      8  H   UNL     1       1.050   6.966  21.689  0.00  0.00    +0.000 HD
ENDROOT
BRANCH   4   9
ATOM      9  C   UNL     1       0.677   9.201  20.487  0.00  0.00    +0.000 A 
ATOM     10  C   UNL     1      -0.060  10.138  19.764  0.00  0.00    +0.000 A 
ATOM     11  C   UNL     1      -0.722  10.992  20.676  0.00  0.00    +0.000 A 
ATOM     12  C   UNL     1      -0.367  10.544  21.923  0.00  0.00    +0.000 A 
ATOM     13  O   UNL     1       0.462   9.477  21.827  0.00  0.00    +0.000 OA
ENDBRANCH   4   9
BRANCH   1  15
ATOM     14  N   UNL     1       3.854   4.660  17.282  0.00  0.00    +0.000 N 
ATOM     15  C   UNL     1       3.850   4.781  18.649  0.00  0.00    +0.000 C 
ATOM     16  O   UNL     1       4.492   4.024  19.376  0.00  0.00    +0.000 OA
ATOM     17  H   UNL     1       3.186   5.203  16.734  0.00  0.00    +0.000 HD
BRANCH  14  18
ATOM     18  C   UNL     1       4.612   3.609  16.656  0.00  0.00    +0.000 C 
BRANCH  18  24
ATOM     19  C   UNL     1       7.441   4.645  17.486  0.00  0.00    +0.000 C 
ATOM     20  N   UNL     1       6.889   4.603  16.153  0.00  0.00    +0.000 N 
ATOM     21  N   UNL     1       7.661   5.009  15.125  0.00  0.00    +0.000 NA
ATOM     22  C   UNL     1       6.879   4.869  14.055  0.00  0.00    +0.000 A 
ATOM     23  C   UNL     1       5.608   4.378  14.389  0.00  0.00    +0.000 A 
ATOM     24  C   UNL     1       5.639   4.188  15.759  0.00  0.00    +0.000 A 
ENDBRANCH  18  24
ENDBRANCH  14  18
ENDBRANCH   1  15
TORSDOF 4
ENDMDL
MODEL 7
REMARK VINA RESULT:      -7.1      5.295      6.671
REMARK  Name = 
REMARK  5 active torsions:
REMARK  status: ('A' for Active; 'I' for Inactive)
REMARK    1  A    between atoms: C_1  and  N_2
REMARK    2  A    between atoms: C_6  and  C_7
REMARK    3  A    between atoms: C_7  and  N_8
REMARK    4  A    between atoms: C_9  and  C_11
REMARK    5  A    between atoms: C_14  and  C_15
REMARK                            x       y       z     vdW  Elec       q    Type
REMARK                         _______ _______ _______ _____ _____    ______ ____
ROOT
ATOM      1  C   UNL     1       2.778   7.216  18.800  0.00  0.00    +0.000 A 
ATOM      2  C   UNL     1       2.840   8.088  17.777  0.00  0.00    +0.000 A 
ATOM      3  C   UNL     1       2.033   9.287  17.748  0.00  0.00    +0.000 A 
ATOM      4  C   UNL     1       1.209   9.566  18.770  0.00  0.00    +0.000 A 
ATOM      5  N   UNL     1       1.154   8.710  19.842  0.00  0.00    +0.000 N 
ATOM      6  C   UNL     1       1.874   7.541  19.943  0.00  0.00    +0.000 A 
ATOM      7  O   UNL     1       1.772   6.802  20.919  0.00  0.00    +0.000 OA
ATOM      8  H   UNL     1       0.533   8.940  20.611  0.00  0.00    +0.000 HD
ENDROOT
BRANCH   4   9
ATOM      9  C   UNL     1       0.369  10.724  18.775  0.00  0.00    +0.000 A 
ATOM     10  C   UNL     1       0.574  11.998  19.303  0.00  0.00    +0.000 A 
ATOM     11  C   UNL     1      -0.569  12.786  19.032  0.00  0.00    +0.000 A 
ATOM     12  C   UNL     1      -1.429  11.965  18.348  0.00  0.00    +0.000 A 
ATOM     13  O   UNL     1      -0.883  10.736  18.184  0.00  0.00    +0.000 OA
ENDBRANCH   4   9
BRANCH   1  15
ATOM     14  N   UNL     1       3.581   5.345  17.464  0.00  0.00    +0.000 N 
ATOM     15  C   UNL     1       3.586   5.967  18.687  0.00  0.00    +0.000 C 
ATOM     16  O   UNL     1       4.251   5.548  19.633  0.00  0.00    +0.000 OA
ATOM     17  H   UNL     1       2.896   5.632  16.764  0.00  0.00    +0.000 HD
BRANCH  14  18
ATOM     18  C   UNL     1       4.359   4.150  17.262  0.00  0.00    +0.000 C 
BRANCH  18  24
ATOM     19  C   UNL     1       7.328   4.839  17.946  0.00  0.00    +0.000 C 
ATOM     20  N   UNL     1       6.756   4.679  16.630  0.00  0.00    +0.000 N 
ATOM     21  N   UNL     1       7.567   4.791  15.559  0.00  0.00    +0.000 NA
ATOM     22  C   UNL     1       6.755   4.613  14.517  0.00  0.00    +0.000 A 
ATOM     23  C   UNL     1       5.428   4.389  14.912  0.00  0.00    +0.000 A 
ATOM     24  C   UNL     1       5.450   4.412  16.295  0.00  0.00    +0.000 A 
ENDBRANCH  18  24
ENDBRANCH  14  18
ENDBRANCH   1  15
TORSDOF 4
ENDMDL
MODEL 8
REMARK VINA RESULT:      -7.0      5.131      7.023
REMARK  Name = 
REMARK  5 active torsions:
REMARK  status: ('A' for Active; 'I' for Inactive)
REMARK    1  A    between atoms: C_1  and  N_2
REMARK    2  A    between atoms: C_6  and  C_7
REMARK    3  A    between atoms: C_7  and  N_8
REMARK    4  A    between atoms: C_9  and  C_11
REMARK    5  A    between atoms: C_14  and  C_15
REMARK                            x       y       z     vdW  Elec       q    Type
REMARK                         _______ _______ _______ _____ _____    ______ ____
ROOT
ATOM      1  C   UNL     1       2.531   7.362  18.648  0.00  0.00    +0.000 A 
ATOM      2  C   UNL     1       2.283   6.879  19.880  0.00  0.00    +0.000 A 
ATOM      3  C   UNL     1       1.518   7.629  20.851  0.00  0.00    +0.000 A 
ATOM      4  C   UNL     1       1.016   8.831  20.529  0.00  0.00    +0.000 A 
ATOM      5  N   UNL     1       1.225   9.329  19.267  0.00  0.00    +0.000 N 
ATOM      6  C   UNL     1       1.953   8.691  18.288  0.00  0.00    +0.000 A 
ATOM      7  O   UNL     1       2.124   9.193  17.179  0.00  0.00    +0.000 OA
ATOM      8  H   UNL     1       0.832  10.235  19.035  0.00  0.00    +0.000 HD
ENDROOT
BRANCH   4   9
ATOM      9  C   UNL     1       0.279   9.623  21.464  0.00  0.00    +0.000 A 
ATOM     10  C   UNL     1      -0.243   9.306  22.717  0.00  0.00    +0.000 A 
ATOM     11  C   UNL     1      -0.883  10.453  23.242  0.00  0.00    +0.000 A 
ATOM     12  C   UNL     1      -0.726  11.429  22.291  0.00  0.00    +0.000 A 
ATOM     13  O   UNL     1      -0.034  10.951  21.229  0.00  0.00    +0.000 OA
ENDBRANCH   4   9
BRANCH   1  15
ATOM     14  N   UNL     1       3.323   5.185  17.898  0.00  0.00    +0.000 N 
ATOM     15  C   UNL     1       3.405   6.547  17.756  0.00  0.00    +0.000 C 
ATOM     16  O   UNL     1       4.126   7.076  16.911  0.00  0.00    +0.000 OA
ATOM     17  H   UNL     1       2.840   4.799  18.710  0.00  0.00    +0.000 HD
BRANCH  14  18
ATOM     18  C   UNL     1       4.112   4.326  17.055  0.00  0.00    +0.000 C 
BRANCH  18  24
ATOM     19  C   UNL     1       6.504   4.175  15.049  0.00  0.00    +0.000 C 
ATOM     20  N   UNL     1       6.575   4.439  16.467  0.00  0.00    +0.000 N 
ATOM     21  N   UNL     1       7.782   4.692  17.013  0.00  0.00    +0.000 NA
ATOM     22  C   UNL     1       7.521   4.874  18.307  0.00  0.00    +0.000 A 
ATOM     23  C   UNL     1       6.156   4.737  18.597  0.00  0.00    +0.000 A 
ATOM     24  C   UNL     1       5.550   4.476  17.381  0.00  0.00    +0.000 A 
ENDBRANCH  18  24
ENDBRANCH  14  18
ENDBRANCH   1  15
TORSDOF 4
ENDMDL
MODEL 9
REMARK VINA RESULT:      -7.0      5.423      6.598
REMARK  Name = 
REMARK  5 active torsions:
REMARK  status: ('A' for Active; 'I' for Inactive)
REMARK    1  A    between atoms: C_1  and  N_2
REMARK    2  A    between atoms: C_6  and  C_7
REMARK    3  A    between atoms: C_7  and  N_8
REMARK    4  A    between atoms: C_9  and  C_11
REMARK    5  A    between atoms: C_14  and  C_15
REMARK                            x       y       z     vdW  Elec       q    Type
REMARK                         _______ _______ _______ _____ _____    ______ ____
ROOT
ATOM      1  C   UNL     1       2.347   7.423  18.804  0.00  0.00    +0.000 A 
ATOM      2  C   UNL     1       2.428   8.273  17.764  0.00  0.00    +0.000 A 
ATOM      3  C   UNL     1       1.818   9.583  17.802  0.00  0.00    +0.000 A 
ATOM      4  C   UNL     1       1.168   9.990  18.903  0.00  0.00    +0.000 A 
ATOM      5  N   UNL     1       1.103   9.154  19.991  0.00  0.00    +0.000 N 
ATOM      6  C   UNL     1       1.639   7.887  20.034  0.00  0.00    +0.000 A 
ATOM      7  O   UNL     1       1.535   7.175  21.030  0.00  0.00    +0.000 OA
ATOM      8  H   UNL     1       0.615   9.479  20.819  0.00  0.00    +0.000 HD
ENDROOT
BRANCH   4   9
ATOM      9  C   UNL     1       0.523  11.264  18.979  0.00  0.00    +0.000 A 
ATOM     10  C   UNL     1       1.044  12.555  18.906  0.00  0.00    +0.000 A 
ATOM     11  C   UNL     1      -0.022  13.477  19.029  0.00  0.00    +0.000 A 
ATOM     12  C   UNL     1      -1.154  12.715  19.171  0.00  0.00    +0.000 A 
ATOM     13  O   UNL     1      -0.845  11.397  19.140  0.00  0.00    +0.000 OA
ENDBRANCH   4   9
BRANCH   1  15
ATOM     14  N   UNL     1       4.202   5.875  19.112  0.00  0.00    +0.000 N 
ATOM     15  C   UNL     1       2.933   6.063  18.626  0.00  0.00    +0.000 C 
ATOM     16  O   UNL     1       2.289   5.153  18.106  0.00  0.00    +0.000 OA
ATOM     17  H   UNL     1       4.754   6.689  19.386  0.00  0.00    +0.000 HD
BRANCH  14  18
ATOM     18  C   UNL     1       4.830   4.584  19.006  0.00  0.00    +0.000 C 
BRANCH  18  24
ATOM     19  C   UNL     1       7.795   5.551  18.816  0.00  0.00    +0.000 C 
ATOM     20  N   UNL     1       7.012   4.942  17.767  0.00  0.00    +0.000 N 
ATOM     21  N   UNL     1       7.601   4.713  16.576  0.00  0.00    +0.000 NA
ATOM     22  C   UNL     1       6.635   4.172  15.834  0.00  0.00    +0.000 A 
ATOM     23  C   UNL     1       5.428   4.053  16.540  0.00  0.00    +0.000 A 
ATOM     24  C   UNL     1       5.698   4.539  17.806  0.00  0.00    +0.000 A 
ENDBRANCH  18  24
ENDBRANCH  14  18
ENDBRANCH   1  15
TORSDOF 4
ENDMDL
