MODEL 1
REMARK VINA RESULT:      -7.9      0.000      0.000
REMARK  Name = 
REMARK  3 active torsions:
REMARK  status: ('A' for Active; 'I' for Inactive)
REMARK    1  A    between atoms: C_1  and  O_2
REMARK    2  A    between atoms: O_2  and  C_3
REMARK    3  A    between atoms: C_10  and  C_11
REMARK                            x       y       z     vdW  Elec       q    Type
REMARK                         _______ _______ _______ _____ _____    ______ ____
ROOT
ATOM      1  C   UNL     1       6.194   4.938  16.416  0.00  0.00    +0.000 A 
ATOM      2  C   UNL     1       5.207   3.945  16.375  0.00  0.00    +0.000 A 
ATOM      3  C   UNL     1       4.067   4.103  17.145  0.00  0.00    +0.000 A 
ATOM      4  C   UNL     1       3.911   5.198  17.996  0.00  0.00    +0.000 A 
ATOM      5  C   UNL     1       4.900   6.166  18.090  0.00  0.00    +0.000 A 
ATOM      6  C   UNL     1       6.045   6.031  17.293  0.00  0.00    +0.000 A 
ATOM      7 BR   UNL     1       7.366   7.393  17.407  0.00  0.00    +0.000 Br
ATOM      8  C   UNL     1       2.598   5.137  18.733  0.00  0.00    +0.000 C 
ATOM      9  C   UNL     1       2.811   4.827  20.211  0.00  0.00    +0.000 C 
ATOM     10  C   UNL     1       1.822   4.081  17.889  0.00  0.00    +0.000 C 
ATOM     11  C   UNL     1       0.946   3.063  18.609  0.00  0.00    +0.000 C 
ATOM     12  N   UNL     1       1.594   1.743  18.500  0.00  0.00    +0.000 NA
ATOM     13  C   UNL     1       2.967   1.976  18.039  0.00  0.00    +0.000 C 
ATOM     14  C   UNL     1       2.871   3.217  17.170  0.00  0.00    +0.000 C 
ATOM     15  H   UNL     1       1.100   1.199  17.792  0.00  0.00    +0.000 HD
ENDROOT
BRANCH   1  17
ATOM     16  C   UNL     1       7.072   4.803  14.235  0.00  0.00    +0.000 C 
ATOM     17  O   UNL     1       7.323   4.882  15.636  0.00  0.00    +0.000 OA
ENDBRANCH   1  17
TORSDOF 1
ENDMDL
MODEL 2
REMARK VINA RESULT:      -7.1      1.924      2.774
REMARK  Name = 
REMARK  3 active torsions:
REMARK  status: ('A' for Active; 'I' for Inactive)
REMARK    1  A    between atoms: C_1  and  O_2
REMARK    2  A    between atoms: O_2  and  C_3
REMARK    3  A    between atoms: C_10  and  C_11
REMARK                            x       y       z     vdW  Elec       q    Type
REMARK                         _______ _______ _______ _____ _____    ______ ____
ROOT
ATOM      1  C   UNL     1       6.311   4.418  18.150  0.00  0.00    +0.000 A 
ATOM      2  C   UNL     1       5.493   4.076  19.234  0.00  0.00    +0.000 A 
ATOM      3  C   UNL     1       4.193   3.665  18.986  0.00  0.00    +0.000 A 
ATOM      4  C   UNL     1       3.674   3.640  17.692  0.00  0.00    +0.000 A 
ATOM      5  C   UNL     1       4.452   4.025  16.610  0.00  0.00    +0.000 A 
ATOM      6  C   UNL     1       5.777   4.414  16.846  0.00  0.00    +0.000 A 
ATOM      7 BR   UNL     1       6.837   4.894  15.343  0.00  0.00    +0.000 Br
ATOM      8  C   UNL     1       2.241   3.170  17.685  0.00  0.00    +0.000 C 
ATOM      9  C   UNL     1       1.288   4.317  17.362  0.00  0.00    +0.000 C 
ATOM     10  C   UNL     1       2.124   2.526  19.099  0.00  0.00    +0.000 C 
ATOM     11  C   UNL     1       0.838   2.723  19.894  0.00  0.00    +0.000 C 
ATOM     12  N   UNL     1       1.132   3.622  21.025  0.00  0.00    +0.000 NA
ATOM     13  C   UNL     1       2.441   4.232  20.758  0.00  0.00    +0.000 C 
ATOM     14  C   UNL     1       3.203   3.173  19.983  0.00  0.00    +0.000 C 
ATOM     15  H   UNL     1       1.200   3.061  21.874  0.00  0.00    +0.000 HD
ENDROOT
BRANCH   1  17
ATOM     16  C   UNL     1       7.829   5.985  19.037  0.00  0.00    +0.000 C 
ATOM     17  O   UNL     1       7.628   4.776  18.310  0.00  0.00    +0.000 OA
ENDBRANCH   1  17
TORSDOF 1
ENDMDL
MODEL 3
REMARK VINA RESULT:      -7.0      1.986      3.024
REMARK  Name = 
REMARK  3 active torsions:
REMARK  status: ('A' for Active; 'I' for Inactive)
REMARK    1  A    between atoms: C_1  and  O_2
REMARK    2  A    between atoms: O_2  and  C_3
REMARK    3  A    between atoms: C_10  and  C_11
REMARK                            x       y       z     vdW  Elec       q    Type
REMARK                         _______ _______ _______ _____ _____    ______ ____
ROOT
ATOM      1  C   UNL     1       6.186   5.845  16.871  0.00  0.00    +0.000 A 
ATOM      2  C   UNL     1       5.551   6.146  18.083  0.00  0.00    +0.000 A 
ATOM      3  C   UNL     1       4.461   5.385  18.472  0.00  0.00    +0.000 A 
ATOM      4  C   UNL     1       3.955   4.370  17.660  0.00  0.00    +0.000 A 
ATOM      5  C   UNL     1       4.538   4.091  16.432  0.00  0.00    +0.000 A 
ATOM      6  C   UNL     1       5.660   4.835  16.041  0.00  0.00    +0.000 A 
ATOM      7 BR   UNL     1       6.468   4.405  14.375  0.00  0.00    +0.000 Br
ATOM      8  C   UNL     1       2.764   3.700  18.296  0.00  0.00    +0.000 C 
ATOM      9  C   UNL     1       1.475   4.058  17.563  0.00  0.00    +0.000 C 
ATOM     10  C   UNL     1       2.898   4.178  19.774  0.00  0.00    +0.000 C 
ATOM     11  C   UNL     1       1.636   4.550  20.544  0.00  0.00    +0.000 C 
ATOM     12  N   UNL     1       1.632   6.011  20.738  0.00  0.00    +0.000 NA
ATOM     13  C   UNL     1       2.654   6.565  19.842  0.00  0.00    +0.000 C 
ATOM     14  C   UNL     1       3.713   5.481  19.756  0.00  0.00    +0.000 C 
ATOM     15  H   UNL     1       1.901   6.209  21.702  0.00  0.00    +0.000 HD
ENDROOT
BRANCH   1  17
ATOM     16  C   UNL     1       7.704   7.598  17.283  0.00  0.00    +0.000 C 
ATOM     17  O   UNL     1       7.308   6.514  16.447  0.00  0.00    +0.000 OA
ENDBRANCH   1  17
TORSDOF 1
ENDMDL
MODEL 4
REMARK VINA RESULT:      -6.9      1.123      1.220
REMARK  Name = 
REMARK  3 active torsions:
REMARK  status: ('A' for Active; 'I' for Inactive)
REMARK    1  A    between atoms: C_1  and  O_2
REMARK    2  A    between atoms: O_2  and  C_3
REMARK    3  A    between atoms: C_10  and  C_11
REMARK                            x       y       z     vdW  Elec       q    Type
REMARK                         _______ _______ _______ _____ _____    ______ ____
ROOT
ATOM      1  C   UNL     1       5.657   5.370  16.863  0.00  0.00    +0.000 A 
ATOM      2  C   UNL     1       4.431   4.726  16.654  0.00  0.00    +0.000 A 
ATOM      3  C   UNL     1       3.647   4.407  17.750  0.00  0.00    +0.000 A 
ATOM      4  C   UNL     1       4.080   4.664  19.051  0.00  0.00    +0.000 A 
ATOM      5  C   UNL     1       5.314   5.253  19.283  0.00  0.00    +0.000 A 
ATOM      6  C   UNL     1       6.102   5.607  18.179  0.00  0.00    +0.000 A 
ATOM      7 BR   UNL     1       7.770   6.453  18.520  0.00  0.00    +0.000 Br
ATOM      8  C   UNL     1       3.059   4.216  20.067  0.00  0.00    +0.000 C 
ATOM      9  C   UNL     1       3.544   2.986  20.828  0.00  0.00    +0.000 C 
ATOM     10  C   UNL     1       1.793   4.046  19.173  0.00  0.00    +0.000 C 
ATOM     11  C   UNL     1       0.861   2.869  19.435  0.00  0.00    +0.000 C 
ATOM     12  N   UNL     1       0.999   1.918  18.317  0.00  0.00    +0.000 NA
ATOM     13  C   UNL     1       2.202   2.306  17.571  0.00  0.00    +0.000 C 
ATOM     14  C   UNL     1       2.282   3.813  17.735  0.00  0.00    +0.000 C 
ATOM     15  H   UNL     1       0.189   2.019  17.705  0.00  0.00    +0.000 HD
ENDROOT
BRANCH   1  17
ATOM     16  C   UNL     1       6.963   4.710  15.019  0.00  0.00    +0.000 C 
ATOM     17  O   UNL     1       6.460   5.772  15.824  0.00  0.00    +0.000 OA
ENDBRANCH   1  17
TORSDOF 1
ENDMDL
MODEL 5
REMARK VINA RESULT:      -6.8      1.803      2.895
REMARK  Name = 
REMARK  3 active torsions:
REMARK  status: ('A' for Active; 'I' for Inactive)
REMARK    1  A    between atoms: C_1  and  O_2
REMARK    2  A    between atoms: O_2  and  C_3
REMARK    3  A    between atoms: C_10  and  C_11
REMARK                            x       y       z     vdW  Elec       q    Type
REMARK                         _______ _______ _______ _____ _____    ______ ____
ROOT
ATOM      1  C   UNL     1       5.695   6.026  16.992  0.00  0.00    +0.000 A 
ATOM      2  C   UNL     1       4.941   6.070  18.171  0.00  0.00    +0.000 A 
ATOM      3  C   UNL     1       4.286   4.924  18.589  0.00  0.00    +0.000 A 
ATOM      4  C   UNL     1       4.320   3.752  17.833  0.00  0.00    +0.000 A 
ATOM      5  C   UNL     1       5.018   3.703  16.635  0.00  0.00    +0.000 A 
ATOM      6  C   UNL     1       5.709   4.849  16.218  0.00  0.00    +0.000 A 
ATOM      7 BR   UNL     1       6.695   4.744  14.597  0.00  0.00    +0.000 Br
ATOM      8  C   UNL     1       3.523   2.653  18.489  0.00  0.00    +0.000 C 
ATOM      9  C   UNL     1       2.243   2.363  17.712  0.00  0.00    +0.000 C 
ATOM     10  C   UNL     1       3.367   3.211  19.936  0.00  0.00    +0.000 C 
ATOM     11  C   UNL     1       2.038   3.018  20.659  0.00  0.00    +0.000 C 
ATOM     12  N   UNL     1       1.378   4.332  20.761  0.00  0.00    +0.000 NA
ATOM     13  C   UNL     1       2.085   5.240  19.850  0.00  0.00    +0.000 C 
ATOM     14  C   UNL     1       3.518   4.739  19.851  0.00  0.00    +0.000 C 
ATOM     15  H   UNL     1       1.488   4.676  21.715  0.00  0.00    +0.000 HD
ENDROOT
BRANCH   1  17
ATOM     16  C   UNL     1       7.468   7.516  17.421  0.00  0.00    +0.000 C 
ATOM     17  O   UNL     1       6.421   7.104  16.546  0.00  0.00    +0.000 OA
ENDBRANCH   1  17
TORSDOF 1
ENDMDL
MODEL 6
REMARK VINA RESULT:      -6.8      3.314      4.411
REMARK  Name = 
REMARK  3 active torsions:
REMARK  status: ('A' for Active; 'I' for Inactive)
REMARK    1  A    between atoms: C_1  and  O_2
REMARK    2  A    between atoms: O_2  and  C_3
REMARK    3  A    between atoms: C_10  and  C_11
REMARK                            x       y       z     vdW  Elec       q    Type
REMARK                         _______ _______ _______ _____ _____    ______ ____
ROOT
ATOM      1  C   UNL     1       2.224   7.576  19.092  0.00  0.00    +0.000 A 
ATOM      2  C   UNL     1       2.619   6.518  18.263  0.00  0.00    +0.000 A 
ATOM      3  C   UNL     1       2.382   5.219  18.680  0.00  0.00    +0.000 A 
ATOM      4  C   UNL     1       1.812   4.947  19.923  0.00  0.00    +0.000 A 
ATOM      5  C   UNL     1       1.463   5.980  20.781  0.00  0.00    +0.000 A 
ATOM      6  C   UNL     1       1.670   7.299  20.357  0.00  0.00    +0.000 A 
ATOM      7 BR   UNL     1       1.142   8.697  21.532  0.00  0.00    +0.000 Br
ATOM      8  C   UNL     1       1.669   3.463  20.149  0.00  0.00    +0.000 C 
ATOM      9  C   UNL     1       2.655   2.970  21.203  0.00  0.00    +0.000 C 
ATOM     10  C   UNL     1       1.844   2.916  18.700  0.00  0.00    +0.000 C 
ATOM     11  C   UNL     1       2.638   1.632  18.489  0.00  0.00    +0.000 C 
ATOM     12  N   UNL     1       3.909   1.982  17.830  0.00  0.00    +0.000 NA
ATOM     13  C   UNL     1       4.059   3.439  17.935  0.00  0.00    +0.000 C 
ATOM     14  C   UNL     1       2.637   3.970  17.910  0.00  0.00    +0.000 C 
ATOM     15  H   UNL     1       3.841   1.731  16.844  0.00  0.00    +0.000 HD
ENDROOT
BRANCH   1  17
ATOM     16  C   UNL     1       1.389   9.359  17.800  0.00  0.00    +0.000 C 
ATOM     17  O   UNL     1       2.370   8.891  18.721  0.00  0.00    +0.000 OA
ENDBRANCH   1  17
TORSDOF 1
ENDMDL
MODEL 7
REMARK VINA RESULT:      -6.6      3.179      5.089
REMARK  Name = 
REMARK  3 active torsions:
REMARK  status: ('A' for Active; 'I' for Inactive)
REMARK    1  A    between atoms: C_1  and  O_2
REMARK    2  A    between atoms: O_2  and  C_3
REMARK    3  A    between atoms: C_10  and  C_11
REMARK                            x       y       z     vdW  Elec       q    Type
REMARK                         _______ _______ _______ _____ _____    ______ ____
ROOT
ATOM      1  C   UNL     1       2.394   4.013  18.162  0.00  0.00    +0.000 A 
ATOM      2  C   UNL     1       3.200   3.726  17.053  0.00  0.00    +0.000 A 
ATOM      3  C   UNL     1       4.478   4.256  17.002  0.00  0.00    +0.000 A 
ATOM      4  C   UNL     1       4.953   5.108  17.999  0.00  0.00    +0.000 A 
ATOM      5  C   UNL     1       4.151   5.447  19.079  0.00  0.00    +0.000 A 
ATOM      6  C   UNL     1       2.866   4.892  19.157  0.00  0.00    +0.000 A 
ATOM      7 BR   UNL     1       1.803   5.337  20.669  0.00  0.00    +0.000 Br
ATOM      8  C   UNL     1       6.362   5.560  17.710  0.00  0.00    +0.000 C 
ATOM      9  C   UNL     1       6.397   7.034  17.320  0.00  0.00    +0.000 C 
ATOM     10  C   UNL     1       6.798   4.526  16.627  0.00  0.00    +0.000 C 
ATOM     11  C   UNL     1       7.641   5.005  15.451  0.00  0.00    +0.000 C 
ATOM     12  N   UNL     1       6.801   4.967  14.240  0.00  0.00    +0.000 NA
ATOM     13  C   UNL     1       5.412   4.805  14.686  0.00  0.00    +0.000 C 
ATOM     14  C   UNL     1       5.516   3.995  15.966  0.00  0.00    +0.000 C 
ATOM     15  H   UNL     1       7.065   4.149  13.691  0.00  0.00    +0.000 HD
ENDROOT
BRANCH   1  17
ATOM     16  C   UNL     1       1.122   2.147  18.829  0.00  0.00    +0.000 C 
ATOM     17  O   UNL     1       1.139   3.476  18.315  0.00  0.00    +0.000 OA
ENDBRANCH   1  17
TORSDOF 1
ENDMDL
MODEL 8
REMARK VINA RESULT:      -6.4      1.861      2.237
REMARK  Name = 
REMARK  3 active torsions:
REMARK  status: ('A' for Active; 'I' for Inactive)
REMARK    1  A    between atoms: C_1  and  O_2
REMARK    2  A    between atoms: O_2  and  C_3
REMARK    3  A    between atoms: C_10  and  C_11
REMARK                            x       y       z     vdW  Elec       q    Type
REMARK                         _______ _______ _______ _____ _____    ______ ____
ROOT
ATOM      1  C   UNL     1       5.197   4.301  17.197  0.00  0.00    +0.000 A 
ATOM      2  C   UNL     1       4.741   3.343  18.111  0.00  0.00    +0.000 A 
ATOM      3  C   UNL     1       3.550   3.570  18.779  0.00  0.00    +0.000 A 
ATOM      4  C   UNL     1       2.830   4.751  18.600  0.00  0.00    +0.000 A 
ATOM      5  C   UNL     1       3.291   5.736  17.738  0.00  0.00    +0.000 A 
ATOM      6  C   UNL     1       4.480   5.503  17.034  0.00  0.00    +0.000 A 
ATOM      7 BR   UNL     1       5.069   6.847  15.826  0.00  0.00    +0.000 Br
ATOM      8  C   UNL     1       1.580   4.766  19.443  0.00  0.00    +0.000 C 
ATOM      9  C   UNL     1       1.704   5.764  20.591  0.00  0.00    +0.000 C 
ATOM     10  C   UNL     1       1.450   3.259  19.821  0.00  0.00    +0.000 C 
ATOM     11  C   UNL     1       1.001   2.891  21.231  0.00  0.00    +0.000 C 
ATOM     12  N   UNL     1       2.156   2.316  21.944  0.00  0.00    +0.000 NA
ATOM     13  C   UNL     1       3.349   2.624  21.146  0.00  0.00    +0.000 C 
ATOM     14  C   UNL     1       2.853   2.641  19.711  0.00  0.00    +0.000 C 
ATOM     15  H   UNL     1       2.040   1.303  21.980  0.00  0.00    +0.000 HD
ENDROOT
BRANCH   1  17
ATOM     16  C   UNL     1       7.542   4.494  17.113  0.00  0.00    +0.000 C 
ATOM     17  O   UNL     1       6.337   4.119  16.452  0.00  0.00    +0.000 OA
ENDBRANCH   1  17
TORSDOF 1
ENDMDL
MODEL 9
REMARK VINA RESULT:      -6.4      2.413      3.681
REMARK  Name = 
REMARK  3 active torsions:
REMARK  status: ('A' for Active; 'I' for Inactive)
REMARK    1  A    between atoms: C_1  and  O_2
REMARK    2  A    between atoms: O_2  and  C_3
REMARK    3  A    between atoms: C_10  and  C_11
REMARK                            x       y       z     vdW  Elec       q    Type
REMARK                         _______ _______ _______ _____ _____    ______ ____
ROOT
ATOM      1  C   UNL     1       3.409   6.833  17.840  0.00  0.00    +0.000 A 
ATOM      2  C   UNL     1       2.670   6.388  18.943  0.00  0.00    +0.000 A 
ATOM      3  C   UNL     1       2.897   5.111  19.429  0.00  0.00    +0.000 A 
ATOM      4  C   UNL     1       3.800   4.248  18.809  0.00  0.00    +0.000 A 
ATOM      5  C   UNL     1       4.504   4.651  17.684  0.00  0.00    +0.000 A 
ATOM      6  C   UNL     1       4.305   5.952  17.202  0.00  0.00    +0.000 A 
ATOM      7 BR   UNL     1       5.313   6.496  15.685  0.00  0.00    +0.000 Br
ATOM      8  C   UNL     1       3.860   2.917  19.514  0.00  0.00    +0.000 C 
ATOM      9  C   UNL     1       3.215   1.820  18.674  0.00  0.00    +0.000 C 
ATOM     10  C   UNL     1       3.183   3.262  20.875  0.00  0.00    +0.000 C 
ATOM     11  C   UNL     1       2.240   2.244  21.507  0.00  0.00    +0.000 C 
ATOM     12  N   UNL     1       0.867   2.772  21.413  0.00  0.00    +0.000 NA
ATOM     13  C   UNL     1       0.903   3.895  20.468  0.00  0.00    +0.000 C 
ATOM     14  C   UNL     1       2.289   4.490  20.638  0.00  0.00    +0.000 C 
ATOM     15  H   UNL     1       0.594   3.125  22.330  0.00  0.00    +0.000 HD
ENDROOT
BRANCH   1  17
ATOM     16  C   UNL     1       2.144   8.819  17.812  0.00  0.00    +0.000 C 
ATOM     17  O   UNL     1       3.284   8.106  17.340  0.00  0.00    +0.000 OA
ENDBRANCH   1  17
TORSDOF 1
ENDMDL
