MODEL 1
REMARK VINA RESULT:      -7.6      0.000      0.000
REMARK  Name = 
REMARK  5 active torsions:
REMARK  status: ('A' for Active; 'I' for Inactive)
REMARK    1  A    between atoms: C_1  and  O_2
REMARK    2  A    between atoms: O_2  and  C_3
REMARK    3  A    between atoms: C_14  and  C_15
REMARK    4  A    between atoms: C_18  and  C_19
REMARK    5  A    between atoms: C_19  and  O_21
REMARK                            x       y       z     vdW  Elec       q    Type
REMARK                         _______ _______ _______ _____ _____    ______ ____
ROOT
ATOM      1  C   UNL     1       0.809  11.059  18.671  0.00  0.00    +0.000 A 
ATOM      2  C   UNL     1       1.698  12.168  18.679  0.00  0.00    +0.000 A 
ATOM      3  C   UNL     1       1.232  13.512  18.661  0.00  0.00    +0.000 A 
ATOM      4  C   UNL     1       1.856  14.809  18.642  0.00  0.00    +0.000 A 
ATOM      5  C   UNL     1       0.827  15.739  18.716  0.00  0.00    +0.000 A 
ATOM      6  N   UNL     1      -0.362  15.070  18.742  0.00  0.00    +0.000 N 
ATOM      7  C   UNL     1      -0.142  13.717  18.705  0.00  0.00    +0.000 A 
ATOM      8  C   UNL     1      -1.062  12.671  18.712  0.00  0.00    +0.000 A 
ATOM      9  C   UNL     1      -0.575  11.354  18.661  0.00  0.00    +0.000 A 
ATOM     10 CL   UNL     1      -1.818  10.144  18.542  0.00  0.00    +0.000 Cl
ATOM     11  H   UNL     1      -1.277  15.508  18.791  0.00  0.00    +0.000 HD
ENDROOT
BRANCH   1  23
ATOM     12  C   UNL     1       1.382   8.836  19.830  0.00  0.00    +0.000 A 
ATOM     13  N   UNL     1       1.915   7.586  19.855  0.00  0.00    +0.000 NA
ATOM     14  C   UNL     1       2.519   7.088  18.759  0.00  0.00    +0.000 A 
ATOM     15  N   UNL     1       3.154   5.872  18.851  0.00  0.00    +0.000 N 
ATOM     16  C   UNL     1       3.359   4.976  17.708  0.00  0.00    +0.000 C 
ATOM     17  C   UNL     1       2.606   3.653  17.926  0.00  0.00    +0.000 C 
ATOM     18  O   UNL     1       2.945   3.043  19.180  0.00  0.00    +0.000 OA
ATOM     19  C   UNL     1       2.605   3.925  20.264  0.00  0.00    +0.000 C 
ATOM     20  C   UNL     1       3.369   5.251  20.165  0.00  0.00    +0.000 C 
ATOM     21  C   UNL     1       2.529   7.837  17.595  0.00  0.00    +0.000 A 
ATOM     22  C   UNL     1       1.920   9.093  17.557  0.00  0.00    +0.000 A 
ATOM     23  C   UNL     1       1.362   9.671  18.703  0.00  0.00    +0.000 A 
BRANCH  12  25
ATOM     24  C   UNL     1      -0.230   8.546  21.521  0.00  0.00    +0.000 C 
ATOM     25  O   UNL     1       0.861   9.320  21.020  0.00  0.00    +0.000 OA
ENDBRANCH  12  25
ENDBRANCH   1  23
BRANCH   4  26
ATOM     26  C   UNL     1       3.259  15.199  18.586  0.00  0.00    +0.000 C 
ATOM     27  O   UNL     1       3.865  15.668  19.541  0.00  0.00    +0.000 OA
BRANCH  26  28
ATOM     28  O   UNL     1       3.842  15.062  17.369  0.00  0.00    +0.000 OA
ATOM     29  H   UNL     1       3.447  14.339  16.854  0.00  0.00    +0.000 HD
ENDBRANCH  26  28
ENDBRANCH   4  26
TORSDOF 4
ENDMDL
MODEL 2
REMARK VINA RESULT:      -7.4      1.250      1.458
REMARK  Name = 
REMARK  5 active torsions:
REMARK  status: ('A' for Active; 'I' for Inactive)
REMARK    1  A    between atoms: C_1  and  O_2
REMARK    2  A    between atoms: O_2  and  C_3
REMARK    3  A    between atoms: C_14  and  C_15
REMARK    4  A    between atoms: C_18  and  C_19
REMARK    5  A    between atoms: C_19  and  O_21
REMARK                            x       y       z     vdW  Elec       q    Type
REMARK                         _______ _______ _______ _____ _____    ______ ____
ROOT
ATOM      1  C   UNL     1       0.476  10.917  19.045  0.00  0.00    +0.000 A 
ATOM      2  C   UNL     1       1.114  12.022  19.673  0.00  0.00    +0.000 A 
ATOM      3  C   UNL     1       0.470  13.280  19.825  0.00  0.00    +0.000 A 
ATOM      4  C   UNL     1       0.842  14.557  20.377  0.00  0.00    +0.000 A 
ATOM      5  C   UNL     1      -0.287  15.363  20.293  0.00  0.00    +0.000 A 
ATOM      6  N   UNL     1      -1.286  14.651  19.695  0.00  0.00    +0.000 N 
ATOM      7  C   UNL     1      -0.849  13.385  19.398  0.00  0.00    +0.000 A 
ATOM      8  C   UNL     1      -1.531  12.334  18.788  0.00  0.00    +0.000 A 
ATOM      9  C   UNL     1      -0.848  11.123  18.589  0.00  0.00    +0.000 A 
ATOM     10 CL   UNL     1      -1.758   9.935  17.703  0.00  0.00    +0.000 Cl
ATOM     11  H   UNL     1      -2.219  15.002  19.506  0.00  0.00    +0.000 HD
ENDROOT
BRANCH   1  23
ATOM     12  C   UNL     1       1.219   8.610  19.904  0.00  0.00    +0.000 A 
ATOM     13  N   UNL     1       1.909   7.443  19.796  0.00  0.00    +0.000 NA
ATOM     14  C   UNL     1       2.680   7.211  18.718  0.00  0.00    +0.000 A 
ATOM     15  N   UNL     1       3.458   6.078  18.694  0.00  0.00    +0.000 N 
ATOM     16  C   UNL     1       3.894   5.419  17.459  0.00  0.00    +0.000 C 
ATOM     17  C   UNL     1       3.305   4.000  17.374  0.00  0.00    +0.000 C 
ATOM     18  O   UNL     1       3.595   3.229  18.550  0.00  0.00    +0.000 OA
ATOM     19  C   UNL     1       3.033   3.869  19.709  0.00  0.00    +0.000 C 
ATOM     20  C   UNL     1       3.621   5.271  19.912  0.00  0.00    +0.000 C 
ATOM     21  C   UNL     1       2.707   8.143  17.694  0.00  0.00    +0.000 A 
ATOM     22  C   UNL     1       1.944   9.309  17.780  0.00  0.00    +0.000 A 
ATOM     23  C   UNL     1       1.202   9.616  18.927  0.00  0.00    +0.000 A 
BRANCH  12  25
ATOM     24  C   UNL     1       1.363   9.126  22.196  0.00  0.00    +0.000 C 
ATOM     25  O   UNL     1       0.522   8.821  21.083  0.00  0.00    +0.000 OA
ENDBRANCH  12  25
ENDBRANCH   1  23
BRANCH   4  26
ATOM     26  C   UNL     1       2.094  15.025  20.956  0.00  0.00    +0.000 C 
ATOM     27  O   UNL     1       2.873  15.765  20.367  0.00  0.00    +0.000 OA
BRANCH  26  28
ATOM     28  O   UNL     1       2.374  14.531  22.188  0.00  0.00    +0.000 OA
ATOM     29  H   UNL     1       1.993  13.648  22.323  0.00  0.00    +0.000 HD
ENDBRANCH  26  28
ENDBRANCH   4  26
TORSDOF 4
ENDMDL
MODEL 3
REMARK VINA RESULT:      -7.3      3.013      7.869
REMARK  Name = 
REMARK  5 active torsions:
REMARK  status: ('A' for Active; 'I' for Inactive)
REMARK    1  A    between atoms: C_1  and  O_2
REMARK    2  A    between atoms: O_2  and  C_3
REMARK    3  A    between atoms: C_14  and  C_15
REMARK    4  A    between atoms: C_18  and  C_19
REMARK    5  A    between atoms: C_19  and  O_21
REMARK                            x       y       z     vdW  Elec       q    Type
REMARK                         _______ _______ _______ _____ _____    ______ ____
ROOT
ATOM      1  C   UNL     1       2.750   6.936  18.911  0.00  0.00    +0.000 A 
ATOM      2  C   UNL     1       3.987   6.993  18.214  0.00  0.00    +0.000 A 
ATOM      3  C   UNL     1       4.846   5.865  18.101  0.00  0.00    +0.000 A 
ATOM      4  C   UNL     1       6.129   5.614  17.501  0.00  0.00    +0.000 A 
ATOM      5  C   UNL     1       6.385   4.260  17.674  0.00  0.00    +0.000 A 
ATOM      6  N   UNL     1       5.349   3.708  18.369  0.00  0.00    +0.000 N 
ATOM      7  C   UNL     1       4.404   4.663  18.644  0.00  0.00    +0.000 A 
ATOM      8  C   UNL     1       3.195   4.542  19.327  0.00  0.00    +0.000 A 
ATOM      9  C   UNL     1       2.399   5.689  19.481  0.00  0.00    +0.000 A 
ATOM     10 CL   UNL     1       0.984   5.441  20.462  0.00  0.00    +0.000 Cl
ATOM     11  H   UNL     1       5.280   2.731  18.636  0.00  0.00    +0.000 HD
ENDROOT
BRANCH   1  23
ATOM     12  C   UNL     1       1.458   8.770  20.168  0.00  0.00    +0.000 A 
ATOM     13  N   UNL     1       0.648   9.861  20.220  0.00  0.00    +0.000 NA
ATOM     14  C   UNL     1       0.161  10.395  19.084  0.00  0.00    +0.000 A 
ATOM     15  N   UNL     1      -0.751  11.421  19.175  0.00  0.00    +0.000 N 
ATOM     16  C   UNL     1      -0.944  12.429  18.128  0.00  0.00    +0.000 C 
ATOM     17  C   UNL     1      -0.582  13.826  18.659  0.00  0.00    +0.000 C 
ATOM     18  O   UNL     1      -1.286  14.138  19.871  0.00  0.00    +0.000 OA
ATOM     19  C   UNL     1      -0.956  13.181  20.892  0.00  0.00    +0.000 C 
ATOM     20  C   UNL     1      -1.351  11.759  20.473  0.00  0.00    +0.000 C 
ATOM     21  C   UNL     1       0.548   9.861  17.866  0.00  0.00    +0.000 A 
ATOM     22  C   UNL     1       1.434   8.783  17.817  0.00  0.00    +0.000 A 
ATOM     23  C   UNL     1       1.887   8.154  18.983  0.00  0.00    +0.000 A 
BRANCH  12  25
ATOM     24  C   UNL     1       1.426   8.978  22.513  0.00  0.00    +0.000 C 
ATOM     25  O   UNL     1       1.845   8.218  21.378  0.00  0.00    +0.000 OA
ENDBRANCH  12  25
ENDBRANCH   1  23
BRANCH   4  26
ATOM     26  C   UNL     1       7.053   6.500  16.805  0.00  0.00    +0.000 C 
ATOM     27  O   UNL     1       7.298   7.642  17.175  0.00  0.00    +0.000 OA
BRANCH  26  28
ATOM     28  O   UNL     1       7.589   5.991  15.668  0.00  0.00    +0.000 OA
ATOM     29  H   UNL     1       7.123   6.301  14.874  0.00  0.00    +0.000 HD
ENDBRANCH  26  28
ENDBRANCH   4  26
TORSDOF 4
ENDMDL
MODEL 4
REMARK VINA RESULT:      -7.2      2.702      8.655
REMARK  Name = 
REMARK  5 active torsions:
REMARK  status: ('A' for Active; 'I' for Inactive)
REMARK    1  A    between atoms: C_1  and  O_2
REMARK    2  A    between atoms: O_2  and  C_3
REMARK    3  A    between atoms: C_14  and  C_15
REMARK    4  A    between atoms: C_18  and  C_19
REMARK    5  A    between atoms: C_19  and  O_21
REMARK                            x       y       z     vdW  Elec       q    Type
REMARK                         _______ _______ _______ _____ _____    ______ ____
ROOT
ATOM      1  C   UNL     1       2.692   6.830  18.892  0.00  0.00    +0.000 A 
ATOM      2  C   UNL     1       2.337   5.722  19.708  0.00  0.00    +0.000 A 
ATOM      3  C   UNL     1       3.082   4.511  19.706  0.00  0.00    +0.000 A 
ATOM      4  C   UNL     1       2.972   3.243  20.377  0.00  0.00    +0.000 A 
ATOM      5  C   UNL     1       4.083   2.501  19.997  0.00  0.00    +0.000 A 
ATOM      6  N   UNL     1       4.819   3.240  19.118  0.00  0.00    +0.000 N 
ATOM      7  C   UNL     1       4.230   4.463  18.922  0.00  0.00    +0.000 A 
ATOM      8  C   UNL     1       4.636   5.521  18.112  0.00  0.00    +0.000 A 
ATOM      9  C   UNL     1       3.843   6.680  18.082  0.00  0.00    +0.000 A 
ATOM     10 CL   UNL     1       4.380   7.876  16.939  0.00  0.00    +0.000 Cl
ATOM     11  H   UNL     1       5.682   2.935  18.680  0.00  0.00    +0.000 HD
ENDROOT
BRANCH   1  23
ATOM     12  C   UNL     1       1.437   8.706  20.126  0.00  0.00    +0.000 A 
ATOM     13  N   UNL     1       0.668   9.826  20.164  0.00  0.00    +0.000 NA
ATOM     14  C   UNL     1       0.231  10.384  19.019  0.00  0.00    +0.000 A 
ATOM     15  N   UNL     1      -0.644  11.442  19.093  0.00  0.00    +0.000 N 
ATOM     16  C   UNL     1      -0.772  12.463  18.048  0.00  0.00    +0.000 C 
ATOM     17  C   UNL     1      -0.371  13.843  18.597  0.00  0.00    +0.000 C 
ATOM     18  O   UNL     1      -1.095  14.174  19.792  0.00  0.00    +0.000 OA
ATOM     19  C   UNL     1      -0.827  13.200  20.815  0.00  0.00    +0.000 C 
ATOM     20  C   UNL     1      -1.264  11.796  20.377  0.00  0.00    +0.000 C 
ATOM     21  C   UNL     1       0.629   9.842  17.809  0.00  0.00    +0.000 A 
ATOM     22  C   UNL     1       1.475   8.732  17.776  0.00  0.00    +0.000 A 
ATOM     23  C   UNL     1       1.874   8.080  18.949  0.00  0.00    +0.000 A 
BRANCH  12  25
ATOM     24  C   UNL     1       1.448   8.951  22.467  0.00  0.00    +0.000 C 
ATOM     25  O   UNL     1       1.772   8.133  21.343  0.00  0.00    +0.000 OA
ENDBRANCH  12  25
ENDBRANCH   1  23
BRANCH   4  26
ATOM     26  C   UNL     1       1.971   2.731  21.304  0.00  0.00    +0.000 C 
ATOM     27  O   UNL     1       2.253   2.145  22.343  0.00  0.00    +0.000 OA
BRANCH  26  28
ATOM     28  O   UNL     1       0.685   2.897  20.907  0.00  0.00    +0.000 OA
ATOM     29  H   UNL     1       0.055   2.735  21.629  0.00  0.00    +0.000 HD
ENDBRANCH  26  28
ENDBRANCH   4  26
TORSDOF 4
ENDMDL
MODEL 5
REMARK VINA RESULT:      -7.1      3.501      8.610
REMARK  Name = 
REMARK  5 active torsions:
REMARK  status: ('A' for Active; 'I' for Inactive)
REMARK    1  A    between atoms: C_1  and  O_2
REMARK    2  A    between atoms: O_2  and  C_3
REMARK    3  A    between atoms: C_14  and  C_15
REMARK    4  A    between atoms: C_18  and  C_19
REMARK    5  A    between atoms: C_19  and  O_21
REMARK                            x       y       z     vdW  Elec       q    Type
REMARK                         _______ _______ _______ _____ _____    ______ ____
ROOT
ATOM      1  C   UNL     1       1.449   8.152  19.814  0.00  0.00    +0.000 A 
ATOM      2  C   UNL     1       1.460   6.860  20.407  0.00  0.00    +0.000 A 
ATOM      3  C   UNL     1       2.258   5.799  19.897  0.00  0.00    +0.000 A 
ATOM      4  C   UNL     1       2.467   4.419  20.247  0.00  0.00    +0.000 A 
ATOM      5  C   UNL     1       3.452   3.943  19.392  0.00  0.00    +0.000 A 
ATOM      6  N   UNL     1       3.810   4.947  18.539  0.00  0.00    +0.000 N 
ATOM      7  C   UNL     1       3.095   6.083  18.824  0.00  0.00    +0.000 A 
ATOM      8  C   UNL     1       3.138   7.332  18.208  0.00  0.00    +0.000 A 
ATOM      9  C   UNL     1       2.289   8.342  18.691  0.00  0.00    +0.000 A 
ATOM     10 CL   UNL     1       2.339   9.811  17.761  0.00  0.00    +0.000 Cl
ATOM     11  H   UNL     1       4.509   4.869  17.808  0.00  0.00    +0.000 HD
ENDROOT
BRANCH   1  23
ATOM     12  C   UNL     1      -0.382   9.954  19.712  0.00  0.00    +0.000 A 
ATOM     13  N   UNL     1      -1.130  10.952  20.254  0.00  0.00    +0.000 NA
ATOM     14  C   UNL     1      -0.921  11.337  21.526  0.00  0.00    +0.000 A 
ATOM     15  N   UNL     1      -1.608  12.427  22.007  0.00  0.00    +0.000 N 
ATOM     16  C   UNL     1      -1.914  12.632  23.426  0.00  0.00    +0.000 C 
ATOM     17  C   UNL     1      -3.436  12.631  23.650  0.00  0.00    +0.000 C 
ATOM     18  O   UNL     1      -4.104  13.570  22.794  0.00  0.00    +0.000 OA
ATOM     19  C   UNL     1      -3.862  13.239  21.416  0.00  0.00    +0.000 C 
ATOM     20  C   UNL     1      -2.365  13.285  21.085  0.00  0.00    +0.000 C 
ATOM     21  C   UNL     1       0.014  10.661  22.292  0.00  0.00    +0.000 A 
ATOM     22  C   UNL     1       0.732   9.593  21.750  0.00  0.00    +0.000 A 
ATOM     23  C   UNL     1       0.597   9.228  20.405  0.00  0.00    +0.000 A 
BRANCH  12  25
ATOM     24  C   UNL     1      -1.706  10.360  17.808  0.00  0.00    +0.000 C 
ATOM     25  O   UNL     1      -0.586   9.674  18.370  0.00  0.00    +0.000 OA
ENDBRANCH  12  25
ENDBRANCH   1  23
BRANCH   4  26
ATOM     26  C   UNL     1       1.857   3.587  21.276  0.00  0.00    +0.000 C 
ATOM     27  O   UNL     1       2.387   3.357  22.357  0.00  0.00    +0.000 OA
BRANCH  26  28
ATOM     28  O   UNL     1       0.672   3.025  20.930  0.00  0.00    +0.000 OA
ATOM     29  H   UNL     1       0.756   2.442  20.158  0.00  0.00    +0.000 HD
ENDBRANCH  26  28
ENDBRANCH   4  26
TORSDOF 4
ENDMDL
MODEL 6
REMARK VINA RESULT:      -7.1      3.669      7.974
REMARK  Name = 
REMARK  5 active torsions:
REMARK  status: ('A' for Active; 'I' for Inactive)
REMARK    1  A    between atoms: C_1  and  O_2
REMARK    2  A    between atoms: O_2  and  C_3
REMARK    3  A    between atoms: C_14  and  C_15
REMARK    4  A    between atoms: C_18  and  C_19
REMARK    5  A    between atoms: C_19  and  O_21
REMARK                            x       y       z     vdW  Elec       q    Type
REMARK                         _______ _______ _______ _____ _____    ______ ____
ROOT
ATOM      1  C   UNL     1       3.376   6.276  18.527  0.00  0.00    +0.000 A 
ATOM      2  C   UNL     1       4.774   6.378  18.760  0.00  0.00    +0.000 A 
ATOM      3  C   UNL     1       5.708   5.485  18.167  0.00  0.00    +0.000 A 
ATOM      4  C   UNL     1       7.136   5.317  18.219  0.00  0.00    +0.000 A 
ATOM      5  C   UNL     1       7.443   4.294  17.331  0.00  0.00    +0.000 A 
ATOM      6  N   UNL     1       6.282   3.827  16.787  0.00  0.00    +0.000 N 
ATOM      7  C   UNL     1       5.214   4.532  17.282  0.00  0.00    +0.000 A 
ATOM      8  C   UNL     1       3.856   4.391  17.004  0.00  0.00    +0.000 A 
ATOM      9  C   UNL     1       2.950   5.244  17.657  0.00  0.00    +0.000 A 
ATOM     10 CL   UNL     1       1.280   4.886  17.329  0.00  0.00    +0.000 Cl
ATOM     11  H   UNL     1       6.216   3.076  16.108  0.00  0.00    +0.000 HD
ENDROOT
BRANCH   1  23
ATOM     12  C   UNL     1       1.880   7.109  20.446  0.00  0.00    +0.000 A 
ATOM     13  N   UNL     1       1.013   7.993  21.009  0.00  0.00    +0.000 NA
ATOM     14  C   UNL     1       0.605   9.072  20.317  0.00  0.00    +0.000 A 
ATOM     15  N   UNL     1      -0.364   9.880  20.865  0.00  0.00    +0.000 N 
ATOM     16  C   UNL     1      -0.513  11.303  20.540  0.00  0.00    +0.000 C 
ATOM     17  C   UNL     1      -0.274  12.164  21.791  0.00  0.00    +0.000 C 
ATOM     18  O   UNL     1      -1.101  11.753  22.890  0.00  0.00    +0.000 OA
ATOM     19  C   UNL     1      -0.817  10.387  23.237  0.00  0.00    +0.000 C 
ATOM     20  C   UNL     1      -1.096   9.443  22.061  0.00  0.00    +0.000 C 
ATOM     21  C   UNL     1       1.129   9.304  19.056  0.00  0.00    +0.000 A 
ATOM     22  C   UNL     1       2.071   8.429  18.511  0.00  0.00    +0.000 A 
ATOM     23  C   UNL     1       2.447   7.254  19.172  0.00  0.00    +0.000 A 
BRANCH  12  25
ATOM     24  C   UNL     1       1.383   4.841  20.834  0.00  0.00    +0.000 C 
ATOM     25  O   UNL     1       2.183   5.973  21.179  0.00  0.00    +0.000 OA
ENDBRANCH  12  25
ENDBRANCH   1  23
BRANCH   4  26
ATOM     26  C   UNL     1       8.158   6.023  18.981  0.00  0.00    +0.000 C 
ATOM     27  O   UNL     1       8.508   7.170  18.734  0.00  0.00    +0.000 OA
BRANCH  26  28
ATOM     28  O   UNL     1       8.749   5.293  19.960  0.00  0.00    +0.000 OA
ATOM     29  H   UNL     1       9.346   4.616  19.601  0.00  0.00    +0.000 HD
ENDBRANCH  26  28
ENDBRANCH   4  26
TORSDOF 4
ENDMDL
MODEL 7
REMARK VINA RESULT:      -7.1      2.101      2.324
REMARK  Name = 
REMARK  5 active torsions:
REMARK  status: ('A' for Active; 'I' for Inactive)
REMARK    1  A    between atoms: C_1  and  O_2
REMARK    2  A    between atoms: O_2  and  C_3
REMARK    3  A    between atoms: C_14  and  C_15
REMARK    4  A    between atoms: C_18  and  C_19
REMARK    5  A    between atoms: C_19  and  O_21
REMARK                            x       y       z     vdW  Elec       q    Type
REMARK                         _______ _______ _______ _____ _____    ______ ____
ROOT
ATOM      1  C   UNL     1      -0.050  10.734  19.272  0.00  0.00    +0.000 A 
ATOM      2  C   UNL     1       0.320  11.746  20.199  0.00  0.00    +0.000 A 
ATOM      3  C   UNL     1      -0.497  12.884  20.442  0.00  0.00    +0.000 A 
ATOM      4  C   UNL     1      -0.397  14.055  21.273  0.00  0.00    +0.000 A 
ATOM      5  C   UNL     1      -1.587  14.753  21.112  0.00  0.00    +0.000 A 
ATOM      6  N   UNL     1      -2.364  14.084  20.212  0.00  0.00    +0.000 N 
ATOM      7  C   UNL     1      -1.722  12.949  19.787  0.00  0.00    +0.000 A 
ATOM      8  C   UNL     1      -2.145  11.981  18.878  0.00  0.00    +0.000 A 
ATOM      9  C   UNL     1      -1.287  10.902  18.607  0.00  0.00    +0.000 A 
ATOM     10 CL   UNL     1      -1.866   9.834  17.362  0.00  0.00    +0.000 Cl
ATOM     11  H   UNL     1      -3.287  14.377  19.907  0.00  0.00    +0.000 HD
ENDROOT
BRANCH   1  23
ATOM     12  C   UNL     1       1.060   8.533  20.007  0.00  0.00    +0.000 A 
ATOM     13  N   UNL     1       1.902   7.482  19.824  0.00  0.00    +0.000 NA
ATOM     14  C   UNL     1       2.641   7.396  18.702  0.00  0.00    +0.000 A 
ATOM     15  N   UNL     1       3.570   6.388  18.599  0.00  0.00    +0.000 N 
ATOM     16  C   UNL     1       4.030   5.836  17.321  0.00  0.00    +0.000 C 
ATOM     17  C   UNL     1       3.646   4.351  17.212  0.00  0.00    +0.000 C 
ATOM     18  O   UNL     1       4.104   3.595  18.343  0.00  0.00    +0.000 OA
ATOM     19  C   UNL     1       3.519   4.112  19.551  0.00  0.00    +0.000 C 
ATOM     20  C   UNL     1       3.910   5.578  19.777  0.00  0.00    +0.000 C 
ATOM     21  C   UNL     1       2.481   8.353  17.714  0.00  0.00    +0.000 A 
ATOM     22  C   UNL     1       1.564   9.393  17.879  0.00  0.00    +0.000 A 
ATOM     23  C   UNL     1       0.848   9.555  19.071  0.00  0.00    +0.000 A 
BRANCH  12  25
ATOM     24  C   UNL     1       1.271   8.877  22.327  0.00  0.00    +0.000 C 
ATOM     25  O   UNL     1       0.403   8.606  21.226  0.00  0.00    +0.000 OA
ENDBRANCH  12  25
ENDBRANCH   1  23
BRANCH   4  26
ATOM     26  C   UNL     1       0.663  14.512  22.163  0.00  0.00    +0.000 C 
ATOM     27  O   UNL     1       1.855  14.382  21.912  0.00  0.00    +0.000 OA
BRANCH  26  28
ATOM     28  O   UNL     1       0.236  15.047  23.333  0.00  0.00    +0.000 OA
ATOM     29  H   UNL     1      -0.660  15.416  23.261  0.00  0.00    +0.000 HD
ENDBRANCH  26  28
ENDBRANCH   4  26
TORSDOF 4
ENDMDL
MODEL 8
REMARK VINA RESULT:      -7.0      3.521      8.029
REMARK  Name = 
REMARK  5 active torsions:
REMARK  status: ('A' for Active; 'I' for Inactive)
REMARK    1  A    between atoms: C_1  and  O_2
REMARK    2  A    between atoms: O_2  and  C_3
REMARK    3  A    between atoms: C_14  and  C_15
REMARK    4  A    between atoms: C_18  and  C_19
REMARK    5  A    between atoms: C_19  and  O_21
REMARK                            x       y       z     vdW  Elec       q    Type
REMARK                         _______ _______ _______ _____ _____    ______ ____
ROOT
ATOM      1  C   UNL     1       2.555   6.295  19.248  0.00  0.00    +0.000 A 
ATOM      2  C   UNL     1       3.726   6.499  18.469  0.00  0.00    +0.000 A 
ATOM      3  C   UNL     1       4.402   5.427  17.824  0.00  0.00    +0.000 A 
ATOM      4  C   UNL     1       5.584   5.307  17.010  0.00  0.00    +0.000 A 
ATOM      5  C   UNL     1       5.656   3.976  16.620  0.00  0.00    +0.000 A 
ATOM      6  N   UNL     1       4.612   3.301  17.182  0.00  0.00    +0.000 N 
ATOM      7  C   UNL     1       3.839   4.160  17.921  0.00  0.00    +0.000 A 
ATOM      8  C   UNL     1       2.686   3.900  18.659  0.00  0.00    +0.000 A 
ATOM      9  C   UNL     1       2.077   4.966  19.341  0.00  0.00    +0.000 A 
ATOM     10 CL   UNL     1       0.727   4.494  20.330  0.00  0.00    +0.000 Cl
ATOM     11  H   UNL     1       4.426   2.310  17.063  0.00  0.00    +0.000 HD
ENDROOT
BRANCH   1  23
ATOM     12  C   UNL     1       1.575   8.673  19.246  0.00  0.00    +0.000 A 
ATOM     13  N   UNL     1       0.991   9.742  19.850  0.00  0.00    +0.000 NA
ATOM     14  C   UNL     1       0.714   9.706  21.167  0.00  0.00    +0.000 A 
ATOM     15  N   UNL     1       0.237  10.844  21.772  0.00  0.00    +0.000 N 
ATOM     16  C   UNL     1      -0.594  10.832  22.981  0.00  0.00    +0.000 C 
ATOM     17  C   UNL     1      -1.983  11.421  22.679  0.00  0.00    +0.000 C 
ATOM     18  O   UNL     1      -1.894  12.721  22.076  0.00  0.00    +0.000 OA
ATOM     19  C   UNL     1      -1.173  12.639  20.834  0.00  0.00    +0.000 C 
ATOM     20  C   UNL     1       0.256  12.124  21.051  0.00  0.00    +0.000 C 
ATOM     21  C   UNL     1       0.969   8.545  21.879  0.00  0.00    +0.000 A 
ATOM     22  C   UNL     1       1.507   7.427  21.238  0.00  0.00    +0.000 A 
ATOM     23  C   UNL     1       1.884   7.466  19.891  0.00  0.00    +0.000 A 
BRANCH  12  25
ATOM     24  C   UNL     1       2.307  10.144  17.560  0.00  0.00    +0.000 C 
ATOM     25  O   UNL     1       1.918   8.815  17.911  0.00  0.00    +0.000 OA
ENDBRANCH  12  25
ENDBRANCH   1  23
BRANCH   4  26
ATOM     26  C   UNL     1       6.565   6.299  16.589  0.00  0.00    +0.000 C 
ATOM     27  O   UNL     1       6.572   7.453  16.999  0.00  0.00    +0.000 OA
BRANCH  26  28
ATOM     28  O   UNL     1       7.448   5.869  15.654  0.00  0.00    +0.000 OA
ATOM     29  H   UNL     1       8.145   5.311  16.038  0.00  0.00    +0.000 HD
ENDBRANCH  26  28
ENDBRANCH   4  26
TORSDOF 4
ENDMDL
MODEL 9
REMARK VINA RESULT:      -7.0      2.524      8.750
REMARK  Name = 
REMARK  5 active torsions:
REMARK  status: ('A' for Active; 'I' for Inactive)
REMARK    1  A    between atoms: C_1  and  O_2
REMARK    2  A    between atoms: O_2  and  C_3
REMARK    3  A    between atoms: C_14  and  C_15
REMARK    4  A    between atoms: C_18  and  C_19
REMARK    5  A    between atoms: C_19  and  O_21
REMARK                            x       y       z     vdW  Elec       q    Type
REMARK                         _______ _______ _______ _____ _____    ______ ____
ROOT
ATOM      1  C   UNL     1       2.926   6.672  18.264  0.00  0.00    +0.000 A 
ATOM      2  C   UNL     1       2.161   5.515  18.572  0.00  0.00    +0.000 A 
ATOM      3  C   UNL     1       2.655   4.200  18.352  0.00  0.00    +0.000 A 
ATOM      4  C   UNL     1       2.135   2.870  18.532  0.00  0.00    +0.000 A 
ATOM      5  C   UNL     1       3.165   1.999  18.200  0.00  0.00    +0.000 A 
ATOM      6  N   UNL     1       4.244   2.733  17.802  0.00  0.00    +0.000 N 
ATOM      7  C   UNL     1       3.957   4.072  17.881  0.00  0.00    +0.000 A 
ATOM      8  C   UNL     1       4.760   5.168  17.574  0.00  0.00    +0.000 A 
ATOM      9  C   UNL     1       4.222   6.455  17.738  0.00  0.00    +0.000 A 
ATOM     10 CL   UNL     1       5.271   7.734  17.200  0.00  0.00    +0.000 Cl
ATOM     11  H   UNL     1       5.133   2.347  17.501  0.00  0.00    +0.000 HD
ENDROOT
BRANCH   1  23
ATOM     12  C   UNL     1       1.732   8.419  19.726  0.00  0.00    +0.000 A 
ATOM     13  N   UNL     1       1.189   9.646  19.946  0.00  0.00    +0.000 NA
ATOM     14  C   UNL     1       1.182  10.567  18.964  0.00  0.00    +0.000 A 
ATOM     15  N   UNL     1       0.519  11.752  19.176  0.00  0.00    +0.000 N 
ATOM     16  C   UNL     1       0.859  13.005  18.494  0.00  0.00    +0.000 C 
ATOM     17  C   UNL     1       1.330  14.057  19.511  0.00  0.00    +0.000 C 
ATOM     18  O   UNL     1       0.380  14.240  20.572  0.00  0.00    +0.000 OA
ATOM     19  C   UNL     1       0.186  13.002  21.278  0.00  0.00    +0.000 C 
ATOM     20  C   UNL     1      -0.354  11.908  20.348  0.00  0.00    +0.000 C 
ATOM     21  C   UNL     1       1.792  10.271  17.756  0.00  0.00    +0.000 A 
ATOM     22  C   UNL     1       2.408   9.034  17.560  0.00  0.00    +0.000 A 
ATOM     23  C   UNL     1       2.354   8.027  18.531  0.00  0.00    +0.000 A 
BRANCH  12  25
ATOM     24  C   UNL     1       0.622   7.823  21.714  0.00  0.00    +0.000 C 
ATOM     25  O   UNL     1       1.620   7.490  20.749  0.00  0.00    +0.000 OA
ENDBRANCH  12  25
ENDBRANCH   1  23
BRANCH   4  26
ATOM     26  C   UNL     1       0.832   2.402  18.986  0.00  0.00    +0.000 C 
ATOM     27  O   UNL     1       0.083   1.721  18.295  0.00  0.00    +0.000 OA
BRANCH  26  28
ATOM     28  O   UNL     1       0.470   2.826  20.222  0.00  0.00    +0.000 OA
ATOM     29  H   UNL     1       1.189   2.722  20.869  0.00  0.00    +0.000 HD
ENDBRANCH  26  28
ENDBRANCH   4  26
TORSDOF 4
ENDMDL
