MODEL 1
REMARK VINA RESULT:      -6.3      0.000      0.000
REMARK  Name = 
REMARK  13 active torsions:
REMARK  status: ('A' for Active; 'I' for Inactive)
REMARK    1  A    between atoms: C_1  and  C_2
REMARK    2  A    between atoms: C_2  and  O_3
REMARK    3  A    between atoms: O_3  and  C_4
REMARK    4  A    between atoms: C_4  and  C_6
REMARK    5  A    between atoms: C_6  and  C_7
REMARK    6  A    between atoms: N_17  and  C_18
REMARK    7  A    between atoms: C_18  and  C_19
REMARK    8  A    between atoms: C_21  and  O_22
REMARK    9  A    between atoms: O_22  and  C_23
REMARK   10  A    between atoms: C_24  and  O_25
REMARK   11  A    between atoms: O_25  and  C_26
REMARK   12  A    between atoms: C_27  and  O_28
REMARK   13  A    between atoms: O_28  and  C_29
REMARK                            x       y       z     vdW  Elec       q    Type
REMARK                         _______ _______ _______ _____ _____    ______ ____
ROOT
ATOM      1  C   UNL     1       1.073  11.547  20.287  0.00  0.00    +0.000 C 
ATOM      2  C   UNL     1       0.087  11.980  21.353  0.00  0.00    +0.000 A 
ATOM      3  C   UNL     1      -0.524  13.224  21.503  0.00  0.00    +0.000 A 
ATOM      4  C   UNL     1      -1.565  13.368  22.432  0.00  0.00    +0.000 A 
ATOM      5  C   UNL     1      -1.968  12.292  23.236  0.00  0.00    +0.000 A 
ATOM      6  C   UNL     1      -1.329  11.062  23.128  0.00  0.00    +0.000 A 
ATOM      7  C   UNL     1      -0.314  10.944  22.190  0.00  0.00    +0.000 A 
ATOM      8  S   UNL     1       0.438   9.433  21.748  0.00  0.00    +0.000 S 
ATOM      9  O   UNL     1      -0.636   8.533  21.392  0.00  0.00    +0.000 OA
ATOM     10  O   UNL     1       1.433   9.134  22.752  0.00  0.00    +0.000 OA
ATOM     11  N   UNL     1       1.229  10.034  20.348  0.00  0.00    +0.000 NA
ENDROOT
BRANCH   1  12
ATOM     12  C   UNL     1       0.771  12.136  18.903  0.00  0.00    +0.000 C 
BRANCH  12  13
ATOM     13  C   UNL     1       1.885  13.014  18.385  0.00  0.00    +0.000 C 
ATOM     14  O   UNL     1       2.956  12.614  17.953  0.00  0.00    +0.000 OA
BRANCH  13  15
ATOM     15  O   UNL     1       1.540  14.327  18.476  0.00  0.00    +0.000 OA
BRANCH  15  17
ATOM     16  C   UNL     1       1.519  16.001  20.234  0.00  0.00    +0.000 C 
ATOM     17  C   UNL     1       2.369  15.088  19.368  0.00  0.00    +0.000 C 
ENDBRANCH  15  17
ENDBRANCH  13  15
ENDBRANCH  12  13
ENDBRANCH   1  12
BRANCH  11  18
ATOM     18  C   UNL     1       1.094   9.242  19.109  0.00  0.00    +0.000 C 
BRANCH  18  19
ATOM     19  C   UNL     1       1.991   8.032  18.984  0.00  0.00    +0.000 A 
ATOM     20  C   UNL     1       2.925   7.971  17.947  0.00  0.00    +0.000 A 
ATOM     21  C   UNL     1       3.761   6.863  17.762  0.00  0.00    +0.000 A 
ATOM     22  C   UNL     1       3.691   5.772  18.656  0.00  0.00    +0.000 A 
ATOM     23  C   UNL     1       2.775   5.848  19.738  0.00  0.00    +0.000 A 
ATOM     24  C   UNL     1       1.936   6.969  19.882  0.00  0.00    +0.000 A 
BRANCH  21  25
ATOM     25  O   UNL     1       4.621   6.804  16.694  0.00  0.00    +0.000 OA
ATOM     26  C   UNL     1       5.973   7.188  16.917  0.00  0.00    +0.000 C 
ENDBRANCH  21  25
BRANCH  22  27
ATOM     27  O   UNL     1       4.453   4.638  18.586  0.00  0.00    +0.000 OA
ATOM     28  C   UNL     1       5.720   4.580  19.221  0.00  0.00    +0.000 C 
ENDBRANCH  22  27
BRANCH  23  29
ATOM     29  O   UNL     1       2.574   4.943  20.754  0.00  0.00    +0.000 OA
ATOM     30  C   UNL     1       1.403   4.143  20.751  0.00  0.00    +0.000 C 
ENDBRANCH  23  29
ENDBRANCH  18  19
ENDBRANCH  11  18
TORSDOF 9
ENDMDL
MODEL 2
REMARK VINA RESULT:      -6.3      0.795      1.106
REMARK  Name = 
REMARK  13 active torsions:
REMARK  status: ('A' for Active; 'I' for Inactive)
REMARK    1  A    between atoms: C_1  and  C_2
REMARK    2  A    between atoms: C_2  and  O_3
REMARK    3  A    between atoms: O_3  and  C_4
REMARK    4  A    between atoms: C_4  and  C_6
REMARK    5  A    between atoms: C_6  and  C_7
REMARK    6  A    between atoms: N_17  and  C_18
REMARK    7  A    between atoms: C_18  and  C_19
REMARK    8  A    between atoms: C_21  and  O_22
REMARK    9  A    between atoms: O_22  and  C_23
REMARK   10  A    between atoms: C_24  and  O_25
REMARK   11  A    between atoms: O_25  and  C_26
REMARK   12  A    between atoms: C_27  and  O_28
REMARK   13  A    between atoms: O_28  and  C_29
REMARK                            x       y       z     vdW  Elec       q    Type
REMARK                         _______ _______ _______ _____ _____    ______ ____
ROOT
ATOM      1  C   UNL     1       1.123  11.697  20.316  0.00  0.00    +0.000 C 
ATOM      2  C   UNL     1       0.118  12.115  21.371  0.00  0.00    +0.000 A 
ATOM      3  C   UNL     1      -0.487  13.360  21.535  0.00  0.00    +0.000 A 
ATOM      4  C   UNL     1      -1.546  13.492  22.446  0.00  0.00    +0.000 A 
ATOM      5  C   UNL     1      -1.973  12.402  23.218  0.00  0.00    +0.000 A 
ATOM      6  C   UNL     1      -1.341  11.169  23.096  0.00  0.00    +0.000 A 
ATOM      7  C   UNL     1      -0.307  11.064  22.177  0.00  0.00    +0.000 A 
ATOM      8  S   UNL     1       0.443   9.557  21.718  0.00  0.00    +0.000 S 
ATOM      9  O   UNL     1      -0.630   8.673  21.322  0.00  0.00    +0.000 OA
ATOM     10  O   UNL     1       1.415   9.229  22.736  0.00  0.00    +0.000 OA
ATOM     11  N   UNL     1       1.267  10.182  20.348  0.00  0.00    +0.000 NA
ENDROOT
BRANCH   1  12
ATOM     12  C   UNL     1       0.853  12.318  18.940  0.00  0.00    +0.000 C 
BRANCH  12  13
ATOM     13  C   UNL     1       1.582  13.624  18.733  0.00  0.00    +0.000 C 
ATOM     14  O   UNL     1       1.057  14.685  18.428  0.00  0.00    +0.000 OA
BRANCH  13  15
ATOM     15  O   UNL     1       2.920  13.460  18.917  0.00  0.00    +0.000 OA
BRANCH  15  17
ATOM     16  C   UNL     1       4.594  14.853  17.845  0.00  0.00    +0.000 C 
ATOM     17  C   UNL     1       3.651  14.691  19.024  0.00  0.00    +0.000 C 
ENDBRANCH  15  17
ENDBRANCH  13  15
ENDBRANCH  12  13
ENDBRANCH   1  12
BRANCH  11  18
ATOM     18  C   UNL     1       1.151   9.417  19.090  0.00  0.00    +0.000 C 
BRANCH  18  19
ATOM     19  C   UNL     1       2.003   8.174  18.980  0.00  0.00    +0.000 A 
ATOM     20  C   UNL     1       2.934   8.064  17.944  0.00  0.00    +0.000 A 
ATOM     21  C   UNL     1       3.727   6.924  17.773  0.00  0.00    +0.000 A 
ATOM     22  C   UNL     1       3.616   5.846  18.680  0.00  0.00    +0.000 A 
ATOM     23  C   UNL     1       2.702   5.970  19.759  0.00  0.00    +0.000 A 
ATOM     24  C   UNL     1       1.906   7.123  19.890  0.00  0.00    +0.000 A 
BRANCH  21  25
ATOM     25  O   UNL     1       4.585   6.820  16.708  0.00  0.00    +0.000 OA
ATOM     26  C   UNL     1       5.975   6.988  16.963  0.00  0.00    +0.000 C 
ENDBRANCH  21  25
BRANCH  22  27
ATOM     27  O   UNL     1       4.333   4.683  18.624  0.00  0.00    +0.000 OA
ATOM     28  C   UNL     1       3.882   3.595  17.834  0.00  0.00    +0.000 C 
ENDBRANCH  22  27
BRANCH  23  29
ATOM     29  O   UNL     1       2.466   5.085  20.786  0.00  0.00    +0.000 OA
ATOM     30  C   UNL     1       1.375   4.184  20.690  0.00  0.00    +0.000 C 
ENDBRANCH  23  29
ENDBRANCH  18  19
ENDBRANCH  11  18
TORSDOF 9
ENDMDL
MODEL 3
REMARK VINA RESULT:      -6.3      2.808      7.997
REMARK  Name = 
REMARK  13 active torsions:
REMARK  status: ('A' for Active; 'I' for Inactive)
REMARK    1  A    between atoms: C_1  and  C_2
REMARK    2  A    between atoms: C_2  and  O_3
REMARK    3  A    between atoms: O_3  and  C_4
REMARK    4  A    between atoms: C_4  and  C_6
REMARK    5  A    between atoms: C_6  and  C_7
REMARK    6  A    between atoms: N_17  and  C_18
REMARK    7  A    between atoms: C_18  and  C_19
REMARK    8  A    between atoms: C_21  and  O_22
REMARK    9  A    between atoms: O_22  and  C_23
REMARK   10  A    between atoms: C_24  and  O_25
REMARK   11  A    between atoms: O_25  and  C_26
REMARK   12  A    between atoms: C_27  and  O_28
REMARK   13  A    between atoms: O_28  and  C_29
REMARK                            x       y       z     vdW  Elec       q    Type
REMARK                         _______ _______ _______ _____ _____    ______ ____
ROOT
ATOM      1  C   UNL     1      -0.055  10.469  19.675  0.00  0.00    +0.000 C 
ATOM      2  C   UNL     1       0.833   9.307  19.276  0.00  0.00    +0.000 A 
ATOM      3  C   UNL     1       1.451   9.081  18.047  0.00  0.00    +0.000 A 
ATOM      4  C   UNL     1       2.401   8.055  17.937  0.00  0.00    +0.000 A 
ATOM      5  C   UNL     1       2.703   7.233  19.031  0.00  0.00    +0.000 A 
ATOM      6  C   UNL     1       2.054   7.419  20.246  0.00  0.00    +0.000 A 
ATOM      7  C   UNL     1       1.131   8.451  20.331  0.00  0.00    +0.000 A 
ATOM      8  S   UNL     1       0.395   8.985  21.820  0.00  0.00    +0.000 S 
ATOM      9  O   UNL     1       1.480   9.249  22.737  0.00  0.00    +0.000 OA
ATOM     10  O   UNL     1      -0.697   8.085  22.111  0.00  0.00    +0.000 OA
ATOM     11  N   UNL     1      -0.246  10.445  21.185  0.00  0.00    +0.000 NA
ENDROOT
BRANCH   1  12
ATOM     12  C   UNL     1       0.389  11.809  19.075  0.00  0.00    +0.000 C 
BRANCH  12  13
ATOM     13  C   UNL     1      -0.726  12.527  18.352  0.00  0.00    +0.000 C 
ATOM     14  O   UNL     1      -0.596  13.545  17.689  0.00  0.00    +0.000 OA
BRANCH  13  15
ATOM     15  O   UNL     1      -1.912  11.891  18.552  0.00  0.00    +0.000 OA
BRANCH  15  17
ATOM     16  C   UNL     1      -2.170  10.186  16.844  0.00  0.00    +0.000 C 
ATOM     17  C   UNL     1      -2.604  11.553  17.341  0.00  0.00    +0.000 C 
ENDBRANCH  15  17
ENDBRANCH  13  15
ENDBRANCH  12  13
ENDBRANCH   1  12
BRANCH  11  18
ATOM     18  C   UNL     1      -0.008  11.677  21.964  0.00  0.00    +0.000 C 
BRANCH  18  19
ATOM     19  C   UNL     1      -1.199  12.586  22.163  0.00  0.00    +0.000 A 
ATOM     20  C   UNL     1      -1.124  13.920  21.756  0.00  0.00    +0.000 A 
ATOM     21  C   UNL     1      -2.182  14.817  21.943  0.00  0.00    +0.000 A 
ATOM     22  C   UNL     1      -3.384  14.373  22.538  0.00  0.00    +0.000 A 
ATOM     23  C   UNL     1      -3.482  13.007  22.913  0.00  0.00    +0.000 A 
ATOM     24  C   UNL     1      -2.391  12.138  22.728  0.00  0.00    +0.000 A 
BRANCH  21  25
ATOM     25  O   UNL     1      -2.052  16.137  21.594  0.00  0.00    +0.000 OA
ATOM     26  C   UNL     1      -1.724  16.431  20.241  0.00  0.00    +0.000 C 
ENDBRANCH  21  25
BRANCH  22  27
ATOM     27  O   UNL     1      -4.488  15.146  22.772  0.00  0.00    +0.000 OA
ATOM     28  C   UNL     1      -4.619  15.867  23.987  0.00  0.00    +0.000 C 
ENDBRANCH  22  27
BRANCH  23  29
ATOM     29  O   UNL     1      -4.560  12.343  23.451  0.00  0.00    +0.000 OA
ATOM     30  C   UNL     1      -4.707  12.283  24.861  0.00  0.00    +0.000 C 
ENDBRANCH  23  29
ENDBRANCH  18  19
ENDBRANCH  11  18
TORSDOF 9
ENDMDL
MODEL 4
REMARK VINA RESULT:      -6.3      2.119      4.694
REMARK  Name = 
REMARK  13 active torsions:
REMARK  status: ('A' for Active; 'I' for Inactive)
REMARK    1  A    between atoms: C_1  and  C_2
REMARK    2  A    between atoms: C_2  and  O_3
REMARK    3  A    between atoms: O_3  and  C_4
REMARK    4  A    between atoms: C_4  and  C_6
REMARK    5  A    between atoms: C_6  and  C_7
REMARK    6  A    between atoms: N_17  and  C_18
REMARK    7  A    between atoms: C_18  and  C_19
REMARK    8  A    between atoms: C_21  and  O_22
REMARK    9  A    between atoms: O_22  and  C_23
REMARK   10  A    between atoms: C_24  and  O_25
REMARK   11  A    between atoms: O_25  and  C_26
REMARK   12  A    between atoms: C_27  and  O_28
REMARK   13  A    between atoms: O_28  and  C_29
REMARK                            x       y       z     vdW  Elec       q    Type
REMARK                         _______ _______ _______ _____ _____    ______ ____
ROOT
ATOM      1  C   UNL     1       0.704   9.664  20.436  0.00  0.00    +0.000 C 
ATOM      2  C   UNL     1       0.957  11.003  19.772  0.00  0.00    +0.000 A 
ATOM      3  C   UNL     1       0.741  12.277  20.297  0.00  0.00    +0.000 A 
ATOM      4  C   UNL     1       1.231  13.394  19.605  0.00  0.00    +0.000 A 
ATOM      5  C   UNL     1       1.895  13.248  18.378  0.00  0.00    +0.000 A 
ATOM      6  C   UNL     1       2.069  11.986  17.823  0.00  0.00    +0.000 A 
ATOM      7  C   UNL     1       1.588  10.897  18.536  0.00  0.00    +0.000 A 
ATOM      8  S   UNL     1       1.915   9.234  18.122  0.00  0.00    +0.000 S 
ATOM      9  O   UNL     1       3.351   9.121  18.003  0.00  0.00    +0.000 OA
ATOM     10  O   UNL     1       0.994   8.859  17.074  0.00  0.00    +0.000 OA
ATOM     11  N   UNL     1       1.364   8.572  19.607  0.00  0.00    +0.000 NA
ENDROOT
BRANCH   1  12
ATOM     12  C   UNL     1       1.026   9.658  21.935  0.00  0.00    +0.000 C 
BRANCH  12  13
ATOM     13  C   UNL     1      -0.208   9.569  22.800  0.00  0.00    +0.000 C 
ATOM     14  O   UNL     1      -0.930   8.587  22.899  0.00  0.00    +0.000 OA
BRANCH  13  15
ATOM     15  O   UNL     1      -0.422  10.743  23.452  0.00  0.00    +0.000 OA
BRANCH  15  17
ATOM     16  C   UNL     1      -1.454  12.923  23.176  0.00  0.00    +0.000 C 
ATOM     17  C   UNL     1      -1.626  11.419  23.059  0.00  0.00    +0.000 C 
ENDBRANCH  15  17
ENDBRANCH  13  15
ENDBRANCH  12  13
ENDBRANCH   1  12
BRANCH  11  18
ATOM     18  C   UNL     1       2.246   7.592  20.272  0.00  0.00    +0.000 C 
BRANCH  18  19
ATOM     19  C   UNL     1       2.281   6.205  19.672  0.00  0.00    +0.000 A 
ATOM     20  C   UNL     1       1.581   5.167  20.294  0.00  0.00    +0.000 A 
ATOM     21  C   UNL     1       1.602   3.857  19.803  0.00  0.00    +0.000 A 
ATOM     22  C   UNL     1       2.328   3.556  18.629  0.00  0.00    +0.000 A 
ATOM     23  C   UNL     1       3.005   4.615  17.969  0.00  0.00    +0.000 A 
ATOM     24  C   UNL     1       2.978   5.918  18.501  0.00  0.00    +0.000 A 
BRANCH  21  25
ATOM     25  O   UNL     1       0.959   2.847  20.473  0.00  0.00    +0.000 OA
ATOM     26  C   UNL     1       1.465   2.479  21.751  0.00  0.00    +0.000 C 
ENDBRANCH  21  25
BRANCH  22  27
ATOM     27  O   UNL     1       2.424   2.321  18.048  0.00  0.00    +0.000 OA
ATOM     28  C   UNL     1       3.495   1.451  18.379  0.00  0.00    +0.000 C 
ENDBRANCH  22  27
BRANCH  23  29
ATOM     29  O   UNL     1       3.720   4.573  16.795  0.00  0.00    +0.000 OA
ATOM     30  C   UNL     1       4.932   5.303  16.693  0.00  0.00    +0.000 C 
ENDBRANCH  23  29
ENDBRANCH  18  19
ENDBRANCH  11  18
TORSDOF 9
ENDMDL
MODEL 5
REMARK VINA RESULT:      -6.2      2.885      7.960
REMARK  Name = 
REMARK  13 active torsions:
REMARK  status: ('A' for Active; 'I' for Inactive)
REMARK    1  A    between atoms: C_1  and  C_2
REMARK    2  A    between atoms: C_2  and  O_3
REMARK    3  A    between atoms: O_3  and  C_4
REMARK    4  A    between atoms: C_4  and  C_6
REMARK    5  A    between atoms: C_6  and  C_7
REMARK    6  A    between atoms: N_17  and  C_18
REMARK    7  A    between atoms: C_18  and  C_19
REMARK    8  A    between atoms: C_21  and  O_22
REMARK    9  A    between atoms: O_22  and  C_23
REMARK   10  A    between atoms: C_24  and  O_25
REMARK   11  A    between atoms: O_25  and  C_26
REMARK   12  A    between atoms: C_27  and  O_28
REMARK   13  A    between atoms: O_28  and  C_29
REMARK                            x       y       z     vdW  Elec       q    Type
REMARK                         _______ _______ _______ _____ _____    ______ ____
ROOT
ATOM      1  C   UNL     1      -0.054  10.619  19.550  0.00  0.00    +0.000 C 
ATOM      2  C   UNL     1       0.829   9.448  19.167  0.00  0.00    +0.000 A 
ATOM      3  C   UNL     1       1.464   9.214  17.948  0.00  0.00    +0.000 A 
ATOM      4  C   UNL     1       2.405   8.178  17.855  0.00  0.00    +0.000 A 
ATOM      5  C   UNL     1       2.683   7.355  18.956  0.00  0.00    +0.000 A 
ATOM      6  C   UNL     1       2.017   7.551  20.160  0.00  0.00    +0.000 A 
ATOM      7  C   UNL     1       1.102   8.591  20.229  0.00  0.00    +0.000 A 
ATOM      8  S   UNL     1       0.348   9.136  21.705  0.00  0.00    +0.000 S 
ATOM      9  O   UNL     1       1.422   9.392  22.638  0.00  0.00    +0.000 OA
ATOM     10  O   UNL     1      -0.757   8.246  21.980  0.00  0.00    +0.000 OA
ATOM     11  N   UNL     1      -0.269  10.600  21.057  0.00  0.00    +0.000 NA
ENDROOT
BRANCH   1  12
ATOM     12  C   UNL     1       0.413  11.953  18.954  0.00  0.00    +0.000 C 
BRANCH  12  13
ATOM     13  C   UNL     1      -0.715  12.747  18.339  0.00  0.00    +0.000 C 
ATOM     14  O   UNL     1      -1.683  12.270  17.764  0.00  0.00    +0.000 OA
BRANCH  13  15
ATOM     15  O   UNL     1      -0.502  14.081  18.497  0.00  0.00    +0.000 OA
BRANCH  15  17
ATOM     16  C   UNL     1       1.070  15.902  18.824  0.00  0.00    +0.000 C 
ATOM     17  C   UNL     1       0.815  14.412  18.963  0.00  0.00    +0.000 C 
ENDBRANCH  15  17
ENDBRANCH  13  15
ENDBRANCH  12  13
ENDBRANCH   1  12
BRANCH  11  18
ATOM     18  C   UNL     1      -0.031  11.831  21.837  0.00  0.00    +0.000 C 
BRANCH  18  19
ATOM     19  C   UNL     1      -1.260  12.567  22.320  0.00  0.00    +0.000 A 
ATOM     20  C   UNL     1      -1.143  13.503  23.351  0.00  0.00    +0.000 A 
ATOM     21  C   UNL     1      -2.250  14.192  23.861  0.00  0.00    +0.000 A 
ATOM     22  C   UNL     1      -3.532  13.966  23.313  0.00  0.00    +0.000 A 
ATOM     23  C   UNL     1      -3.650  13.049  22.236  0.00  0.00    +0.000 A 
ATOM     24  C   UNL     1      -2.519  12.359  21.761  0.00  0.00    +0.000 A 
BRANCH  21  25
ATOM     25  O   UNL     1      -2.112  15.055  24.918  0.00  0.00    +0.000 OA
ATOM     26  C   UNL     1      -1.614  16.359  24.642  0.00  0.00    +0.000 C 
ENDBRANCH  21  25
BRANCH  22  27
ATOM     27  O   UNL     1      -4.688  14.576  23.719  0.00  0.00    +0.000 OA
ATOM     28  C   UNL     1      -5.080  15.820  23.162  0.00  0.00    +0.000 C 
ENDBRANCH  22  27
BRANCH  23  29
ATOM     29  O   UNL     1      -4.774  12.715  21.516  0.00  0.00    +0.000 OA
ATOM     30  C   UNL     1      -4.693  12.631  20.102  0.00  0.00    +0.000 C 
ENDBRANCH  23  29
ENDBRANCH  18  19
ENDBRANCH  11  18
TORSDOF 9
ENDMDL
MODEL 6
REMARK VINA RESULT:      -6.2      2.420      8.060
REMARK  Name = 
REMARK  13 active torsions:
REMARK  status: ('A' for Active; 'I' for Inactive)
REMARK    1  A    between atoms: C_1  and  C_2
REMARK    2  A    between atoms: C_2  and  O_3
REMARK    3  A    between atoms: O_3  and  C_4
REMARK    4  A    between atoms: C_4  and  C_6
REMARK    5  A    between atoms: C_6  and  C_7
REMARK    6  A    between atoms: N_17  and  C_18
REMARK    7  A    between atoms: C_18  and  C_19
REMARK    8  A    between atoms: C_21  and  O_22
REMARK    9  A    between atoms: O_22  and  C_23
REMARK   10  A    between atoms: C_24  and  O_25
REMARK   11  A    between atoms: O_25  and  C_26
REMARK   12  A    between atoms: C_27  and  O_28
REMARK   13  A    between atoms: O_28  and  C_29
REMARK                            x       y       z     vdW  Elec       q    Type
REMARK                         _______ _______ _______ _____ _____    ______ ____
ROOT
ATOM      1  C   UNL     1       2.596   5.542  18.151  0.00  0.00    +0.000 C 
ATOM      2  C   UNL     1       2.919   4.062  18.099  0.00  0.00    +0.000 A 
ATOM      3  C   UNL     1       3.722   3.390  17.178  0.00  0.00    +0.000 A 
ATOM      4  C   UNL     1       4.065   2.051  17.418  0.00  0.00    +0.000 A 
ATOM      5  C   UNL     1       3.578   1.373  18.544  0.00  0.00    +0.000 A 
ATOM      6  C   UNL     1       2.736   2.021  19.440  0.00  0.00    +0.000 A 
ATOM      7  C   UNL     1       2.425   3.349  19.187  0.00  0.00    +0.000 A 
ATOM      8  S   UNL     1       1.583   4.387  20.308  0.00  0.00    +0.000 S 
ATOM      9  O   UNL     1       2.303   4.304  21.558  0.00  0.00    +0.000 OA
ATOM     10  O   UNL     1       0.171   4.111  20.177  0.00  0.00    +0.000 OA
ATOM     11  N   UNL     1       1.937   5.854  19.488  0.00  0.00    +0.000 NA
ENDROOT
BRANCH   1  12
ATOM     12  C   UNL     1       3.778   6.437  17.760  0.00  0.00    +0.000 C 
BRANCH  12  13
ATOM     13  C   UNL     1       5.099   5.925  18.282  0.00  0.00    +0.000 C 
ATOM     14  O   UNL     1       5.297   5.509  19.415  0.00  0.00    +0.000 OA
BRANCH  13  15
ATOM     15  O   UNL     1       6.056   6.001  17.318  0.00  0.00    +0.000 OA
BRANCH  15  17
ATOM     16  C   UNL     1       7.914   7.385  18.043  0.00  0.00    +0.000 C 
ATOM     17  C   UNL     1       6.658   7.298  17.195  0.00  0.00    +0.000 C 
ENDBRANCH  15  17
ENDBRANCH  13  15
ENDBRANCH  12  13
ENDBRANCH   1  12
BRANCH  11  18
ATOM     18  C   UNL     1       2.452   6.971  20.305  0.00  0.00    +0.000 C 
BRANCH  18  19
ATOM     19  C   UNL     1       1.623   8.234  20.312  0.00  0.00    +0.000 A 
ATOM     20  C   UNL     1       1.357   8.879  21.523  0.00  0.00    +0.000 A 
ATOM     21  C   UNL     1       0.569  10.033  21.595  0.00  0.00    +0.000 A 
ATOM     22  C   UNL     1       0.035  10.596  20.415  0.00  0.00    +0.000 A 
ATOM     23  C   UNL     1       0.338   9.970  19.177  0.00  0.00    +0.000 A 
ATOM     24  C   UNL     1       1.118   8.799  19.143  0.00  0.00    +0.000 A 
BRANCH  21  25
ATOM     25  O   UNL     1       0.272  10.604  22.807  0.00  0.00    +0.000 OA
ATOM     26  C   UNL     1      -1.027  10.376  23.341  0.00  0.00    +0.000 C 
ENDBRANCH  21  25
BRANCH  22  27
ATOM     27  O   UNL     1      -0.743  11.719  20.351  0.00  0.00    +0.000 OA
ATOM     28  C   UNL     1      -0.149  13.003  20.245  0.00  0.00    +0.000 C 
ENDBRANCH  22  27
BRANCH  23  29
ATOM     29  O   UNL     1      -0.019  10.366  17.909  0.00  0.00    +0.000 OA
ATOM     30  C   UNL     1      -1.320  10.069  17.428  0.00  0.00    +0.000 C 
ENDBRANCH  23  29
ENDBRANCH  18  19
ENDBRANCH  11  18
TORSDOF 9
ENDMDL
MODEL 7
REMARK VINA RESULT:      -6.2      2.431      7.841
REMARK  Name = 
REMARK  13 active torsions:
REMARK  status: ('A' for Active; 'I' for Inactive)
REMARK    1  A    between atoms: C_1  and  C_2
REMARK    2  A    between atoms: C_2  and  O_3
REMARK    3  A    between atoms: O_3  and  C_4
REMARK    4  A    between atoms: C_4  and  C_6
REMARK    5  A    between atoms: C_6  and  C_7
REMARK    6  A    between atoms: N_17  and  C_18
REMARK    7  A    between atoms: C_18  and  C_19
REMARK    8  A    between atoms: C_21  and  O_22
REMARK    9  A    between atoms: O_22  and  C_23
REMARK   10  A    between atoms: C_24  and  O_25
REMARK   11  A    between atoms: O_25  and  C_26
REMARK   12  A    between atoms: C_27  and  O_28
REMARK   13  A    between atoms: O_28  and  C_29
REMARK                            x       y       z     vdW  Elec       q    Type
REMARK                         _______ _______ _______ _____ _____    ______ ____
ROOT
ATOM      1  C   UNL     1       2.540   5.589  18.087  0.00  0.00    +0.000 C 
ATOM      2  C   UNL     1       2.884   4.113  18.056  0.00  0.00    +0.000 A 
ATOM      3  C   UNL     1       3.658   3.431  17.117  0.00  0.00    +0.000 A 
ATOM      4  C   UNL     1       4.032   2.104  17.373  0.00  0.00    +0.000 A 
ATOM      5  C   UNL     1       3.606   1.446  18.536  0.00  0.00    +0.000 A 
ATOM      6  C   UNL     1       2.792   2.103  19.452  0.00  0.00    +0.000 A 
ATOM      7  C   UNL     1       2.450   3.419  19.181  0.00  0.00    +0.000 A 
ATOM      8  S   UNL     1       1.640   4.472  20.313  0.00  0.00    +0.000 S 
ATOM      9  O   UNL     1       2.415   4.430  21.532  0.00  0.00    +0.000 OA
ATOM     10  O   UNL     1       0.228   4.172  20.251  0.00  0.00    +0.000 OA
ATOM     11  N   UNL     1       1.935   5.923  19.444  0.00  0.00    +0.000 NA
ENDROOT
BRANCH   1  12
ATOM     12  C   UNL     1       3.690   6.491  17.623  0.00  0.00    +0.000 C 
BRANCH  12  13
ATOM     13  C   UNL     1       5.038   6.024  18.116  0.00  0.00    +0.000 C 
ATOM     14  O   UNL     1       5.264   5.570  19.229  0.00  0.00    +0.000 OA
BRANCH  13  15
ATOM     15  O   UNL     1       5.984   6.189  17.152  0.00  0.00    +0.000 OA
BRANCH  15  17
ATOM     16  C   UNL     1       7.690   7.871  17.545  0.00  0.00    +0.000 C 
ATOM     17  C   UNL     1       7.307   6.406  17.664  0.00  0.00    +0.000 C 
ENDBRANCH  15  17
ENDBRANCH  13  15
ENDBRANCH  12  13
ENDBRANCH   1  12
BRANCH  11  18
ATOM     18  C   UNL     1       2.467   7.068  20.211  0.00  0.00    +0.000 C 
BRANCH  18  19
ATOM     19  C   UNL     1       1.590   8.297  20.275  0.00  0.00    +0.000 A 
ATOM     20  C   UNL     1       1.055   8.825  19.098  0.00  0.00    +0.000 A 
ATOM     21  C   UNL     1       0.263   9.979  19.092  0.00  0.00    +0.000 A 
ATOM     22  C   UNL     1      -0.037  10.633  20.307  0.00  0.00    +0.000 A 
ATOM     23  C   UNL     1       0.469  10.077  21.511  0.00  0.00    +0.000 A 
ATOM     24  C   UNL     1       1.278   8.925  21.479  0.00  0.00    +0.000 A 
BRANCH  21  25
ATOM     25  O   UNL     1      -0.193  10.510  17.912  0.00  0.00    +0.000 OA
ATOM     26  C   UNL     1      -1.460  10.069  17.438  0.00  0.00    +0.000 C 
ENDBRANCH  21  25
BRANCH  22  27
ATOM     27  O   UNL     1      -0.799  11.762  20.435  0.00  0.00    +0.000 OA
ATOM     28  C   UNL     1      -0.208  13.047  20.322  0.00  0.00    +0.000 C 
ENDBRANCH  22  27
BRANCH  23  29
ATOM     29  O   UNL     1       0.263  10.502  22.803  0.00  0.00    +0.000 OA
ATOM     30  C   UNL     1      -0.149   9.566  23.786  0.00  0.00    +0.000 C 
ENDBRANCH  23  29
ENDBRANCH  18  19
ENDBRANCH  11  18
TORSDOF 9
ENDMDL
MODEL 8
REMARK VINA RESULT:      -6.2      2.840      8.043
REMARK  Name = 
REMARK  13 active torsions:
REMARK  status: ('A' for Active; 'I' for Inactive)
REMARK    1  A    between atoms: C_1  and  C_2
REMARK    2  A    between atoms: C_2  and  O_3
REMARK    3  A    between atoms: O_3  and  C_4
REMARK    4  A    between atoms: C_4  and  C_6
REMARK    5  A    between atoms: C_6  and  C_7
REMARK    6  A    between atoms: N_17  and  C_18
REMARK    7  A    between atoms: C_18  and  C_19
REMARK    8  A    between atoms: C_21  and  O_22
REMARK    9  A    between atoms: O_22  and  C_23
REMARK   10  A    between atoms: C_24  and  O_25
REMARK   11  A    between atoms: O_25  and  C_26
REMARK   12  A    between atoms: C_27  and  O_28
REMARK   13  A    between atoms: O_28  and  C_29
REMARK                            x       y       z     vdW  Elec       q    Type
REMARK                         _______ _______ _______ _____ _____    ______ ____
ROOT
ATOM      1  C   UNL     1      -0.011  10.725  19.702  0.00  0.00    +0.000 C 
ATOM      2  C   UNL     1       0.825   9.535  19.274  0.00  0.00    +0.000 A 
ATOM      3  C   UNL     1       1.444   9.318  18.043  0.00  0.00    +0.000 A 
ATOM      4  C   UNL     1       2.345   8.251  17.909  0.00  0.00    +0.000 A 
ATOM      5  C   UNL     1       2.596   7.381  18.979  0.00  0.00    +0.000 A 
ATOM      6  C   UNL     1       1.944   7.560  20.194  0.00  0.00    +0.000 A 
ATOM      7  C   UNL     1       1.070   8.632  20.303  0.00  0.00    +0.000 A 
ATOM      8  S   UNL     1       0.345   9.154  21.802  0.00  0.00    +0.000 S 
ATOM      9  O   UNL     1       1.433   9.336  22.737  0.00  0.00    +0.000 OA
ATOM     10  O   UNL     1      -0.792   8.298  22.054  0.00  0.00    +0.000 OA
ATOM     11  N   UNL     1      -0.218  10.662  21.208  0.00  0.00    +0.000 NA
ENDROOT
BRANCH   1  12
ATOM     12  C   UNL     1       0.504  12.060  19.149  0.00  0.00    +0.000 C 
BRANCH  12  13
ATOM     13  C   UNL     1      -0.600  12.930  18.596  0.00  0.00    +0.000 C 
ATOM     14  O   UNL     1      -1.267  12.678  17.603  0.00  0.00    +0.000 OA
BRANCH  13  15
ATOM     15  O   UNL     1      -0.746  14.053  19.350  0.00  0.00    +0.000 OA
BRANCH  15  17
ATOM     16  C   UNL     1       1.119  15.607  19.312  0.00  0.00    +0.000 C 
ATOM     17  C   UNL     1      -0.235  15.243  18.730  0.00  0.00    +0.000 C 
ENDBRANCH  15  17
ENDBRANCH  13  15
ENDBRANCH  12  13
ENDBRANCH   1  12
BRANCH  11  18
ATOM     18  C   UNL     1       0.070  11.856  22.029  0.00  0.00    +0.000 C 
BRANCH  18  19
ATOM     19  C   UNL     1      -1.126  12.586  22.595  0.00  0.00    +0.000 A 
ATOM     20  C   UNL     1      -2.410  12.086  22.368  0.00  0.00    +0.000 A 
ATOM     21  C   UNL     1      -3.557  12.736  22.840  0.00  0.00    +0.000 A 
ATOM     22  C   UNL     1      -3.432  13.924  23.593  0.00  0.00    +0.000 A 
ATOM     23  C   UNL     1      -2.128  14.413  23.864  0.00  0.00    +0.000 A 
ATOM     24  C   UNL     1      -0.997  13.745  23.357  0.00  0.00    +0.000 A 
BRANCH  21  25
ATOM     25  O   UNL     1      -4.807  12.254  22.544  0.00  0.00    +0.000 OA
ATOM     26  C   UNL     1      -5.364  12.602  21.281  0.00  0.00    +0.000 C 
ENDBRANCH  21  25
BRANCH  22  27
ATOM     27  O   UNL     1      -4.471  14.649  24.111  0.00  0.00    +0.000 OA
ATOM     28  C   UNL     1      -5.027  15.732  23.384  0.00  0.00    +0.000 C 
ENDBRANCH  22  27
BRANCH  23  29
ATOM     29  O   UNL     1      -1.763  15.507  24.614  0.00  0.00    +0.000 OA
ATOM     30  C   UNL     1      -1.028  16.556  24.003  0.00  0.00    +0.000 C 
ENDBRANCH  23  29
ENDBRANCH  18  19
ENDBRANCH  11  18
TORSDOF 9
ENDMDL
MODEL 9
REMARK VINA RESULT:      -6.1      2.894      8.222
REMARK  Name = 
REMARK  13 active torsions:
REMARK  status: ('A' for Active; 'I' for Inactive)
REMARK    1  A    between atoms: C_1  and  C_2
REMARK    2  A    between atoms: C_2  and  O_3
REMARK    3  A    between atoms: O_3  and  C_4
REMARK    4  A    between atoms: C_4  and  C_6
REMARK    5  A    between atoms: C_6  and  C_7
REMARK    6  A    between atoms: N_17  and  C_18
REMARK    7  A    between atoms: C_18  and  C_19
REMARK    8  A    between atoms: C_21  and  O_22
REMARK    9  A    between atoms: O_22  and  C_23
REMARK   10  A    between atoms: C_24  and  O_25
REMARK   11  A    between atoms: O_25  and  C_26
REMARK   12  A    between atoms: C_27  and  O_28
REMARK   13  A    between atoms: O_28  and  C_29
REMARK                            x       y       z     vdW  Elec       q    Type
REMARK                         _______ _______ _______ _____ _____    ______ ____
ROOT
ATOM      1  C   UNL     1      -0.032  10.625  19.650  0.00  0.00    +0.000 C 
ATOM      2  C   UNL     1       0.825   9.448  19.228  0.00  0.00    +0.000 A 
ATOM      3  C   UNL     1       1.435   9.229  17.994  0.00  0.00    +0.000 A 
ATOM      4  C   UNL     1       2.358   8.181  17.863  0.00  0.00    +0.000 A 
ATOM      5  C   UNL     1       2.642   7.332  18.942  0.00  0.00    +0.000 A 
ATOM      6  C   UNL     1       2.001   7.513  20.162  0.00  0.00    +0.000 A 
ATOM      7  C   UNL     1       1.104   8.566  20.267  0.00  0.00    +0.000 A 
ATOM      8  S   UNL     1       0.385   9.092  21.767  0.00  0.00    +0.000 S 
ATOM      9  O   UNL     1       1.479   9.313  22.686  0.00  0.00    +0.000 OA
ATOM     10  O   UNL     1      -0.729   8.215  22.045  0.00  0.00    +0.000 OA
ATOM     11  N   UNL     1      -0.220  10.579  21.160  0.00  0.00    +0.000 NA
ENDROOT
BRANCH   1  12
ATOM     12  C   UNL     1       0.445  11.963  19.072  0.00  0.00    +0.000 C 
BRANCH  12  13
ATOM     13  C   UNL     1      -0.691  12.829  18.583  0.00  0.00    +0.000 C 
ATOM     14  O   UNL     1      -0.602  14.015  18.298  0.00  0.00    +0.000 OA
BRANCH  13  15
ATOM     15  O   UNL     1      -1.845  12.112  18.516  0.00  0.00    +0.000 OA
BRANCH  15  17
ATOM     16  C   UNL     1      -2.973  10.336  17.305  0.00  0.00    +0.000 C 
ATOM     17  C   UNL     1      -2.140  11.602  17.207  0.00  0.00    +0.000 C 
ENDBRANCH  15  17
ENDBRANCH  13  15
ENDBRANCH  12  13
ENDBRANCH   1  12
BRANCH  11  18
ATOM     18  C   UNL     1       0.051  11.790  21.960  0.00  0.00    +0.000 C 
BRANCH  18  19
ATOM     19  C   UNL     1      -1.124  12.708  22.207  0.00  0.00    +0.000 A 
ATOM     20  C   UNL     1      -2.421  12.189  22.185  0.00  0.00    +0.000 A 
ATOM     21  C   UNL     1      -3.550  12.996  22.375  0.00  0.00    +0.000 A 
ATOM     22  C   UNL     1      -3.393  14.377  22.622  0.00  0.00    +0.000 A 
ATOM     23  C   UNL     1      -2.076  14.902  22.689  0.00  0.00    +0.000 A 
ATOM     24  C   UNL     1      -0.964  14.066  22.474  0.00  0.00    +0.000 A 
BRANCH  21  25
ATOM     25  O   UNL     1      -4.812  12.467  22.281  0.00  0.00    +0.000 OA
ATOM     26  C   UNL     1      -5.446  12.500  21.008  0.00  0.00    +0.000 C 
ENDBRANCH  21  25
BRANCH  22  27
ATOM     27  O   UNL     1      -4.411  15.268  22.827  0.00  0.00    +0.000 OA
ATOM     28  C   UNL     1      -4.905  15.510  24.135  0.00  0.00    +0.000 C 
ENDBRANCH  22  27
BRANCH  23  29
ATOM     29  O   UNL     1      -1.681  16.190  22.971  0.00  0.00    +0.000 OA
ATOM     30  C   UNL     1      -0.391  16.418  23.514  0.00  0.00    +0.000 C 
ENDBRANCH  23  29
ENDBRANCH  18  19
ENDBRANCH  11  18
TORSDOF 9
ENDMDL
