MODEL 1
REMARK VINA RESULT:      -8.9      0.000      0.000
REMARK  Name = 
REMARK  6 active torsions:
REMARK  status: ('A' for Active; 'I' for Inactive)
REMARK    1  A    between atoms: C_1  and  O_2
REMARK    2  A    between atoms: O_2  and  C_3
REMARK    3  A    between atoms: C_10  and  C_11
REMARK    4  A    between atoms: N_13  and  C_14
REMARK    5  A    between atoms: N_17  and  C_18
REMARK    6  A    between atoms: C_18  and  C_19
REMARK                            x       y       z     vdW  Elec       q    Type
REMARK                         _______ _______ _______ _____ _____    ______ ____
ROOT
ATOM      1  C   UNL     1       1.248  13.610  20.715  0.00  0.00    +0.000 C 
ATOM      2  C   UNL     1       0.948  12.292  20.031  0.00  0.00    +0.000 C 
ATOM      3  N   UNL     1      -0.148  11.754  20.791  0.00  0.00    +0.000 N 
ATOM      4  C   UNL     1      -0.152  12.349  22.032  0.00  0.00    +0.000 C 
ATOM      5  O   UNL     1      -0.776  12.017  23.031  0.00  0.00    +0.000 OA
ATOM      6  O   UNL     1       0.657  13.458  22.023  0.00  0.00    +0.000 OA
ENDROOT
BRANCH   1  14
ATOM      7  C   UNL     1       3.445  15.924  17.563  0.00  0.00    +0.000 A 
ATOM      8  C   UNL     1       2.888  17.121  17.129  0.00  0.00    +0.000 A 
ATOM      9  C   UNL     1       1.629  17.498  17.585  0.00  0.00    +0.000 A 
ATOM     10  C   UNL     1       0.908  16.730  18.485  0.00  0.00    +0.000 A 
ATOM     11  N   UNL     1      -0.291  17.198  18.848  0.00  0.00    +0.000 NA
ATOM     12  C   UNL     1      -1.006  16.491  19.738  0.00  0.00    +0.000 A 
ATOM     13  C   UNL     1      -0.562  15.324  20.322  0.00  0.00    +0.000 A 
ATOM     14  C   UNL     1       0.706  14.831  19.981  0.00  0.00    +0.000 A 
ATOM     15  C   UNL     1       1.460  15.521  18.979  0.00  0.00    +0.000 A 
ATOM     16  C   UNL     1       2.719  15.116  18.451  0.00  0.00    +0.000 A 
BRANCH   7  18
ATOM     17  C   UNL     1       5.510  15.005  18.235  0.00  0.00    +0.000 C 
ATOM     18  O   UNL     1       4.670  15.460  17.171  0.00  0.00    +0.000 OA
ENDBRANCH   7  18
ENDBRANCH   1  14
BRANCH   3  19
ATOM     19  C   UNL     1      -0.832  10.518  20.360  0.00  0.00    +0.000 C 
ATOM     20  C   UNL     1      -0.165   9.271  20.953  0.00  0.00    +0.000 C 
ATOM     21  C   UNL     1       1.181   8.982  20.295  0.00  0.00    +0.000 C 
ATOM     22  N   UNL     1       1.065   8.796  18.841  0.00  0.00    +0.000 NA
ATOM     23  C   UNL     1       0.357   9.916  18.188  0.00  0.00    +0.000 C 
ATOM     24  C   UNL     1      -0.971  10.296  18.852  0.00  0.00    +0.000 C 
BRANCH  22  25
ATOM     25  C   UNL     1       2.414   8.677  18.237  0.00  0.00    +0.000 C 
BRANCH  25  26
ATOM     26  C   UNL     1       2.872   7.253  17.992  0.00  0.00    +0.000 A 
ATOM     27  C   UNL     1       4.153   7.009  17.479  0.00  0.00    +0.000 A 
ATOM     28  C   UNL     1       4.567   5.709  17.187  0.00  0.00    +0.000 A 
ATOM     29  C   UNL     1       3.738   4.617  17.467  0.00  0.00    +0.000 A 
ATOM     30  C   UNL     1       4.168   3.304  17.218  0.00  0.00    +0.000 A 
ATOM     31  C   UNL     1       3.374   2.216  17.580  0.00  0.00    +0.000 A 
ATOM     32  C   UNL     1       2.134   2.431  18.174  0.00  0.00    +0.000 A 
ATOM     33  C   UNL     1       1.672   3.733  18.382  0.00  0.00    +0.000 A 
ATOM     34  C   UNL     1       2.463   4.841  18.036  0.00  0.00    +0.000 A 
ATOM     35  C   UNL     1       2.031   6.161  18.258  0.00  0.00    +0.000 A 
ENDBRANCH  25  26
ENDBRANCH  22  25
ENDBRANCH   3  19
TORSDOF 5
ENDMDL
MODEL 2
REMARK VINA RESULT:      -8.5      5.193     10.265
REMARK  Name = 
REMARK  6 active torsions:
REMARK  status: ('A' for Active; 'I' for Inactive)
REMARK    1  A    between atoms: C_1  and  O_2
REMARK    2  A    between atoms: O_2  and  C_3
REMARK    3  A    between atoms: C_10  and  C_11
REMARK    4  A    between atoms: N_13  and  C_14
REMARK    5  A    between atoms: N_17  and  C_18
REMARK    6  A    between atoms: C_18  and  C_19
REMARK                            x       y       z     vdW  Elec       q    Type
REMARK                         _______ _______ _______ _____ _____    ______ ____
ROOT
ATOM      1  C   UNL     1       5.000   2.752  17.498  0.00  0.00    +0.000 C 
ATOM      2  C   UNL     1       3.501   2.894  17.334  0.00  0.00    +0.000 C 
ATOM      3  N   UNL     1       3.033   3.142  18.672  0.00  0.00    +0.000 N 
ATOM      4  C   UNL     1       3.981   2.684  19.557  0.00  0.00    +0.000 C 
ATOM      5  O   UNL     1       3.873   2.511  20.764  0.00  0.00    +0.000 OA
ATOM      6  O   UNL     1       5.164   2.451  18.899  0.00  0.00    +0.000 OA
ENDROOT
BRANCH   1  14
ATOM      7  C   UNL     1       6.253   3.735  13.304  0.00  0.00    +0.000 A 
ATOM      8  C   UNL     1       7.130   4.797  13.120  0.00  0.00    +0.000 A 
ATOM      9  C   UNL     1       7.490   5.586  14.207  0.00  0.00    +0.000 A 
ATOM     10  C   UNL     1       7.022   5.340  15.488  0.00  0.00    +0.000 A 
ATOM     11  N   UNL     1       7.440   6.170  16.449  0.00  0.00    +0.000 NA
ATOM     12  C   UNL     1       7.025   5.946  17.707  0.00  0.00    +0.000 A 
ATOM     13  C   UNL     1       6.216   4.889  18.068  0.00  0.00    +0.000 A 
ATOM     14  C   UNL     1       5.792   3.987  17.081  0.00  0.00    +0.000 A 
ATOM     15  C   UNL     1       6.155   4.243  15.720  0.00  0.00    +0.000 A 
ATOM     16  C   UNL     1       5.743   3.486  14.587  0.00  0.00    +0.000 A 
BRANCH   7  18
ATOM     17  C   UNL     1       4.586   3.270  11.703  0.00  0.00    +0.000 C 
ATOM     18  O   UNL     1       5.831   2.904  12.303  0.00  0.00    +0.000 OA
ENDBRANCH   7  18
ENDBRANCH   1  14
BRANCH   3  19
ATOM     19  C   UNL     1       1.616   3.471  18.928  0.00  0.00    +0.000 C 
ATOM     20  C   UNL     1       1.120   4.583  17.996  0.00  0.00    +0.000 C 
ATOM     21  C   UNL     1       1.701   5.942  18.378  0.00  0.00    +0.000 C 
ATOM     22  N   UNL     1       1.379   6.320  19.762  0.00  0.00    +0.000 NA
ATOM     23  C   UNL     1       1.745   5.266  20.731  0.00  0.00    +0.000 C 
ATOM     24  C   UNL     1       1.247   3.866  20.360  0.00  0.00    +0.000 C 
BRANCH  22  25
ATOM     25  C   UNL     1       2.096   7.565  20.127  0.00  0.00    +0.000 C 
BRANCH  25  26
ATOM     26  C   UNL     1       1.200   8.766  20.358  0.00  0.00    +0.000 A 
ATOM     27  C   UNL     1       0.929   9.649  19.304  0.00  0.00    +0.000 A 
ATOM     28  C   UNL     1       0.158  10.793  19.515  0.00  0.00    +0.000 A 
ATOM     29  C   UNL     1      -0.417  11.045  20.765  0.00  0.00    +0.000 A 
ATOM     30  C   UNL     1      -1.230  12.170  20.970  0.00  0.00    +0.000 A 
ATOM     31  C   UNL     1      -1.873  12.369  22.191  0.00  0.00    +0.000 A 
ATOM     32  C   UNL     1      -1.690  11.457  23.227  0.00  0.00    +0.000 A 
ATOM     33  C   UNL     1      -0.844  10.359  23.053  0.00  0.00    +0.000 A 
ATOM     34  C   UNL     1      -0.199  10.135  21.826  0.00  0.00    +0.000 A 
ATOM     35  C   UNL     1       0.638   9.024  21.617  0.00  0.00    +0.000 A 
ENDBRANCH  25  26
ENDBRANCH  22  25
ENDBRANCH   3  19
TORSDOF 5
ENDMDL
MODEL 3
REMARK VINA RESULT:      -8.5      4.092      7.711
REMARK  Name = 
REMARK  6 active torsions:
REMARK  status: ('A' for Active; 'I' for Inactive)
REMARK    1  A    between atoms: C_1  and  O_2
REMARK    2  A    between atoms: O_2  and  C_3
REMARK    3  A    between atoms: C_10  and  C_11
REMARK    4  A    between atoms: N_13  and  C_14
REMARK    5  A    between atoms: N_17  and  C_18
REMARK    6  A    between atoms: C_18  and  C_19
REMARK                            x       y       z     vdW  Elec       q    Type
REMARK                         _______ _______ _______ _____ _____    ______ ____
ROOT
ATOM      1  C   UNL     1       1.833   5.713  20.824  0.00  0.00    +0.000 C 
ATOM      2  C   UNL     1       2.894   4.655  20.604  0.00  0.00    +0.000 C 
ATOM      3  N   UNL     1       2.214   3.644  19.839  0.00  0.00    +0.000 N 
ATOM      4  C   UNL     1       0.860   3.787  20.033  0.00  0.00    +0.000 C 
ATOM      5  O   UNL     1      -0.036   3.007  19.740  0.00  0.00    +0.000 OA
ATOM      6  O   UNL     1       0.594   5.007  20.606  0.00  0.00    +0.000 OA
ENDROOT
BRANCH   1  14
ATOM      7  C   UNL     1       0.528   9.880  21.852  0.00  0.00    +0.000 A 
ATOM      8  C   UNL     1       0.546  10.834  20.842  0.00  0.00    +0.000 A 
ATOM      9  C   UNL     1       1.075  10.508  19.598  0.00  0.00    +0.000 A 
ATOM     10  C   UNL     1       1.570   9.245  19.313  0.00  0.00    +0.000 A 
ATOM     11  N   UNL     1       2.053   9.054  18.081  0.00  0.00    +0.000 NA
ATOM     12  C   UNL     1       2.518   7.835  17.763  0.00  0.00    +0.000 A 
ATOM     13  C   UNL     1       2.499   6.760  18.626  0.00  0.00    +0.000 A 
ATOM     14  C   UNL     1       1.967   6.928  19.913  0.00  0.00    +0.000 A 
ATOM     15  C   UNL     1       1.534   8.235  20.307  0.00  0.00    +0.000 A 
ATOM     16  C   UNL     1       1.051   8.604  21.595  0.00  0.00    +0.000 A 
BRANCH   7  18
ATOM     17  C   UNL     1      -1.180  10.849  23.157  0.00  0.00    +0.000 C 
ATOM     18  O   UNL     1       0.037  10.101  23.110  0.00  0.00    +0.000 OA
ENDBRANCH   7  18
ENDBRANCH   1  14
BRANCH   3  19
ATOM     19  C   UNL     1       2.950   2.483  19.300  0.00  0.00    +0.000 C 
ATOM     20  C   UNL     1       4.461   2.618  19.531  0.00  0.00    +0.000 C 
ATOM     21  C   UNL     1       5.080   3.672  18.619  0.00  0.00    +0.000 C 
ATOM     22  N   UNL     1       4.854   3.385  17.195  0.00  0.00    +0.000 NA
ATOM     23  C   UNL     1       3.427   3.154  16.889  0.00  0.00    +0.000 C 
ATOM     24  C   UNL     1       2.735   2.154  17.820  0.00  0.00    +0.000 C 
BRANCH  22  25
ATOM     25  C   UNL     1       5.336   4.516  16.367  0.00  0.00    +0.000 C 
BRANCH  25  26
ATOM     26  C   UNL     1       6.281   5.462  17.080  0.00  0.00    +0.000 A 
ATOM     27  C   UNL     1       7.232   4.957  17.976  0.00  0.00    +0.000 A 
ATOM     28  C   UNL     1       8.068   5.819  18.688  0.00  0.00    +0.000 A 
ATOM     29  C   UNL     1       8.020   7.200  18.470  0.00  0.00    +0.000 A 
ATOM     30  C   UNL     1       8.889   8.067  19.150  0.00  0.00    +0.000 A 
ATOM     31  C   UNL     1       8.898   9.432  18.863  0.00  0.00    +0.000 A 
ATOM     32  C   UNL     1       8.023   9.946  17.911  0.00  0.00    +0.000 A 
ATOM     33  C   UNL     1       7.118   9.102  17.262  0.00  0.00    +0.000 A 
ATOM     34  C   UNL     1       7.103   7.724  17.528  0.00  0.00    +0.000 A 
ATOM     35  C   UNL     1       6.219   6.849  16.870  0.00  0.00    +0.000 A 
ENDBRANCH  25  26
ENDBRANCH  22  25
ENDBRANCH   3  19
TORSDOF 5
ENDMDL
MODEL 4
REMARK VINA RESULT:      -8.5      0.781      1.620
REMARK  Name = 
REMARK  6 active torsions:
REMARK  status: ('A' for Active; 'I' for Inactive)
REMARK    1  A    between atoms: C_1  and  O_2
REMARK    2  A    between atoms: O_2  and  C_3
REMARK    3  A    between atoms: C_10  and  C_11
REMARK    4  A    between atoms: N_13  and  C_14
REMARK    5  A    between atoms: N_17  and  C_18
REMARK    6  A    between atoms: C_18  and  C_19
REMARK                            x       y       z     vdW  Elec       q    Type
REMARK                         _______ _______ _______ _____ _____    ______ ____
ROOT
ATOM      1  C   UNL     1       1.258  13.621  21.080  0.00  0.00    +0.000 C 
ATOM      2  C   UNL     1       1.040  12.264  20.444  0.00  0.00    +0.000 C 
ATOM      3  N   UNL     1      -0.173  11.791  21.056  0.00  0.00    +0.000 N 
ATOM      4  C   UNL     1      -0.356  12.467  22.240  0.00  0.00    +0.000 C 
ATOM      5  O   UNL     1      -1.135  12.210  23.149  0.00  0.00    +0.000 OA
ATOM      6  O   UNL     1       0.468  13.564  22.286  0.00  0.00    +0.000 OA
ENDROOT
BRANCH   1  14
ATOM      7  C   UNL     1       3.822  15.421  17.869  0.00  0.00    +0.000 A 
ATOM      8  C   UNL     1       3.392  16.604  17.282  0.00  0.00    +0.000 A 
ATOM      9  C   UNL     1       2.144  17.121  17.612  0.00  0.00    +0.000 A 
ATOM     10  C   UNL     1       1.310  16.508  18.533  0.00  0.00    +0.000 A 
ATOM     11  N   UNL     1       0.134  17.102  18.765  0.00  0.00    +0.000 NA
ATOM     12  C   UNL     1      -0.689  16.547  19.671  0.00  0.00    +0.000 A 
ATOM     13  C   UNL     1      -0.378  15.417  20.397  0.00  0.00    +0.000 A 
ATOM     14  C   UNL     1       0.864  14.797  20.193  0.00  0.00    +0.000 A 
ATOM     15  C   UNL     1       1.730  15.319  19.180  0.00  0.00    +0.000 A 
ATOM     16  C   UNL     1       2.981  14.767  18.782  0.00  0.00    +0.000 A 
BRANCH   7  18
ATOM     17  C   UNL     1       6.156  15.471  18.202  0.00  0.00    +0.000 C 
ATOM     18  O   UNL     1       5.026  14.825  17.609  0.00  0.00    +0.000 OA
ENDBRANCH   7  18
ENDBRANCH   1  14
BRANCH   3  19
ATOM     19  C   UNL     1      -0.807  10.536  20.604  0.00  0.00    +0.000 C 
ATOM     20  C   UNL     1      -0.043   9.306  21.109  0.00  0.00    +0.000 C 
ATOM     21  C   UNL     1       1.281   9.123  20.374  0.00  0.00    +0.000 C 
ATOM     22  N   UNL     1       1.104   8.991  18.921  0.00  0.00    +0.000 NA
ATOM     23  C   UNL     1       0.302  10.095  18.352  0.00  0.00    +0.000 C 
ATOM     24  C   UNL     1      -1.009  10.370  19.095  0.00  0.00    +0.000 C 
BRANCH  22  25
ATOM     25  C   UNL     1       2.425   8.975  18.248  0.00  0.00    +0.000 C 
BRANCH  25  26
ATOM     26  C   UNL     1       2.937   7.593  17.895  0.00  0.00    +0.000 A 
ATOM     27  C   UNL     1       2.241   6.457  18.331  0.00  0.00    +0.000 A 
ATOM     28  C   UNL     1       2.733   5.177  18.069  0.00  0.00    +0.000 A 
ATOM     29  C   UNL     1       3.893   5.002  17.307  0.00  0.00    +0.000 A 
ATOM     30  C   UNL     1       4.366   3.716  17.003  0.00  0.00    +0.000 A 
ATOM     31  C   UNL     1       5.471   3.545  16.169  0.00  0.00    +0.000 A 
ATOM     32  C   UNL     1       6.127   4.658  15.651  0.00  0.00    +0.000 A 
ATOM     33  C   UNL     1       5.697   5.944  15.985  0.00  0.00    +0.000 A 
ATOM     34  C   UNL     1       4.578   6.136  16.813  0.00  0.00    +0.000 A 
ATOM     35  C   UNL     1       4.110   7.420  17.145  0.00  0.00    +0.000 A 
ENDBRANCH  25  26
ENDBRANCH  22  25
ENDBRANCH   3  19
TORSDOF 5
ENDMDL
MODEL 5
REMARK VINA RESULT:      -8.5      5.228     10.293
REMARK  Name = 
REMARK  6 active torsions:
REMARK  status: ('A' for Active; 'I' for Inactive)
REMARK    1  A    between atoms: C_1  and  O_2
REMARK    2  A    between atoms: O_2  and  C_3
REMARK    3  A    between atoms: C_10  and  C_11
REMARK    4  A    between atoms: N_13  and  C_14
REMARK    5  A    between atoms: N_17  and  C_18
REMARK    6  A    between atoms: C_18  and  C_19
REMARK                            x       y       z     vdW  Elec       q    Type
REMARK                         _______ _______ _______ _____ _____    ______ ____
ROOT
ATOM      1  C   UNL     1       5.009   2.847  17.480  0.00  0.00    +0.000 C 
ATOM      2  C   UNL     1       3.516   2.985  17.262  0.00  0.00    +0.000 C 
ATOM      3  N   UNL     1       3.008   3.291  18.573  0.00  0.00    +0.000 N 
ATOM      4  C   UNL     1       3.925   2.870  19.507  0.00  0.00    +0.000 C 
ATOM      5  O   UNL     1       3.778   2.750  20.716  0.00  0.00    +0.000 OA
ATOM      6  O   UNL     1       5.128   2.606  18.897  0.00  0.00    +0.000 OA
ENDROOT
BRANCH   1  14
ATOM      7  C   UNL     1       6.271   3.719  13.265  0.00  0.00    +0.000 A 
ATOM      8  C   UNL     1       7.163   4.764  13.057  0.00  0.00    +0.000 A 
ATOM      9  C   UNL     1       7.536   5.572  14.125  0.00  0.00    +0.000 A 
ATOM     10  C   UNL     1       7.066   5.360  15.412  0.00  0.00    +0.000 A 
ATOM     11  N   UNL     1       7.497   6.205  16.355  0.00  0.00    +0.000 NA
ATOM     12  C   UNL     1       7.080   6.014  17.617  0.00  0.00    +0.000 A 
ATOM     13  C   UNL     1       6.256   4.978  18.002  0.00  0.00    +0.000 A 
ATOM     14  C   UNL     1       5.818   4.060  17.035  0.00  0.00    +0.000 A 
ATOM     15  C   UNL     1       6.183   4.281  15.669  0.00  0.00    +0.000 A 
ATOM     16  C   UNL     1       5.759   3.505  14.553  0.00  0.00    +0.000 A 
BRANCH   7  18
ATOM     17  C   UNL     1       4.591   3.237  11.683  0.00  0.00    +0.000 C 
ATOM     18  O   UNL     1       5.836   2.872  12.282  0.00  0.00    +0.000 OA
ENDBRANCH   7  18
ENDBRANCH   1  14
BRANCH   3  19
ATOM     19  C   UNL     1       1.585   3.634  18.769  0.00  0.00    +0.000 C 
ATOM     20  C   UNL     1       1.150   4.779  17.846  0.00  0.00    +0.000 C 
ATOM     21  C   UNL     1       1.729   6.118  18.293  0.00  0.00    +0.000 C 
ATOM     22  N   UNL     1       1.345   6.463  19.670  0.00  0.00    +0.000 NA
ATOM     23  C   UNL     1       1.650   5.378  20.626  0.00  0.00    +0.000 C 
ATOM     24  C   UNL     1       1.151   3.996  20.192  0.00  0.00    +0.000 C 
BRANCH  22  25
ATOM     25  C   UNL     1       2.061   7.687  20.104  0.00  0.00    +0.000 C 
BRANCH  25  26
ATOM     26  C   UNL     1       1.198   8.698  20.832  0.00  0.00    +0.000 A 
ATOM     27  C   UNL     1       1.192   8.733  22.232  0.00  0.00    +0.000 A 
ATOM     28  C   UNL     1       0.356   9.615  22.919  0.00  0.00    +0.000 A 
ATOM     29  C   UNL     1      -0.442  10.529  22.222  0.00  0.00    +0.000 A 
ATOM     30  C   UNL     1      -1.250  11.448  22.909  0.00  0.00    +0.000 A 
ATOM     31  C   UNL     1      -1.975  12.415  22.213  0.00  0.00    +0.000 A 
ATOM     32  C   UNL     1      -1.916  12.458  20.822  0.00  0.00    +0.000 A 
ATOM     33  C   UNL     1      -1.155  11.517  20.124  0.00  0.00    +0.000 A 
ATOM     34  C   UNL     1      -0.408  10.544  20.808  0.00  0.00    +0.000 A 
ATOM     35  C   UNL     1       0.386   9.602  20.129  0.00  0.00    +0.000 A 
ENDBRANCH  25  26
ENDBRANCH  22  25
ENDBRANCH   3  19
TORSDOF 5
ENDMDL
MODEL 6
REMARK VINA RESULT:      -8.2      2.037      2.809
REMARK  Name = 
REMARK  6 active torsions:
REMARK  status: ('A' for Active; 'I' for Inactive)
REMARK    1  A    between atoms: C_1  and  O_2
REMARK    2  A    between atoms: O_2  and  C_3
REMARK    3  A    between atoms: C_10  and  C_11
REMARK    4  A    between atoms: N_13  and  C_14
REMARK    5  A    between atoms: N_17  and  C_18
REMARK    6  A    between atoms: C_18  and  C_19
REMARK                            x       y       z     vdW  Elec       q    Type
REMARK                         _______ _______ _______ _____ _____    ______ ____
ROOT
ATOM      1  C   UNL     1       2.752  13.932  21.015  0.00  0.00    +0.000 C 
ATOM      2  C   UNL     1       2.095  12.706  20.415  0.00  0.00    +0.000 C 
ATOM      3  N   UNL     1       0.695  12.907  20.678  0.00  0.00    +0.000 N 
ATOM      4  C   UNL     1       0.570  13.794  21.722  0.00  0.00    +0.000 C 
ATOM      5  O   UNL     1      -0.428  14.055  22.381  0.00  0.00    +0.000 OA
ATOM      6  O   UNL     1       1.768  14.428  21.945  0.00  0.00    +0.000 OA
ENDROOT
BRANCH   1  14
ATOM      7  C   UNL     1       6.869  15.652  20.548  0.00  0.00    +0.000 A 
ATOM      8  C   UNL     1       7.026  16.739  19.696  0.00  0.00    +0.000 A 
ATOM      9  C   UNL     1       5.948  17.175  18.934  0.00  0.00    +0.000 A 
ATOM     10  C   UNL     1       4.700  16.577  19.006  0.00  0.00    +0.000 A 
ATOM     11  N   UNL     1       3.744  17.087  18.223  0.00  0.00    +0.000 NA
ATOM     12  C   UNL     1       2.516  16.547  18.286  0.00  0.00    +0.000 A 
ATOM     13  C   UNL     1       2.176  15.516  19.136  0.00  0.00    +0.000 A 
ATOM     14  C   UNL     1       3.156  14.987  19.991  0.00  0.00    +0.000 A 
ATOM     15  C   UNL     1       4.492  15.490  19.892  0.00  0.00    +0.000 A 
ATOM     16  C   UNL     1       5.622  15.013  20.615  0.00  0.00    +0.000 A 
BRANCH   7  18
ATOM     17  C   UNL     1       8.753  14.240  20.669  0.00  0.00    +0.000 C 
ATOM     18  O   UNL     1       7.865  15.141  21.334  0.00  0.00    +0.000 OA
ENDBRANCH   7  18
ENDBRANCH   1  14
BRANCH   3  19
ATOM     19  C   UNL     1      -0.316  11.981  20.129  0.00  0.00    +0.000 C 
ATOM     20  C   UNL     1      -0.898  11.073  21.220  0.00  0.00    +0.000 C 
ATOM     21  C   UNL     1       0.104  10.013  21.667  0.00  0.00    +0.000 C 
ATOM     22  N   UNL     1       0.559   9.166  20.555  0.00  0.00    +0.000 NA
ATOM     23  C   UNL     1       1.062   9.961  19.415  0.00  0.00    +0.000 C 
ATOM     24  C   UNL     1       0.124  11.087  18.968  0.00  0.00    +0.000 C 
BRANCH  22  25
ATOM     25  C   UNL     1       1.642   8.265  21.014  0.00  0.00    +0.000 C 
BRANCH  25  26
ATOM     26  C   UNL     1       1.842   7.030  20.158  0.00  0.00    +0.000 A 
ATOM     27  C   UNL     1       2.473   7.138  18.911  0.00  0.00    +0.000 A 
ATOM     28  C   UNL     1       2.609   6.023  18.083  0.00  0.00    +0.000 A 
ATOM     29  C   UNL     1       2.179   4.762  18.510  0.00  0.00    +0.000 A 
ATOM     30  C   UNL     1       2.354   3.630  17.699  0.00  0.00    +0.000 A 
ATOM     31  C   UNL     1       2.006   2.362  18.165  0.00  0.00    +0.000 A 
ATOM     32  C   UNL     1       1.458   2.217  19.436  0.00  0.00    +0.000 A 
ATOM     33  C   UNL     1       1.232   3.341  20.235  0.00  0.00    +0.000 A 
ATOM     34  C   UNL     1       1.588   4.624  19.788  0.00  0.00    +0.000 A 
ATOM     35  C   UNL     1       1.395   5.769  20.582  0.00  0.00    +0.000 A 
ENDBRANCH  25  26
ENDBRANCH  22  25
ENDBRANCH   3  19
TORSDOF 5
ENDMDL
MODEL 7
REMARK VINA RESULT:      -8.2      5.539     10.317
REMARK  Name = 
REMARK  6 active torsions:
REMARK  status: ('A' for Active; 'I' for Inactive)
REMARK    1  A    between atoms: C_1  and  O_2
REMARK    2  A    between atoms: O_2  and  C_3
REMARK    3  A    between atoms: C_10  and  C_11
REMARK    4  A    between atoms: N_13  and  C_14
REMARK    5  A    between atoms: N_17  and  C_18
REMARK    6  A    between atoms: C_18  and  C_19
REMARK                            x       y       z     vdW  Elec       q    Type
REMARK                         _______ _______ _______ _____ _____    ______ ____
ROOT
ATOM      1  C   UNL     1       3.493   3.477  16.635  0.00  0.00    +0.000 C 
ATOM      2  C   UNL     1       2.481   3.874  17.689  0.00  0.00    +0.000 C 
ATOM      3  N   UNL     1       2.788   3.012  18.799  0.00  0.00    +0.000 N 
ATOM      4  C   UNL     1       3.478   1.920  18.326  0.00  0.00    +0.000 C 
ATOM      5  O   UNL     1       3.727   0.870  18.903  0.00  0.00    +0.000 OA
ATOM      6  O   UNL     1       3.920   2.162  17.048  0.00  0.00    +0.000 OA
ENDROOT
BRANCH   1  14
ATOM      7  C   UNL     1       6.192   3.800  13.067  0.00  0.00    +0.000 A 
ATOM      8  C   UNL     1       7.325   4.596  13.179  0.00  0.00    +0.000 A 
ATOM      9  C   UNL     1       7.521   5.354  14.329  0.00  0.00    +0.000 A 
ATOM     10  C   UNL     1       6.632   5.328  15.391  0.00  0.00    +0.000 A 
ATOM     11  N   UNL     1       6.930   6.101  16.442  0.00  0.00    +0.000 NA
ATOM     12  C   UNL     1       6.103   6.081  17.499  0.00  0.00    +0.000 A 
ATOM     13  C   UNL     1       4.979   5.287  17.577  0.00  0.00    +0.000 A 
ATOM     14  C   UNL     1       4.664   4.443  16.500  0.00  0.00    +0.000 A 
ATOM     15  C   UNL     1       5.484   4.499  15.328  0.00  0.00    +0.000 A 
ATOM     16  C   UNL     1       5.264   3.782  14.118  0.00  0.00    +0.000 A 
BRANCH   7  18
ATOM     17  C   UNL     1       4.551   3.111  11.520  0.00  0.00    +0.000 C 
ATOM     18  O   UNL     1       5.902   3.024  11.978  0.00  0.00    +0.000 OA
ENDBRANCH   7  18
ENDBRANCH   1  14
BRANCH   3  19
ATOM     19  C   UNL     1       2.100   3.175  20.096  0.00  0.00    +0.000 C 
ATOM     20  C   UNL     1       0.746   3.875  19.929  0.00  0.00    +0.000 C 
ATOM     21  C   UNL     1       0.912   5.359  19.615  0.00  0.00    +0.000 C 
ATOM     22  N   UNL     1       1.674   6.070  20.652  0.00  0.00    +0.000 NA
ATOM     23  C   UNL     1       2.967   5.416  20.944  0.00  0.00    +0.000 C 
ATOM     24  C   UNL     1       2.869   3.909  21.198  0.00  0.00    +0.000 C 
BRANCH  22  25
ATOM     25  C   UNL     1       1.939   7.463  20.221  0.00  0.00    +0.000 C 
BRANCH  25  26
ATOM     26  C   UNL     1       1.098   8.512  20.921  0.00  0.00    +0.000 A 
ATOM     27  C   UNL     1       1.061   8.558  22.321  0.00  0.00    +0.000 A 
ATOM     28  C   UNL     1       0.243   9.475  22.982  0.00  0.00    +0.000 A 
ATOM     29  C   UNL     1      -0.504  10.413  22.261  0.00  0.00    +0.000 A 
ATOM     30  C   UNL     1      -1.293  11.367  22.922  0.00  0.00    +0.000 A 
ATOM     31  C   UNL     1      -1.964  12.355  22.203  0.00  0.00    +0.000 A 
ATOM     32  C   UNL     1      -1.872  12.385  20.814  0.00  0.00    +0.000 A 
ATOM     33  C   UNL     1      -1.131  11.411  20.140  0.00  0.00    +0.000 A 
ATOM     34  C   UNL     1      -0.437  10.417  20.848  0.00  0.00    +0.000 A 
ATOM     35  C   UNL     1       0.337   9.440  20.194  0.00  0.00    +0.000 A 
ENDBRANCH  25  26
ENDBRANCH  22  25
ENDBRANCH   3  19
TORSDOF 5
ENDMDL
MODEL 8
REMARK VINA RESULT:      -8.2      5.511     10.430
REMARK  Name = 
REMARK  6 active torsions:
REMARK  status: ('A' for Active; 'I' for Inactive)
REMARK    1  A    between atoms: C_1  and  O_2
REMARK    2  A    between atoms: O_2  and  C_3
REMARK    3  A    between atoms: C_10  and  C_11
REMARK    4  A    between atoms: N_13  and  C_14
REMARK    5  A    between atoms: N_17  and  C_18
REMARK    6  A    between atoms: C_18  and  C_19
REMARK                            x       y       z     vdW  Elec       q    Type
REMARK                         _______ _______ _______ _____ _____    ______ ____
ROOT
ATOM      1  C   UNL     1       3.895   3.017  16.509  0.00  0.00    +0.000 C 
ATOM      2  C   UNL     1       2.807   3.539  17.424  0.00  0.00    +0.000 C 
ATOM      3  N   UNL     1       3.080   2.895  18.681  0.00  0.00    +0.000 N 
ATOM      4  C   UNL     1       3.838   1.772  18.440  0.00  0.00    +0.000 C 
ATOM      5  O   UNL     1       4.091   0.849  19.203  0.00  0.00    +0.000 OA
ATOM      6  O   UNL     1       4.347   1.814  17.165  0.00  0.00    +0.000 OA
ENDROOT
BRANCH   1  14
ATOM      7  C   UNL     1       6.053   3.595  12.619  0.00  0.00    +0.000 A 
ATOM      8  C   UNL     1       7.190   4.394  12.619  0.00  0.00    +0.000 A 
ATOM      9  C   UNL     1       7.550   5.076  13.776  0.00  0.00    +0.000 A 
ATOM     10  C   UNL     1       6.823   4.974  14.951  0.00  0.00    +0.000 A 
ATOM     11  N   UNL     1       7.269   5.680  15.996  0.00  0.00    +0.000 NA
ATOM     12  C   UNL     1       6.603   5.584  17.158  0.00  0.00    +0.000 A 
ATOM     13  C   UNL     1       5.502   4.776  17.344  0.00  0.00    +0.000 A 
ATOM     14  C   UNL     1       5.035   4.001  16.271  0.00  0.00    +0.000 A 
ATOM     15  C   UNL     1       5.678   4.140  15.000  0.00  0.00    +0.000 A 
ATOM     16  C   UNL     1       5.285   3.501  13.789  0.00  0.00    +0.000 A 
BRANCH   7  18
ATOM     17  C   UNL     1       4.233   3.095  11.205  0.00  0.00    +0.000 C 
ATOM     18  O   UNL     1       5.609   2.889  11.534  0.00  0.00    +0.000 OA
ENDBRANCH   7  18
ENDBRANCH   1  14
BRANCH   3  19
ATOM     19  C   UNL     1       2.309   3.244  19.891  0.00  0.00    +0.000 C 
ATOM     20  C   UNL     1       0.990   3.941  19.536  0.00  0.00    +0.000 C 
ATOM     21  C   UNL     1       1.219   5.366  19.041  0.00  0.00    +0.000 C 
ATOM     22  N   UNL     1       1.929   6.195  20.026  0.00  0.00    +0.000 NA
ATOM     23  C   UNL     1       3.180   5.562  20.495  0.00  0.00    +0.000 C 
ATOM     24  C   UNL     1       3.021   4.104  20.939  0.00  0.00    +0.000 C 
BRANCH  22  25
ATOM     25  C   UNL     1       2.262   7.512  19.434  0.00  0.00    +0.000 C 
BRANCH  25  26
ATOM     26  C   UNL     1       1.366   8.650  19.881  0.00  0.00    +0.000 A 
ATOM     27  C   UNL     1       1.012   9.659  18.976  0.00  0.00    +0.000 A 
ATOM     28  C   UNL     1       0.241  10.747  19.387  0.00  0.00    +0.000 A 
ATOM     29  C   UNL     1      -0.252  10.817  20.695  0.00  0.00    +0.000 A 
ATOM     30  C   UNL     1      -1.065  11.886  21.101  0.00  0.00    +0.000 A 
ATOM     31  C   UNL     1      -1.627  11.906  22.378  0.00  0.00    +0.000 A 
ATOM     32  C   UNL     1      -1.361  10.869  23.268  0.00  0.00    +0.000 A 
ATOM     33  C   UNL     1      -0.513   9.824  22.894  0.00  0.00    +0.000 A 
ATOM     34  C   UNL     1       0.051   9.780  21.608  0.00  0.00    +0.000 A 
ATOM     35  C   UNL     1       0.888   8.726  21.198  0.00  0.00    +0.000 A 
ENDBRANCH  25  26
ENDBRANCH  22  25
ENDBRANCH   3  19
TORSDOF 5
ENDMDL
MODEL 9
REMARK VINA RESULT:      -8.1      3.298      5.827
REMARK  Name = 
REMARK  6 active torsions:
REMARK  status: ('A' for Active; 'I' for Inactive)
REMARK    1  A    between atoms: C_1  and  O_2
REMARK    2  A    between atoms: O_2  and  C_3
REMARK    3  A    between atoms: C_10  and  C_11
REMARK    4  A    between atoms: N_13  and  C_14
REMARK    5  A    between atoms: N_17  and  C_18
REMARK    6  A    between atoms: C_18  and  C_19
REMARK                            x       y       z     vdW  Elec       q    Type
REMARK                         _______ _______ _______ _____ _____    ______ ____
ROOT
ATOM      1  C   UNL     1      -2.666  13.036  20.591  0.00  0.00    +0.000 C 
ATOM      2  C   UNL     1      -1.158  13.159  20.523  0.00  0.00    +0.000 C 
ATOM      3  N   UNL     1      -0.692  12.135  21.420  0.00  0.00    +0.000 N 
ATOM      4  C   UNL     1      -1.709  11.823  22.292  0.00  0.00    +0.000 C 
ATOM      5  O   UNL     1      -1.649  11.171  23.326  0.00  0.00    +0.000 OA
ATOM      6  O   UNL     1      -2.897  12.332  21.829  0.00  0.00    +0.000 OA
ENDROOT
BRANCH   1  14
ATOM      7  C   UNL     1      -7.048  12.255  20.030  0.00  0.00    +0.000 A 
ATOM      8  C   UNL     1      -7.431  11.423  18.986  0.00  0.00    +0.000 A 
ATOM      9  C   UNL     1      -6.474  10.964  18.087  0.00  0.00    +0.000 A 
ATOM     10  C   UNL     1      -5.132  11.289  18.205  0.00  0.00    +0.000 A 
ATOM     11  N   UNL     1      -4.309  10.788  17.278  0.00  0.00    +0.000 NA
ATOM     12  C   UNL     1      -2.998  11.062  17.376  0.00  0.00    +0.000 A 
ATOM     13  C   UNL     1      -2.448  11.808  18.397  0.00  0.00    +0.000 A 
ATOM     14  C   UNL     1      -3.288  12.317  19.399  0.00  0.00    +0.000 A 
ATOM     15  C   UNL     1      -4.698  12.105  19.280  0.00  0.00    +0.000 A 
ATOM     16  C   UNL     1      -5.699  12.621  20.152  0.00  0.00    +0.000 A 
BRANCH   7  18
ATOM     17  C   UNL     1      -7.482  12.618  22.319  0.00  0.00    +0.000 C 
ATOM     18  O   UNL     1      -7.909  12.764  20.963  0.00  0.00    +0.000 OA
ENDBRANCH   7  18
ENDBRANCH   1  14
BRANCH   3  19
ATOM     19  C   UNL     1       0.749  11.835  21.539  0.00  0.00    +0.000 C 
ATOM     20  C   UNL     1       1.523  12.287  20.295  0.00  0.00    +0.000 C 
ATOM     21  C   UNL     1       1.242  11.385  19.096  0.00  0.00    +0.000 C 
ATOM     22  N   UNL     1       1.576   9.979  19.362  0.00  0.00    +0.000 NA
ATOM     23  C   UNL     1       0.939   9.475  20.597  0.00  0.00    +0.000 C 
ATOM     24  C   UNL     1       1.131  10.379  21.819  0.00  0.00    +0.000 C 
BRANCH  22  25
ATOM     25  C   UNL     1       1.137   9.131  18.228  0.00  0.00    +0.000 C 
BRANCH  25  26
ATOM     26  C   UNL     1       2.001   7.909  17.982  0.00  0.00    +0.000 A 
ATOM     27  C   UNL     1       3.354   8.063  17.654  0.00  0.00    +0.000 A 
ATOM     28  C   UNL     1       4.147   6.953  17.363  0.00  0.00    +0.000 A 
ATOM     29  C   UNL     1       3.624   5.659  17.459  0.00  0.00    +0.000 A 
ATOM     30  C   UNL     1       4.430   4.537  17.211  0.00  0.00    +0.000 A 
ATOM     31  C   UNL     1       3.929   3.248  17.396  0.00  0.00    +0.000 A 
ATOM     32  C   UNL     1       2.612   3.069  17.808  0.00  0.00    +0.000 A 
ATOM     33  C   UNL     1       1.784   4.176  18.010  0.00  0.00    +0.000 A 
ATOM     34  C   UNL     1       2.274   5.481  17.842  0.00  0.00    +0.000 A 
ATOM     35  C   UNL     1       1.468   6.613  18.064  0.00  0.00    +0.000 A 
ENDBRANCH  25  26
ENDBRANCH  22  25
ENDBRANCH   3  19
TORSDOF 5
ENDMDL
