MODEL 1
REMARK VINA RESULT:      -7.7      0.000      0.000
REMARK  Name = 
REMARK  8 active torsions:
REMARK  status: ('A' for Active; 'I' for Inactive)
REMARK    1  A    between atoms: C_1  and  C_2
REMARK    2  A    between atoms: N_4  and  C_5
REMARK    3  A    between atoms: C_5  and  C_6
REMARK    4  A    between atoms: C_6  and  O_7
REMARK    5  A    between atoms: O_7  and  C_8
REMARK    6  A    between atoms: N_16  and  C_17
REMARK    7  A    between atoms: C_20  and  O_21
REMARK    8  A    between atoms: O_21  and  C_22
REMARK                            x       y       z     vdW  Elec       q    Type
REMARK                         _______ _______ _______ _____ _____    ______ ____
ROOT
ATOM      1  C   UNL     1      -1.913  10.372  17.687  0.00  0.00    +0.000 C 
ATOM      2  C   UNL     1      -0.984  11.363  18.318  0.00  0.00    +0.000 A 
ATOM      3  N   UNL     1      -1.212  12.647  18.297  0.00  0.00    +0.000 NA
ATOM      4  N   UNL     1      -0.195  13.179  19.061  0.00  0.00    +0.000 N 
ATOM      5  C   UNL     1       0.649  12.166  19.523  0.00  0.00    +0.000 A 
ATOM      6  O   UNL     1       1.670  12.318  20.176  0.00  0.00    +0.000 OA
ATOM      7  N   UNL     1       0.105  10.998  19.024  0.00  0.00    +0.000 N 
ENDROOT
BRANCH   7   8
ATOM      8  C   UNL     1       0.743   9.760  19.118  0.00  0.00    +0.000 A 
ATOM      9  C   UNL     1       0.744   9.086  20.343  0.00  0.00    +0.000 A 
ATOM     10  C   UNL     1       1.458   7.899  20.490  0.00  0.00    +0.000 A 
ATOM     11  C   UNL     1       2.211   7.401  19.428  0.00  0.00    +0.000 A 
ATOM     12  C   UNL     1       2.257   8.104  18.220  0.00  0.00    +0.000 A 
ATOM     13  C   UNL     1       1.484   9.256  18.046  0.00  0.00    +0.000 A 
BRANCH  11  14
ATOM     14  O   UNL     1       2.934   6.263  19.700  0.00  0.00    +0.000 OA
BRANCH  14  15
ATOM     15  C   UNL     1       2.347   5.026  19.575  0.00  0.00    +0.000 A 
ATOM     16  C   UNL     1       2.006   4.391  20.770  0.00  0.00    +0.000 A 
ATOM     17  C   UNL     1       1.406   3.132  20.746  0.00  0.00    +0.000 A 
ATOM     18  C   UNL     1       1.149   2.506  19.526  0.00  0.00    +0.000 A 
ATOM     19  C   UNL     1       1.458   3.152  18.332  0.00  0.00    +0.000 A 
ATOM     20  C   UNL     1       2.030   4.424  18.354  0.00  0.00    +0.000 A 
ENDBRANCH  14  15
ENDBRANCH  11  14
ENDBRANCH   7   8
BRANCH   4  21
ATOM     21  C   UNL     1       0.008  14.593  19.279  0.00  0.00    +0.000 C 
BRANCH  21  22
ATOM     22  C   UNL     1      -0.838  15.134  20.420  0.00  0.00    +0.000 C 
BRANCH  22  23
ATOM     23  O   UNL     1      -0.388  14.617  21.676  0.00  0.00    +0.000 OA
BRANCH  23  24
ATOM     24  C   UNL     1      -1.352  13.902  22.346  0.00  0.00    +0.000 A 
ATOM     25  C   UNL     1      -2.438  14.634  22.827  0.00  0.00    +0.000 A 
ATOM     26  C   UNL     1      -3.454  13.996  23.544  0.00  0.00    +0.000 A 
ATOM     27  C   UNL     1      -3.399  12.620  23.766  0.00  0.00    +0.000 A 
ATOM     28  C   UNL     1      -2.333  11.881  23.260  0.00  0.00    +0.000 A 
ATOM     29  C   UNL     1      -1.317  12.518  22.549  0.00  0.00    +0.000 A 
ENDBRANCH  23  24
ENDBRANCH  22  23
ENDBRANCH  21  22
ENDBRANCH   4  21
TORSDOF 7
ENDMDL
MODEL 2
REMARK VINA RESULT:      -7.7      4.565     10.251
REMARK  Name = 
REMARK  8 active torsions:
REMARK  status: ('A' for Active; 'I' for Inactive)
REMARK    1  A    between atoms: C_1  and  C_2
REMARK    2  A    between atoms: N_4  and  C_5
REMARK    3  A    between atoms: C_5  and  C_6
REMARK    4  A    between atoms: C_6  and  O_7
REMARK    5  A    between atoms: O_7  and  C_8
REMARK    6  A    between atoms: N_16  and  C_17
REMARK    7  A    between atoms: C_20  and  O_21
REMARK    8  A    between atoms: O_21  and  C_22
REMARK                            x       y       z     vdW  Elec       q    Type
REMARK                         _______ _______ _______ _____ _____    ______ ____
ROOT
ATOM      1  C   UNL     1       2.328   4.290  19.178  0.00  0.00    +0.000 C 
ATOM      2  C   UNL     1       3.619   4.943  18.793  0.00  0.00    +0.000 A 
ATOM      3  N   UNL     1       4.736   4.278  18.689  0.00  0.00    +0.000 NA
ATOM      4  N   UNL     1       5.638   5.212  18.223  0.00  0.00    +0.000 N 
ATOM      5  C   UNL     1       5.019   6.454  18.069  0.00  0.00    +0.000 A 
ATOM      6  O   UNL     1       5.561   7.494  17.728  0.00  0.00    +0.000 OA
ATOM      7  N   UNL     1       3.706   6.243  18.445  0.00  0.00    +0.000 N 
ENDROOT
BRANCH   7   8
ATOM      8  C   UNL     1       2.781   7.278  18.595  0.00  0.00    +0.000 A 
ATOM      9  C   UNL     1       2.609   8.193  17.552  0.00  0.00    +0.000 A 
ATOM     10  C   UNL     1       1.767   9.291  17.714  0.00  0.00    +0.000 A 
ATOM     11  C   UNL     1       1.127   9.507  18.933  0.00  0.00    +0.000 A 
ATOM     12  C   UNL     1       1.343   8.624  19.997  0.00  0.00    +0.000 A 
ATOM     13  C   UNL     1       2.129   7.482  19.814  0.00  0.00    +0.000 A 
BRANCH  11  14
ATOM     14  O   UNL     1       0.377  10.656  19.011  0.00  0.00    +0.000 OA
BRANCH  14  15
ATOM     15  C   UNL     1      -0.917  10.669  18.547  0.00  0.00    +0.000 A 
ATOM     16  C   UNL     1      -1.763  11.614  19.130  0.00  0.00    +0.000 A 
ATOM     17  C   UNL     1      -3.095  11.704  18.726  0.00  0.00    +0.000 A 
ATOM     18  C   UNL     1      -3.583  10.844  17.741  0.00  0.00    +0.000 A 
ATOM     19  C   UNL     1      -2.733   9.923  17.135  0.00  0.00    +0.000 A 
ATOM     20  C   UNL     1      -1.393   9.854  17.516  0.00  0.00    +0.000 A 
ENDBRANCH  14  15
ENDBRANCH  11  14
ENDBRANCH   7   8
BRANCH   4  21
ATOM     21  C   UNL     1       7.043   4.951  18.007  0.00  0.00    +0.000 C 
BRANCH  21  22
ATOM     22  C   UNL     1       7.322   4.363  16.634  0.00  0.00    +0.000 C 
BRANCH  22  23
ATOM     23  O   UNL     1       7.227   5.368  15.620  0.00  0.00    +0.000 OA
BRANCH  23  24
ATOM     24  C   UNL     1       6.957   4.857  14.373  0.00  0.00    +0.000 A 
ATOM     25  C   UNL     1       5.812   4.067  14.266  0.00  0.00    +0.000 A 
ATOM     26  C   UNL     1       5.472   3.483  13.043  0.00  0.00    +0.000 A 
ATOM     27  C   UNL     1       6.264   3.701  11.917  0.00  0.00    +0.000 A 
ATOM     28  C   UNL     1       7.391   4.513  12.011  0.00  0.00    +0.000 A 
ATOM     29  C   UNL     1       7.733   5.093  13.233  0.00  0.00    +0.000 A 
ENDBRANCH  23  24
ENDBRANCH  22  23
ENDBRANCH  21  22
ENDBRANCH   4  21
TORSDOF 7
ENDMDL
MODEL 3
REMARK VINA RESULT:      -7.5      1.966      3.928
REMARK  Name = 
REMARK  8 active torsions:
REMARK  status: ('A' for Active; 'I' for Inactive)
REMARK    1  A    between atoms: C_1  and  C_2
REMARK    2  A    between atoms: N_4  and  C_5
REMARK    3  A    between atoms: C_5  and  C_6
REMARK    4  A    between atoms: C_6  and  O_7
REMARK    5  A    between atoms: O_7  and  C_8
REMARK    6  A    between atoms: N_16  and  C_17
REMARK    7  A    between atoms: C_20  and  O_21
REMARK    8  A    between atoms: O_21  and  C_22
REMARK                            x       y       z     vdW  Elec       q    Type
REMARK                         _______ _______ _______ _____ _____    ______ ____
ROOT
ATOM      1  C   UNL     1      -1.350  10.307  17.791  0.00  0.00    +0.000 C 
ATOM      2  C   UNL     1      -0.681  11.216  18.774  0.00  0.00    +0.000 A 
ATOM      3  N   UNL     1      -1.052  12.454  18.948  0.00  0.00    +0.000 NA
ATOM      4  N   UNL     1      -0.265  12.894  19.992  0.00  0.00    +0.000 N 
ATOM      5  C   UNL     1       0.593  11.879  20.419  0.00  0.00    +0.000 A 
ATOM      6  O   UNL     1       1.449  11.973  21.286  0.00  0.00    +0.000 OA
ATOM      7  N   UNL     1       0.294  10.800  19.608  0.00  0.00    +0.000 N 
ENDROOT
BRANCH   7   8
ATOM      8  C   UNL     1       1.046   9.624  19.597  0.00  0.00    +0.000 A 
ATOM      9  C   UNL     1       1.685   9.235  18.417  0.00  0.00    +0.000 A 
ATOM     10  C   UNL     1       2.357   8.017  18.351  0.00  0.00    +0.000 A 
ATOM     11  C   UNL     1       2.358   7.160  19.450  0.00  0.00    +0.000 A 
ATOM     12  C   UNL     1       1.670   7.521  20.614  0.00  0.00    +0.000 A 
ATOM     13  C   UNL     1       1.057   8.774  20.707  0.00  0.00    +0.000 A 
BRANCH  11  14
ATOM     14  O   UNL     1       2.989   5.953  19.257  0.00  0.00    +0.000 OA
BRANCH  14  15
ATOM     15  C   UNL     1       2.312   4.777  19.478  0.00  0.00    +0.000 A 
ATOM     16  C   UNL     1       1.749   4.178  18.351  0.00  0.00    +0.000 A 
ATOM     17  C   UNL     1       1.042   2.981  18.474  0.00  0.00    +0.000 A 
ATOM     18  C   UNL     1       0.896   2.385  19.727  0.00  0.00    +0.000 A 
ATOM     19  C   UNL     1       1.485   2.964  20.848  0.00  0.00    +0.000 A 
ATOM     20  C   UNL     1       2.219   4.144  20.721  0.00  0.00    +0.000 A 
ENDBRANCH  14  15
ENDBRANCH  11  14
ENDBRANCH   7   8
BRANCH   4  21
ATOM     21  C   UNL     1      -0.277  14.245  20.508  0.00  0.00    +0.000 C 
BRANCH  21  22
ATOM     22  C   UNL     1      -0.904  15.233  19.538  0.00  0.00    +0.000 C 
BRANCH  22  23
ATOM     23  O   UNL     1      -0.435  16.561  19.790  0.00  0.00    +0.000 OA
BRANCH  23  24
ATOM     24  C   UNL     1       0.048  17.188  18.666  0.00  0.00    +0.000 A 
ATOM     25  C   UNL     1      -0.865  17.975  17.962  0.00  0.00    +0.000 A 
ATOM     26  C   UNL     1      -0.472  18.631  16.791  0.00  0.00    +0.000 A 
ATOM     27  C   UNL     1       0.839  18.517  16.330  0.00  0.00    +0.000 A 
ATOM     28  C   UNL     1       1.761  17.759  17.047  0.00  0.00    +0.000 A 
ATOM     29  C   UNL     1       1.368  17.101  18.213  0.00  0.00    +0.000 A 
ENDBRANCH  23  24
ENDBRANCH  22  23
ENDBRANCH  21  22
ENDBRANCH   4  21
TORSDOF 7
ENDMDL
MODEL 4
REMARK VINA RESULT:      -7.5      1.933      3.911
REMARK  Name = 
REMARK  8 active torsions:
REMARK  status: ('A' for Active; 'I' for Inactive)
REMARK    1  A    between atoms: C_1  and  C_2
REMARK    2  A    between atoms: N_4  and  C_5
REMARK    3  A    between atoms: C_5  and  C_6
REMARK    4  A    between atoms: C_6  and  O_7
REMARK    5  A    between atoms: O_7  and  C_8
REMARK    6  A    between atoms: N_16  and  C_17
REMARK    7  A    between atoms: C_20  and  O_21
REMARK    8  A    between atoms: O_21  and  C_22
REMARK                            x       y       z     vdW  Elec       q    Type
REMARK                         _______ _______ _______ _____ _____    ______ ____
ROOT
ATOM      1  C   UNL     1      -1.887  10.148  18.059  0.00  0.00    +0.000 C 
ATOM      2  C   UNL     1      -1.217  11.214  18.869  0.00  0.00    +0.000 A 
ATOM      3  N   UNL     1      -1.652  12.443  18.906  0.00  0.00    +0.000 NA
ATOM      4  N   UNL     1      -0.833  13.059  19.828  0.00  0.00    +0.000 N 
ATOM      5  C   UNL     1       0.110  12.156  20.324  0.00  0.00    +0.000 A 
ATOM      6  O   UNL     1       1.009  12.410  21.112  0.00  0.00    +0.000 OA
ATOM      7  N   UNL     1      -0.171  10.965  19.682  0.00  0.00    +0.000 N 
ENDROOT
BRANCH   7   8
ATOM      8  C   UNL     1       0.650   9.839  19.774  0.00  0.00    +0.000 A 
ATOM      9  C   UNL     1       1.409   9.459  18.664  0.00  0.00    +0.000 A 
ATOM     10  C   UNL     1       2.158   8.284  18.695  0.00  0.00    +0.000 A 
ATOM     11  C   UNL     1       2.117   7.460  19.818  0.00  0.00    +0.000 A 
ATOM     12  C   UNL     1       1.313   7.810  20.908  0.00  0.00    +0.000 A 
ATOM     13  C   UNL     1       0.618   9.023  20.908  0.00  0.00    +0.000 A 
BRANCH  11  14
ATOM     14  O   UNL     1       2.835   6.291  19.718  0.00  0.00    +0.000 OA
BRANCH  14  15
ATOM     15  C   UNL     1       2.181   5.090  19.571  0.00  0.00    +0.000 A 
ATOM     16  C   UNL     1       2.104   4.596  18.268  0.00  0.00    +0.000 A 
ATOM     17  C   UNL     1       1.459   3.384  18.017  0.00  0.00    +0.000 A 
ATOM     18  C   UNL     1       0.889   2.668  19.070  0.00  0.00    +0.000 A 
ATOM     19  C   UNL     1       0.994   3.143  20.374  0.00  0.00    +0.000 A 
ATOM     20  C   UNL     1       1.666   4.339  20.630  0.00  0.00    +0.000 A 
ENDBRANCH  14  15
ENDBRANCH  11  14
ENDBRANCH   7   8
BRANCH   4  21
ATOM     21  C   UNL     1      -0.896  14.464  20.165  0.00  0.00    +0.000 C 
BRANCH  21  22
ATOM     22  C   UNL     1       0.068  15.303  19.342  0.00  0.00    +0.000 C 
BRANCH  22  23
ATOM     23  O   UNL     1       1.193  15.705  20.128  0.00  0.00    +0.000 OA
BRANCH  23  24
ATOM     24  C   UNL     1       2.396  15.534  19.484  0.00  0.00    +0.000 A 
ATOM     25  C   UNL     1       2.409  15.829  18.120  0.00  0.00    +0.000 A 
ATOM     26  C   UNL     1       3.580  15.659  17.375  0.00  0.00    +0.000 A 
ATOM     27  C   UNL     1       4.746  15.212  17.995  0.00  0.00    +0.000 A 
ATOM     28  C   UNL     1       4.746  14.946  19.361  0.00  0.00    +0.000 A 
ATOM     29  C   UNL     1       3.576  15.112  20.103  0.00  0.00    +0.000 A 
ENDBRANCH  23  24
ENDBRANCH  22  23
ENDBRANCH  21  22
ENDBRANCH   4  21
TORSDOF 7
ENDMDL
MODEL 5
REMARK VINA RESULT:      -7.3      1.743      3.811
REMARK  Name = 
REMARK  8 active torsions:
REMARK  status: ('A' for Active; 'I' for Inactive)
REMARK    1  A    between atoms: C_1  and  C_2
REMARK    2  A    between atoms: N_4  and  C_5
REMARK    3  A    between atoms: C_5  and  C_6
REMARK    4  A    between atoms: C_6  and  O_7
REMARK    5  A    between atoms: O_7  and  C_8
REMARK    6  A    between atoms: N_16  and  C_17
REMARK    7  A    between atoms: C_20  and  O_21
REMARK    8  A    between atoms: O_21  and  C_22
REMARK                            x       y       z     vdW  Elec       q    Type
REMARK                         _______ _______ _______ _____ _____    ______ ____
ROOT
ATOM      1  C   UNL     1      -1.852  10.681  17.834  0.00  0.00    +0.000 C 
ATOM      2  C   UNL     1      -1.170  11.503  18.883  0.00  0.00    +0.000 A 
ATOM      3  N   UNL     1      -1.509  12.737  19.135  0.00  0.00    +0.000 NA
ATOM      4  N   UNL     1      -0.723  13.085  20.214  0.00  0.00    +0.000 N 
ATOM      5  C   UNL     1       0.101  12.019  20.581  0.00  0.00    +0.000 A 
ATOM      6  O   UNL     1       0.948  12.031  21.461  0.00  0.00    +0.000 OA
ATOM      7  N   UNL     1      -0.218  11.006  19.698  0.00  0.00    +0.000 N 
ENDROOT
BRANCH   7   8
ATOM      8  C   UNL     1       0.502   9.812  19.617  0.00  0.00    +0.000 A 
ATOM      9  C   UNL     1       0.549   8.969  20.730  0.00  0.00    +0.000 A 
ATOM     10  C   UNL     1       1.341   7.823  20.710  0.00  0.00    +0.000 A 
ATOM     11  C   UNL     1       2.125   7.536  19.594  0.00  0.00    +0.000 A 
ATOM     12  C   UNL     1       2.123   8.409  18.501  0.00  0.00    +0.000 A 
ATOM     13  C   UNL     1       1.275   9.520  18.490  0.00  0.00    +0.000 A 
BRANCH  11  14
ATOM     14  O   UNL     1       2.922   6.421  19.704  0.00  0.00    +0.000 OA
BRANCH  14  15
ATOM     15  C   UNL     1       2.357   5.168  19.744  0.00  0.00    +0.000 A 
ATOM     16  C   UNL     1       1.947   4.647  18.516  0.00  0.00    +0.000 A 
ATOM     17  C   UNL     1       1.361   3.382  18.454  0.00  0.00    +0.000 A 
ATOM     18  C   UNL     1       1.182   2.640  19.622  0.00  0.00    +0.000 A 
ATOM     19  C   UNL     1       1.620   3.144  20.843  0.00  0.00    +0.000 A 
ATOM     20  C   UNL     1       2.235   4.396  20.902  0.00  0.00    +0.000 A 
ENDBRANCH  14  15
ENDBRANCH  11  14
ENDBRANCH   7   8
BRANCH   4  21
ATOM     21  C   UNL     1      -0.704  14.398  20.819  0.00  0.00    +0.000 C 
BRANCH  21  22
ATOM     22  C   UNL     1      -0.477  15.504  19.801  0.00  0.00    +0.000 C 
BRANCH  22  23
ATOM     23  O   UNL     1       0.729  16.219  20.086  0.00  0.00    +0.000 OA
BRANCH  23  24
ATOM     24  C   UNL     1       1.691  16.069  19.116  0.00  0.00    +0.000 A 
ATOM     25  C   UNL     1       2.423  14.881  19.154  0.00  0.00    +0.000 A 
ATOM     26  C   UNL     1       3.440  14.652  18.223  0.00  0.00    +0.000 A 
ATOM     27  C   UNL     1       3.718  15.600  17.240  0.00  0.00    +0.000 A 
ATOM     28  C   UNL     1       2.971  16.773  17.180  0.00  0.00    +0.000 A 
ATOM     29  C   UNL     1       1.958  17.003  18.110  0.00  0.00    +0.000 A 
ENDBRANCH  23  24
ENDBRANCH  22  23
ENDBRANCH  21  22
ENDBRANCH   4  21
TORSDOF 7
ENDMDL
MODEL 6
REMARK VINA RESULT:      -7.3      0.839      1.299
REMARK  Name = 
REMARK  8 active torsions:
REMARK  status: ('A' for Active; 'I' for Inactive)
REMARK    1  A    between atoms: C_1  and  C_2
REMARK    2  A    between atoms: N_4  and  C_5
REMARK    3  A    between atoms: C_5  and  C_6
REMARK    4  A    between atoms: C_6  and  O_7
REMARK    5  A    between atoms: O_7  and  C_8
REMARK    6  A    between atoms: N_16  and  C_17
REMARK    7  A    between atoms: C_20  and  O_21
REMARK    8  A    between atoms: O_21  and  C_22
REMARK                            x       y       z     vdW  Elec       q    Type
REMARK                         _______ _______ _______ _____ _____    ______ ____
ROOT
ATOM      1  C   UNL     1      -1.936  10.560  18.299  0.00  0.00    +0.000 C 
ATOM      2  C   UNL     1      -1.013  11.456  19.065  0.00  0.00    +0.000 A 
ATOM      3  N   UNL     1      -1.243  12.730  19.221  0.00  0.00    +0.000 NA
ATOM      4  N   UNL     1      -0.230  13.153  20.056  0.00  0.00    +0.000 N 
ATOM      5  C   UNL     1       0.614  12.088  20.377  0.00  0.00    +0.000 A 
ATOM      6  O   UNL     1       1.632  12.150  21.050  0.00  0.00    +0.000 OA
ATOM      7  N   UNL     1       0.074  10.999  19.719  0.00  0.00    +0.000 N 
ENDROOT
BRANCH   7   8
ATOM      8  C   UNL     1       0.715   9.760  19.643  0.00  0.00    +0.000 A 
ATOM      9  C   UNL     1       0.738   8.937  20.772  0.00  0.00    +0.000 A 
ATOM     10  C   UNL     1       1.454   7.743  20.755  0.00  0.00    +0.000 A 
ATOM     11  C   UNL     1       2.190   7.385  19.626  0.00  0.00    +0.000 A 
ATOM     12  C   UNL     1       2.215   8.237  18.516  0.00  0.00    +0.000 A 
ATOM     13  C   UNL     1       1.439   9.400  18.504  0.00  0.00    +0.000 A 
BRANCH  11  14
ATOM     14  O   UNL     1       2.918   6.225  19.738  0.00  0.00    +0.000 OA
BRANCH  14  15
ATOM     15  C   UNL     1       2.284   5.005  19.696  0.00  0.00    +0.000 A 
ATOM     16  C   UNL     1       2.018   4.502  18.422  0.00  0.00    +0.000 A 
ATOM     17  C   UNL     1       1.378   3.271  18.276  0.00  0.00    +0.000 A 
ATOM     18  C   UNL     1       1.000   2.544  19.406  0.00  0.00    +0.000 A 
ATOM     19  C   UNL     1       1.294   3.029  20.677  0.00  0.00    +0.000 A 
ATOM     20  C   UNL     1       1.962   4.245  20.824  0.00  0.00    +0.000 A 
ENDBRANCH  14  15
ENDBRANCH  11  14
ENDBRANCH   7   8
BRANCH   4  21
ATOM     21  C   UNL     1      -0.032  14.524  20.468  0.00  0.00    +0.000 C 
BRANCH  21  22
ATOM     22  C   UNL     1      -0.325  14.737  21.944  0.00  0.00    +0.000 C 
BRANCH  22  23
ATOM     23  O   UNL     1      -1.599  15.362  22.125  0.00  0.00    +0.000 OA
BRANCH  23  24
ATOM     24  C   UNL     1      -2.573  14.495  22.562  0.00  0.00    +0.000 A 
ATOM     25  C   UNL     1      -3.884  14.813  22.206  0.00  0.00    +0.000 A 
ATOM     26  C   UNL     1      -4.943  14.005  22.628  0.00  0.00    +0.000 A 
ATOM     27  C   UNL     1      -4.694  12.865  23.392  0.00  0.00    +0.000 A 
ATOM     28  C   UNL     1      -3.385  12.527  23.724  0.00  0.00    +0.000 A 
ATOM     29  C   UNL     1      -2.328  13.336  23.305  0.00  0.00    +0.000 A 
ENDBRANCH  23  24
ENDBRANCH  22  23
ENDBRANCH  21  22
ENDBRANCH   4  21
TORSDOF 7
ENDMDL
MODEL 7
REMARK VINA RESULT:      -7.3      1.795      2.631
REMARK  Name = 
REMARK  8 active torsions:
REMARK  status: ('A' for Active; 'I' for Inactive)
REMARK    1  A    between atoms: C_1  and  C_2
REMARK    2  A    between atoms: N_4  and  C_5
REMARK    3  A    between atoms: C_5  and  C_6
REMARK    4  A    between atoms: C_6  and  O_7
REMARK    5  A    between atoms: O_7  and  C_8
REMARK    6  A    between atoms: N_16  and  C_17
REMARK    7  A    between atoms: C_20  and  O_21
REMARK    8  A    between atoms: O_21  and  C_22
REMARK                            x       y       z     vdW  Elec       q    Type
REMARK                         _______ _______ _______ _____ _____    ______ ____
ROOT
ATOM      1  C   UNL     1       1.656  12.658  19.242  0.00  0.00    +0.000 C 
ATOM      2  C   UNL     1       0.273  12.104  19.090  0.00  0.00    +0.000 A 
ATOM      3  N   UNL     1      -0.784  12.867  19.032  0.00  0.00    +0.000 NA
ATOM      4  N   UNL     1      -1.818  11.987  18.791  0.00  0.00    +0.000 N 
ATOM      5  C   UNL     1      -1.338  10.677  18.725  0.00  0.00    +0.000 A 
ATOM      6  O   UNL     1      -2.011   9.667  18.580  0.00  0.00    +0.000 OA
ATOM      7  N   UNL     1       0.025  10.790  18.920  0.00  0.00    +0.000 N 
ENDROOT
BRANCH   7   8
ATOM      8  C   UNL     1       0.864   9.687  19.091  0.00  0.00    +0.000 A 
ATOM      9  C   UNL     1       1.476   9.117  17.972  0.00  0.00    +0.000 A 
ATOM     10  C   UNL     1       2.236   7.957  18.102  0.00  0.00    +0.000 A 
ATOM     11  C   UNL     1       2.353   7.334  19.343  0.00  0.00    +0.000 A 
ATOM     12  C   UNL     1       1.693   7.871  20.454  0.00  0.00    +0.000 A 
ATOM     13  C   UNL     1       0.990   9.074  20.341  0.00  0.00    +0.000 A 
BRANCH  11  14
ATOM     14  O   UNL     1       3.065   6.158  19.349  0.00  0.00    +0.000 OA
BRANCH  14  15
ATOM     15  C   UNL     1       2.406   4.952  19.307  0.00  0.00    +0.000 A 
ATOM     16  C   UNL     1       2.420   4.294  18.076  0.00  0.00    +0.000 A 
ATOM     17  C   UNL     1       1.778   3.063  17.933  0.00  0.00    +0.000 A 
ATOM     18  C   UNL     1       1.119   2.492  19.022  0.00  0.00    +0.000 A 
ATOM     19  C   UNL     1       1.132   3.131  20.259  0.00  0.00    +0.000 A 
ATOM     20  C   UNL     1       1.800   4.346  20.411  0.00  0.00    +0.000 A 
ENDBRANCH  14  15
ENDBRANCH  11  14
ENDBRANCH   7   8
BRANCH   4  21
ATOM     21  C   UNL     1      -3.210  12.367  18.706  0.00  0.00    +0.000 C 
BRANCH  21  22
ATOM     22  C   UNL     1      -3.644  13.249  19.865  0.00  0.00    +0.000 C 
BRANCH  22  23
ATOM     23  O   UNL     1      -4.791  12.701  20.520  0.00  0.00    +0.000 OA
BRANCH  23  24
ATOM     24  C   UNL     1      -4.666  12.657  21.889  0.00  0.00    +0.000 A 
ATOM     25  C   UNL     1      -5.837  12.861  22.620  0.00  0.00    +0.000 A 
ATOM     26  C   UNL     1      -5.803  12.861  24.017  0.00  0.00    +0.000 A 
ATOM     27  C   UNL     1      -4.602  12.638  24.689  0.00  0.00    +0.000 A 
ATOM     28  C   UNL     1      -3.437  12.403  23.964  0.00  0.00    +0.000 A 
ATOM     29  C   UNL     1      -3.470  12.407  22.570  0.00  0.00    +0.000 A 
ENDBRANCH  23  24
ENDBRANCH  22  23
ENDBRANCH  21  22
ENDBRANCH   4  21
TORSDOF 7
ENDMDL
MODEL 8
REMARK VINA RESULT:      -7.3      1.770      3.604
REMARK  Name = 
REMARK  8 active torsions:
REMARK  status: ('A' for Active; 'I' for Inactive)
REMARK    1  A    between atoms: C_1  and  C_2
REMARK    2  A    between atoms: N_4  and  C_5
REMARK    3  A    between atoms: C_5  and  C_6
REMARK    4  A    between atoms: C_6  and  O_7
REMARK    5  A    between atoms: O_7  and  C_8
REMARK    6  A    between atoms: N_16  and  C_17
REMARK    7  A    between atoms: C_20  and  O_21
REMARK    8  A    between atoms: O_21  and  C_22
REMARK                            x       y       z     vdW  Elec       q    Type
REMARK                         _______ _______ _______ _____ _____    ______ ____
ROOT
ATOM      1  C   UNL     1      -1.949  10.910  17.988  0.00  0.00    +0.000 C 
ATOM      2  C   UNL     1      -1.324  11.674  19.114  0.00  0.00    +0.000 A 
ATOM      3  N   UNL     1      -1.677  12.894  19.411  0.00  0.00    +0.000 NA
ATOM      4  N   UNL     1      -0.951  13.183  20.548  0.00  0.00    +0.000 N 
ATOM      5  C   UNL     1      -0.147  12.098  20.903  0.00  0.00    +0.000 A 
ATOM      6  O   UNL     1       0.652  12.062  21.827  0.00  0.00    +0.000 OA
ATOM      7  N   UNL     1      -0.417  11.133  19.951  0.00  0.00    +0.000 N 
ENDROOT
BRANCH   7   8
ATOM      8  C   UNL     1       0.306   9.943  19.847  0.00  0.00    +0.000 A 
ATOM      9  C   UNL     1       0.327   9.062  20.931  0.00  0.00    +0.000 A 
ATOM     10  C   UNL     1       1.121   7.918  20.891  0.00  0.00    +0.000 A 
ATOM     11  C   UNL     1       1.933   7.670  19.785  0.00  0.00    +0.000 A 
ATOM     12  C   UNL     1       1.957   8.581  18.723  0.00  0.00    +0.000 A 
ATOM     13  C   UNL     1       1.107   9.691  18.730  0.00  0.00    +0.000 A 
BRANCH  11  14
ATOM     14  O   UNL     1       2.729   6.553  19.876  0.00  0.00    +0.000 OA
BRANCH  14  15
ATOM     15  C   UNL     1       2.206   5.309  19.616  0.00  0.00    +0.000 A 
ATOM     16  C   UNL     1       1.796   4.577  20.731  0.00  0.00    +0.000 A 
ATOM     17  C   UNL     1       1.252   3.302  20.569  0.00  0.00    +0.000 A 
ATOM     18  C   UNL     1       1.120   2.759  19.291  0.00  0.00    +0.000 A 
ATOM     19  C   UNL     1       1.497   3.501  18.175  0.00  0.00    +0.000 A 
ATOM     20  C   UNL     1       2.013   4.788  18.334  0.00  0.00    +0.000 A 
ENDBRANCH  14  15
ENDBRANCH  11  14
ENDBRANCH   7   8
BRANCH   4  21
ATOM     21  C   UNL     1      -0.964  14.463  21.221  0.00  0.00    +0.000 C 
BRANCH  21  22
ATOM     22  C   UNL     1       0.241  15.319  20.867  0.00  0.00    +0.000 C 
BRANCH  22  23
ATOM     23  O   UNL     1       0.212  15.694  19.487  0.00  0.00    +0.000 OA
BRANCH  23  24
ATOM     24  C   UNL     1       1.424  15.537  18.856  0.00  0.00    +0.000 A 
ATOM     25  C   UNL     1       1.943  16.672  18.231  0.00  0.00    +0.000 A 
ATOM     26  C   UNL     1       3.157  16.602  17.542  0.00  0.00    +0.000 A 
ATOM     27  C   UNL     1       3.866  15.403  17.490  0.00  0.00    +0.000 A 
ATOM     28  C   UNL     1       3.367  14.276  18.138  0.00  0.00    +0.000 A 
ATOM     29  C   UNL     1       2.154  14.345  18.823  0.00  0.00    +0.000 A 
ENDBRANCH  23  24
ENDBRANCH  22  23
ENDBRANCH  21  22
ENDBRANCH   4  21
TORSDOF 7
ENDMDL
MODEL 9
REMARK VINA RESULT:      -7.2      2.035      8.808
REMARK  Name = 
REMARK  8 active torsions:
REMARK  status: ('A' for Active; 'I' for Inactive)
REMARK    1  A    between atoms: C_1  and  C_2
REMARK    2  A    between atoms: N_4  and  C_5
REMARK    3  A    between atoms: C_5  and  C_6
REMARK    4  A    between atoms: C_6  and  O_7
REMARK    5  A    between atoms: O_7  and  C_8
REMARK    6  A    between atoms: N_16  and  C_17
REMARK    7  A    between atoms: C_20  and  O_21
REMARK    8  A    between atoms: O_21  and  C_22
REMARK                            x       y       z     vdW  Elec       q    Type
REMARK                         _______ _______ _______ _____ _____    ______ ____
ROOT
ATOM      1  C   UNL     1       0.850   7.872  21.563  0.00  0.00    +0.000 C 
ATOM      2  C   UNL     1       1.519   8.071  20.238  0.00  0.00    +0.000 A 
ATOM      3  N   UNL     1       2.407   7.238  19.770  0.00  0.00    +0.000 NA
ATOM      4  N   UNL     1       2.687   7.723  18.509  0.00  0.00    +0.000 N 
ATOM      5  C   UNL     1       1.945   8.878  18.255  0.00  0.00    +0.000 A 
ATOM      6  O   UNL     1       2.010   9.572  17.252  0.00  0.00    +0.000 OA
ATOM      7  N   UNL     1       1.194   9.074  19.398  0.00  0.00    +0.000 N 
ENDROOT
BRANCH   7   8
ATOM      8  C   UNL     1       0.432  10.223  19.621  0.00  0.00    +0.000 A 
ATOM      9  C   UNL     1       0.951  11.238  20.430  0.00  0.00    +0.000 A 
ATOM     10  C   UNL     1       0.172  12.347  20.749  0.00  0.00    +0.000 A 
ATOM     11  C   UNL     1      -1.145  12.429  20.300  0.00  0.00    +0.000 A 
ATOM     12  C   UNL     1      -1.685  11.387  19.539  0.00  0.00    +0.000 A 
ATOM     13  C   UNL     1      -0.883  10.307  19.156  0.00  0.00    +0.000 A 
BRANCH  11  14
ATOM     14  O   UNL     1      -1.848  13.530  20.731  0.00  0.00    +0.000 OA
BRANCH  14  15
ATOM     15  C   UNL     1      -2.945  13.373  21.545  0.00  0.00    +0.000 A 
ATOM     16  C   UNL     1      -2.679  12.954  22.849  0.00  0.00    +0.000 A 
ATOM     17  C   UNL     1      -3.727  12.766  23.751  0.00  0.00    +0.000 A 
ATOM     18  C   UNL     1      -5.042  12.995  23.346  0.00  0.00    +0.000 A 
ATOM     19  C   UNL     1      -5.307  13.446  22.056  0.00  0.00    +0.000 A 
ATOM     20  C   UNL     1      -4.257  13.664  21.164  0.00  0.00    +0.000 A 
ENDBRANCH  14  15
ENDBRANCH  11  14
ENDBRANCH   7   8
BRANCH   4  21
ATOM     21  C   UNL     1       3.673   7.155  17.618  0.00  0.00    +0.000 C 
BRANCH  21  22
ATOM     22  C   UNL     1       4.247   5.848  18.141  0.00  0.00    +0.000 C 
BRANCH  22  23
ATOM     23  O   UNL     1       3.545   4.729  17.594  0.00  0.00    +0.000 OA
BRANCH  23  24
ATOM     24  C   UNL     1       2.783   4.059  18.522  0.00  0.00    +0.000 A 
ATOM     25  C   UNL     1       3.400   3.791  19.745  0.00  0.00    +0.000 A 
ATOM     26  C   UNL     1       2.712   3.091  20.741  0.00  0.00    +0.000 A 
ATOM     27  C   UNL     1       1.400   2.672  20.525  0.00  0.00    +0.000 A 
ATOM     28  C   UNL     1       0.771   2.964  19.318  0.00  0.00    +0.000 A 
ATOM     29  C   UNL     1       1.458   3.659  18.323  0.00  0.00    +0.000 A 
ENDBRANCH  23  24
ENDBRANCH  22  23
ENDBRANCH  21  22
ENDBRANCH   4  21
TORSDOF 7
ENDMDL
