MODEL 1
REMARK VINA RESULT:      -8.2      0.000      0.000
REMARK  Name = 
REMARK  7 active torsions:
REMARK  status: ('A' for Active; 'I' for Inactive)
REMARK    1  A    between atoms: C_1  and  C_2
REMARK    2  A    between atoms: C_5  and  C_6
REMARK    3  A    between atoms: N_15  and  C_16
REMARK    4  A    between atoms: C_18  and  C_19
REMARK    5  A    between atoms: C_19  and  C_20
REMARK    6  A    between atoms: C_24  and  C_25
REMARK    7  A    between atoms: C_25  and  N_26
REMARK                            x       y       z     vdW  Elec       q    Type
REMARK                         _______ _______ _______ _____ _____    ______ ____
ROOT
ATOM      1  C   UNL     1       1.651  11.965  18.362  0.00  0.00    +0.000 A 
ATOM      2  C   UNL     1       2.559  13.002  18.248  0.00  0.00    +0.000 A 
ATOM      3  C   UNL     1       1.954  14.274  18.502  0.00  0.00    +0.000 A 
ATOM      4  N   UNL     1       0.658  14.230  18.831  0.00  0.00    +0.000 NA
ATOM      5  S   UNL     1       0.129  12.663  18.731  0.00  0.00    +0.000 S 
ENDROOT
BRANCH   1  15
ATOM      6  C   UNL     1       0.436   9.472  22.631  0.00  0.00    +0.000 C 
ATOM      7  C   UNL     1       0.972   8.982  21.319  0.00  0.00    +0.000 A 
ATOM      8  C   UNL     1       1.244   7.683  21.103  0.00  0.00    +0.000 A 
ATOM      9  N   UNL     1       1.760   7.311  19.878  0.00  0.00    +0.000 N 
ATOM     10  C   UNL     1       2.208   6.111  19.378  0.00  0.00    +0.000 A 
ATOM     11  C   UNL     1       2.747   6.424  18.143  0.00  0.00    +0.000 A 
ATOM     12  N   UNL     1       2.584   7.760  17.839  0.00  0.00    +0.000 NA
ATOM     13  C   UNL     1       2.005   8.257  18.916  0.00  0.00    +0.000 A 
ATOM     14  C   UNL     1       1.666   9.651  19.185  0.00  0.00    +0.000 A 
ATOM     15  N   UNL     1       1.842  10.627  18.219  0.00  0.00    +0.000 N 
ATOM     16  N   UNL     1       1.168   9.957  20.363  0.00  0.00    +0.000 NA
ATOM     17  H   UNL     1       1.988  10.253  17.284  0.00  0.00    +0.000 HD
BRANCH  10  18
ATOM     18  C   UNL     1       2.162   4.792  20.044  0.00  0.00    +0.000 A 
ATOM     19  C   UNL     1       1.046   4.069  20.511  0.00  0.00    +0.000 A 
ATOM     20  N   UNL     1       1.395   2.934  21.122  0.00  0.00    +0.000 NA
ATOM     21  N   UNL     1       2.735   2.928  21.034  0.00  0.00    +0.000 N 
ATOM     22  C   UNL     1       3.242   4.003  20.359  0.00  0.00    +0.000 A 
ATOM     23  H   UNL     1       3.240   2.160  21.467  0.00  0.00    +0.000 HD
ENDBRANCH  10  18
ENDBRANCH   1  15
BRANCH   3  24
ATOM     24  C   UNL     1       2.662  15.596  18.470  0.00  0.00    +0.000 C 
BRANCH  24  25
ATOM     25  C   UNL     1       4.027  15.387  19.090  0.00  0.00    +0.000 A 
ATOM     26  C   UNL     1       4.183  15.327  20.474  0.00  0.00    +0.000 A 
ATOM     27  C   UNL     1       5.450  15.118  21.008  0.00  0.00    +0.000 A 
ATOM     28  C   UNL     1       6.529  14.944  20.152  0.00  0.00    +0.000 A 
ATOM     29  C   UNL     1       6.309  14.980  18.778  0.00  0.00    +0.000 A 
ATOM     30  N   UNL     1       5.077  15.204  18.242  0.00  0.00    +0.000 NA
BRANCH  29  31
ATOM     31  C   UNL     1       7.473  14.796  17.814  0.00  0.00    +0.000 C 
BRANCH  31  32
ATOM     32  N   UNL     1       8.558  13.885  18.274  0.00  0.00    +0.000 NA
ATOM     33  C   UNL     1       8.451  12.578  17.600  0.00  0.00    +0.000 C 
ATOM     34  C   UNL     1       9.617  11.645  17.942  0.00  0.00    +0.000 C 
ATOM     35  C   UNL     1      10.956  12.297  17.628  0.00  0.00    +0.000 C 
ATOM     36  C   UNL     1      11.051  13.635  18.346  0.00  0.00    +0.000 C 
ATOM     37  C   UNL     1       9.858  14.527  18.000  0.00  0.00    +0.000 C 
ENDBRANCH  31  32
ENDBRANCH  29  31
ENDBRANCH  24  25
ENDBRANCH   3  24
TORSDOF 6
ENDMDL
MODEL 2
REMARK VINA RESULT:      -8.1      3.416      6.842
REMARK  Name = 
REMARK  7 active torsions:
REMARK  status: ('A' for Active; 'I' for Inactive)
REMARK    1  A    between atoms: C_1  and  C_2
REMARK    2  A    between atoms: C_5  and  C_6
REMARK    3  A    between atoms: N_15  and  C_16
REMARK    4  A    between atoms: C_18  and  C_19
REMARK    5  A    between atoms: C_19  and  C_20
REMARK    6  A    between atoms: C_24  and  C_25
REMARK    7  A    between atoms: C_25  and  N_26
REMARK                            x       y       z     vdW  Elec       q    Type
REMARK                         _______ _______ _______ _____ _____    ______ ____
ROOT
ATOM      1  C   UNL     1       2.365   6.823  19.134  0.00  0.00    +0.000 A 
ATOM      2  C   UNL     1       3.367   7.373  18.354  0.00  0.00    +0.000 A 
ATOM      3  C   UNL     1       3.968   6.400  17.492  0.00  0.00    +0.000 A 
ATOM      4  N   UNL     1       3.444   5.172  17.570  0.00  0.00    +0.000 NA
ATOM      5  S   UNL     1       2.291   5.151  18.760  0.00  0.00    +0.000 S 
ENDROOT
BRANCH   1  15
ATOM      6  C   UNL     1       1.729  11.761  18.075  0.00  0.00    +0.000 C 
ATOM      7  C   UNL     1       1.208  10.917  19.200  0.00  0.00    +0.000 A 
ATOM      8  C   UNL     1       0.446  11.431  20.180  0.00  0.00    +0.000 A 
ATOM      9  N   UNL     1       0.025  10.596  21.197  0.00  0.00    +0.000 N 
ATOM     10  C   UNL     1      -0.678  10.818  22.357  0.00  0.00    +0.000 A 
ATOM     11  C   UNL     1      -0.641   9.608  23.027  0.00  0.00    +0.000 A 
ATOM     12  N   UNL     1       0.001   8.635  22.288  0.00  0.00    +0.000 NA
ATOM     13  C   UNL     1       0.401   9.277  21.207  0.00  0.00    +0.000 A 
ATOM     14  C   UNL     1       1.205   8.757  20.106  0.00  0.00    +0.000 A 
ATOM     15  N   UNL     1       1.555   7.419  20.048  0.00  0.00    +0.000 N 
ATOM     16  N   UNL     1       1.574   9.587  19.155  0.00  0.00    +0.000 NA
ATOM     17  H   UNL     1       1.018   6.830  20.681  0.00  0.00    +0.000 HD
BRANCH  10  18
ATOM     18  C   UNL     1      -1.293  12.087  22.801  0.00  0.00    +0.000 A 
ATOM     19  C   UNL     1      -0.714  13.367  22.909  0.00  0.00    +0.000 A 
ATOM     20  N   UNL     1      -1.562  14.267  23.412  0.00  0.00    +0.000 NA
ATOM     21  N   UNL     1      -2.688  13.563  23.614  0.00  0.00    +0.000 N 
ATOM     22  C   UNL     1      -2.590  12.255  23.225  0.00  0.00    +0.000 A 
ATOM     23  H   UNL     1      -3.483  14.038  24.030  0.00  0.00    +0.000 HD
ENDBRANCH  10  18
ENDBRANCH   1  15
BRANCH   3  24
ATOM     24  C   UNL     1       5.074   6.669  16.515  0.00  0.00    +0.000 C 
BRANCH  24  25
ATOM     25  C   UNL     1       6.303   7.033  17.320  0.00  0.00    +0.000 A 
ATOM     26  C   UNL     1       6.967   6.075  18.085  0.00  0.00    +0.000 A 
ATOM     27  C   UNL     1       8.102   6.441  18.799  0.00  0.00    +0.000 A 
ATOM     28  C   UNL     1       8.569   7.746  18.713  0.00  0.00    +0.000 A 
ATOM     29  C   UNL     1       7.886   8.652  17.907  0.00  0.00    +0.000 A 
ATOM     30  N   UNL     1       6.761   8.311  17.218  0.00  0.00    +0.000 NA
BRANCH  29  31
ATOM     31  C   UNL     1       8.371  10.090  17.795  0.00  0.00    +0.000 C 
BRANCH  31  32
ATOM     32  N   UNL     1       9.581  10.431  18.595  0.00  0.00    +0.000 NA
ATOM     33  C   UNL     1      10.511  11.251  17.797  0.00  0.00    +0.000 C 
ATOM     34  C   UNL     1      11.714  11.734  18.613  0.00  0.00    +0.000 C 
ATOM     35  C   UNL     1      11.269  12.492  19.856  0.00  0.00    +0.000 C 
ATOM     36  C   UNL     1      10.325  11.622  20.671  0.00  0.00    +0.000 C 
ATOM     37  C   UNL     1       9.151  11.138  19.817  0.00  0.00    +0.000 C 
ENDBRANCH  31  32
ENDBRANCH  29  31
ENDBRANCH  24  25
ENDBRANCH   3  24
TORSDOF 6
ENDMDL
MODEL 3
REMARK VINA RESULT:      -8.0      4.680      7.403
REMARK  Name = 
REMARK  7 active torsions:
REMARK  status: ('A' for Active; 'I' for Inactive)
REMARK    1  A    between atoms: C_1  and  C_2
REMARK    2  A    between atoms: C_5  and  C_6
REMARK    3  A    between atoms: N_15  and  C_16
REMARK    4  A    between atoms: C_18  and  C_19
REMARK    5  A    between atoms: C_19  and  C_20
REMARK    6  A    between atoms: C_24  and  C_25
REMARK    7  A    between atoms: C_25  and  N_26
REMARK                            x       y       z     vdW  Elec       q    Type
REMARK                         _______ _______ _______ _____ _____    ______ ____
ROOT
ATOM      1  C   UNL     1       0.313  12.887  19.072  0.00  0.00    +0.000 A 
ATOM      2  C   UNL     1      -0.815  13.168  19.822  0.00  0.00    +0.000 A 
ATOM      3  C   UNL     1      -0.982  14.575  20.029  0.00  0.00    +0.000 A 
ATOM      4  N   UNL     1      -0.059  15.348  19.447  0.00  0.00    +0.000 NA
ATOM      5  S   UNL     1       1.082  14.381  18.733  0.00  0.00    +0.000 S 
ENDROOT
BRANCH   1  15
ATOM      6  C   UNL     1       0.343   9.489  22.863  0.00  0.00    +0.000 C 
ATOM      7  C   UNL     1       0.789   9.380  21.434  0.00  0.00    +0.000 A 
ATOM      8  C   UNL     1       1.329   8.252  20.943  0.00  0.00    +0.000 A 
ATOM      9  N   UNL     1       1.739   8.236  19.624  0.00  0.00    +0.000 N 
ATOM     10  C   UNL     1       2.385   7.294  18.858  0.00  0.00    +0.000 A 
ATOM     11  C   UNL     1       2.653   7.938  17.663  0.00  0.00    +0.000 A 
ATOM     12  N   UNL     1       2.136   9.217  17.645  0.00  0.00    +0.000 NA
ATOM     13  C   UNL     1       1.614   9.360  18.849  0.00  0.00    +0.000 A 
ATOM     14  C   UNL     1       0.995  10.553  19.418  0.00  0.00    +0.000 A 
ATOM     15  N   UNL     1       0.795  11.688  18.651  0.00  0.00    +0.000 N 
ATOM     16  N   UNL     1       0.610  10.518  20.675  0.00  0.00    +0.000 NA
ATOM     17  H   UNL     1       0.892  11.525  17.651  0.00  0.00    +0.000 HD
BRANCH  10  18
ATOM     18  C   UNL     1       2.748   5.916  19.253  0.00  0.00    +0.000 A 
ATOM     19  C   UNL     1       1.994   4.968  19.972  0.00  0.00    +0.000 A 
ATOM     20  N   UNL     1       2.676   3.843  20.199  0.00  0.00    +0.000 NA
ATOM     21  N   UNL     1       3.863   4.070  19.614  0.00  0.00    +0.000 N 
ATOM     22  C   UNL     1       3.943   5.287  18.996  0.00  0.00    +0.000 A 
ATOM     23  H   UNL     1       4.577   3.352  19.684  0.00  0.00    +0.000 HD
ENDBRANCH  10  18
ENDBRANCH   1  15
BRANCH   3  24
ATOM     24  C   UNL     1      -2.106  15.214  20.789  0.00  0.00    +0.000 C 
BRANCH  24  25
ATOM     25  C   UNL     1      -3.190  14.169  20.946  0.00  0.00    +0.000 A 
ATOM     26  C   UNL     1      -3.813  13.964  22.177  0.00  0.00    +0.000 A 
ATOM     27  C   UNL     1      -4.815  13.006  22.281  0.00  0.00    +0.000 A 
ATOM     28  C   UNL     1      -5.196  12.294  21.151  0.00  0.00    +0.000 A 
ATOM     29  C   UNL     1      -4.564  12.564  19.942  0.00  0.00    +0.000 A 
ATOM     30  N   UNL     1      -3.565  13.486  19.831  0.00  0.00    +0.000 NA
BRANCH  29  31
ATOM     31  C   UNL     1      -4.957  11.797  18.687  0.00  0.00    +0.000 C 
BRANCH  31  32
ATOM     32  N   UNL     1      -3.859  11.541  17.713  0.00  0.00    +0.000 NA
ATOM     33  C   UNL     1      -3.056  10.380  18.139  0.00  0.00    +0.000 C 
ATOM     34  C   UNL     1      -1.990   9.995  17.107  0.00  0.00    +0.000 C 
ATOM     35  C   UNL     1      -2.611   9.740  15.741  0.00  0.00    +0.000 C 
ATOM     36  C   UNL     1      -3.420  10.956  15.316  0.00  0.00    +0.000 C 
ATOM     37  C   UNL     1      -4.455  11.324  16.381  0.00  0.00    +0.000 C 
ENDBRANCH  31  32
ENDBRANCH  29  31
ENDBRANCH  24  25
ENDBRANCH   3  24
TORSDOF 6
ENDMDL
MODEL 4
REMARK VINA RESULT:      -7.9      5.224      9.736
REMARK  Name = 
REMARK  7 active torsions:
REMARK  status: ('A' for Active; 'I' for Inactive)
REMARK    1  A    between atoms: C_1  and  C_2
REMARK    2  A    between atoms: C_5  and  C_6
REMARK    3  A    between atoms: N_15  and  C_16
REMARK    4  A    between atoms: C_18  and  C_19
REMARK    5  A    between atoms: C_19  and  C_20
REMARK    6  A    between atoms: C_24  and  C_25
REMARK    7  A    between atoms: C_25  and  N_26
REMARK                            x       y       z     vdW  Elec       q    Type
REMARK                         _______ _______ _______ _____ _____    ______ ____
ROOT
ATOM      1  C   UNL     1       1.223   8.933  20.324  0.00  0.00    +0.000 A 
ATOM      2  C   UNL     1       1.759   9.066  19.055  0.00  0.00    +0.000 A 
ATOM      3  C   UNL     1       2.362   7.850  18.600  0.00  0.00    +0.000 A 
ATOM      4  N   UNL     1       2.272   6.820  19.448  0.00  0.00    +0.000 NA
ATOM      5  S   UNL     1       1.553   7.335  20.849  0.00  0.00    +0.000 S 
ENDROOT
BRANCH   1  15
ATOM      6  C   UNL     1      -2.382  11.288  17.609  0.00  0.00    +0.000 C 
ATOM      7  C   UNL     1      -1.948  11.459  19.035  0.00  0.00    +0.000 A 
ATOM      8  C   UNL     1      -2.511  12.373  19.843  0.00  0.00    +0.000 A 
ATOM      9  N   UNL     1      -2.041  12.490  21.137  0.00  0.00    +0.000 N 
ATOM     10  C   UNL     1      -2.338  13.355  22.164  0.00  0.00    +0.000 A 
ATOM     11  C   UNL     1      -1.416  13.056  23.151  0.00  0.00    +0.000 A 
ATOM     12  N   UNL     1      -0.610  11.995  22.793  0.00  0.00    +0.000 NA
ATOM     13  C   UNL     1      -1.007  11.700  21.569  0.00  0.00    +0.000 A 
ATOM     14  C   UNL     1      -0.447  10.702  20.664  0.00  0.00    +0.000 A 
ATOM     15  N   UNL     1       0.557   9.844  21.082  0.00  0.00    +0.000 N 
ATOM     16  N   UNL     1      -0.933  10.620  19.445  0.00  0.00    +0.000 NA
ATOM     17  H   UNL     1       0.678   9.821  22.092  0.00  0.00    +0.000 HD
BRANCH  10  18
ATOM     18  C   UNL     1      -3.383  14.400  22.179  0.00  0.00    +0.000 A 
ATOM     19  C   UNL     1      -3.455  15.598  21.440  0.00  0.00    +0.000 A 
ATOM     20  N   UNL     1      -4.522  16.332  21.766  0.00  0.00    +0.000 NA
ATOM     21  N   UNL     1      -5.137  15.596  22.706  0.00  0.00    +0.000 N 
ATOM     22  C   UNL     1      -4.513  14.406  22.962  0.00  0.00    +0.000 A 
ATOM     23  H   UNL     1      -5.975  15.973  23.138  0.00  0.00    +0.000 HD
ENDBRANCH  10  18
ENDBRANCH   1  15
BRANCH   3  24
ATOM     24  C   UNL     1       3.022   7.653  17.268  0.00  0.00    +0.000 C 
BRANCH  24  25
ATOM     25  C   UNL     1       4.043   6.548  17.433  0.00  0.00    +0.000 A 
ATOM     26  C   UNL     1       5.394   6.842  17.613  0.00  0.00    +0.000 A 
ATOM     27  C   UNL     1       6.301   5.801  17.778  0.00  0.00    +0.000 A 
ATOM     28  C   UNL     1       5.840   4.492  17.789  0.00  0.00    +0.000 A 
ATOM     29  C   UNL     1       4.476   4.258  17.639  0.00  0.00    +0.000 A 
ATOM     30  N   UNL     1       3.579   5.268  17.456  0.00  0.00    +0.000 NA
BRANCH  29  31
ATOM     31  C   UNL     1       3.941   2.833  17.643  0.00  0.00    +0.000 C 
BRANCH  31  32
ATOM     32  N   UNL     1       3.022   2.489  18.763  0.00  0.00    +0.000 NA
ATOM     33  C   UNL     1       3.551   3.005  20.039  0.00  0.00    +0.000 C 
ATOM     34  C   UNL     1       2.582   2.788  21.206  0.00  0.00    +0.000 C 
ATOM     35  C   UNL     1       1.218   3.395  20.911  0.00  0.00    +0.000 C 
ATOM     36  C   UNL     1       0.686   2.836  19.600  0.00  0.00    +0.000 C 
ATOM     37  C   UNL     1       1.690   3.048  18.466  0.00  0.00    +0.000 C 
ENDBRANCH  31  32
ENDBRANCH  29  31
ENDBRANCH  24  25
ENDBRANCH   3  24
TORSDOF 6
ENDMDL
MODEL 5
REMARK VINA RESULT:      -7.9      4.284      9.261
REMARK  Name = 
REMARK  7 active torsions:
REMARK  status: ('A' for Active; 'I' for Inactive)
REMARK    1  A    between atoms: C_1  and  C_2
REMARK    2  A    between atoms: C_5  and  C_6
REMARK    3  A    between atoms: N_15  and  C_16
REMARK    4  A    between atoms: C_18  and  C_19
REMARK    5  A    between atoms: C_19  and  C_20
REMARK    6  A    between atoms: C_24  and  C_25
REMARK    7  A    between atoms: C_25  and  N_26
REMARK                            x       y       z     vdW  Elec       q    Type
REMARK                         _______ _______ _______ _____ _____    ______ ____
ROOT
ATOM      1  C   UNL     1       1.395   8.560  20.438  0.00  0.00    +0.000 A 
ATOM      2  C   UNL     1       1.267   7.397  21.175  0.00  0.00    +0.000 A 
ATOM      3  C   UNL     1       1.680   6.244  20.432  0.00  0.00    +0.000 A 
ATOM      4  N   UNL     1       2.136   6.497  19.201  0.00  0.00    +0.000 NA
ATOM      5  S   UNL     1       1.972   8.115  18.886  0.00  0.00    +0.000 S 
ENDROOT
BRANCH   1  15
ATOM      6  C   UNL     1      -2.581  10.400  17.847  0.00  0.00    +0.000 C 
ATOM      7  C   UNL     1      -1.688  11.037  18.869  0.00  0.00    +0.000 A 
ATOM      8  C   UNL     1      -1.838  12.319  19.245  0.00  0.00    +0.000 A 
ATOM      9  N   UNL     1      -0.961  12.843  20.173  0.00  0.00    +0.000 N 
ATOM     10  C   UNL     1      -0.797  14.105  20.695  0.00  0.00    +0.000 A 
ATOM     11  C   UNL     1       0.353  14.021  21.460  0.00  0.00    +0.000 A 
ATOM     12  N   UNL     1       0.861  12.738  21.480  0.00  0.00    +0.000 NA
ATOM     13  C   UNL     1       0.052  12.070  20.678  0.00  0.00    +0.000 A 
ATOM     14  C   UNL     1       0.159  10.675  20.263  0.00  0.00    +0.000 A 
ATOM     15  N   UNL     1       1.131   9.844  20.795  0.00  0.00    +0.000 N 
ATOM     16  N   UNL     1      -0.705  10.217  19.384  0.00  0.00    +0.000 NA
ATOM     17  H   UNL     1       1.571  10.218  21.633  0.00  0.00    +0.000 HD
BRANCH  10  18
ATOM     18  C   UNL     1      -1.642  15.292  20.449  0.00  0.00    +0.000 A 
ATOM     19  C   UNL     1      -2.926  15.590  20.948  0.00  0.00    +0.000 A 
ATOM     20  N   UNL     1      -3.410  16.732  20.454  0.00  0.00    +0.000 NA
ATOM     21  N   UNL     1      -2.429  17.168  19.647  0.00  0.00    +0.000 N 
ATOM     22  C   UNL     1      -1.328  16.358  19.641  0.00  0.00    +0.000 A 
ATOM     23  H   UNL     1      -2.584  18.025  19.124  0.00  0.00    +0.000 HD
ENDBRANCH  10  18
ENDBRANCH   1  15
BRANCH   3  24
ATOM     24  C   UNL     1       1.675   4.834  20.942  0.00  0.00    +0.000 C 
BRANCH  24  25
ATOM     25  C   UNL     1       2.126   3.945  19.803  0.00  0.00    +0.000 A 
ATOM     26  C   UNL     1       1.343   2.871  19.380  0.00  0.00    +0.000 A 
ATOM     27  C   UNL     1       1.782   2.086  18.320  0.00  0.00    +0.000 A 
ATOM     28  C   UNL     1       2.975   2.404  17.685  0.00  0.00    +0.000 A 
ATOM     29  C   UNL     1       3.699   3.506  18.128  0.00  0.00    +0.000 A 
ATOM     30  N   UNL     1       3.291   4.272  19.179  0.00  0.00    +0.000 NA
BRANCH  29  31
ATOM     31  C   UNL     1       5.013   3.877  17.455  0.00  0.00    +0.000 C 
BRANCH  31  32
ATOM     32  N   UNL     1       5.654   5.134  17.931  0.00  0.00    +0.000 NA
ATOM     33  C   UNL     1       7.070   4.895  18.265  0.00  0.00    +0.000 C 
ATOM     34  C   UNL     1       7.809   6.183  18.641  0.00  0.00    +0.000 C 
ATOM     35  C   UNL     1       7.691   7.228  17.541  0.00  0.00    +0.000 C 
ATOM     36  C   UNL     1       6.224   7.470  17.225  0.00  0.00    +0.000 C 
ATOM     37  C   UNL     1       5.514   6.160  16.880  0.00  0.00    +0.000 C 
ENDBRANCH  31  32
ENDBRANCH  29  31
ENDBRANCH  24  25
ENDBRANCH   3  24
TORSDOF 6
ENDMDL
MODEL 6
REMARK VINA RESULT:      -7.8      5.177      9.735
REMARK  Name = 
REMARK  7 active torsions:
REMARK  status: ('A' for Active; 'I' for Inactive)
REMARK    1  A    between atoms: C_1  and  C_2
REMARK    2  A    between atoms: C_5  and  C_6
REMARK    3  A    between atoms: N_15  and  C_16
REMARK    4  A    between atoms: C_18  and  C_19
REMARK    5  A    between atoms: C_19  and  C_20
REMARK    6  A    between atoms: C_24  and  C_25
REMARK    7  A    between atoms: C_25  and  N_26
REMARK                            x       y       z     vdW  Elec       q    Type
REMARK                         _______ _______ _______ _____ _____    ______ ____
ROOT
ATOM      1  C   UNL     1       1.265   9.050  19.818  0.00  0.00    +0.000 A 
ATOM      2  C   UNL     1       1.887   9.067  18.582  0.00  0.00    +0.000 A 
ATOM      3  C   UNL     1       2.568   7.837  18.309  0.00  0.00    +0.000 A 
ATOM      4  N   UNL     1       2.455   6.903  19.259  0.00  0.00    +0.000 NA
ATOM      5  S   UNL     1       1.616   7.535  20.541  0.00  0.00    +0.000 S 
ENDROOT
BRANCH   1  15
ATOM      6  C   UNL     1      -2.732  10.317  16.933  0.00  0.00    +0.000 C 
ATOM      7  C   UNL     1      -2.271  10.834  18.263  0.00  0.00    +0.000 A 
ATOM      8  C   UNL     1      -2.921  11.817  18.908  0.00  0.00    +0.000 A 
ATOM      9  N   UNL     1      -2.421  12.258  20.118  0.00  0.00    +0.000 N 
ATOM     10  C   UNL     1      -2.793  13.272  20.969  0.00  0.00    +0.000 A 
ATOM     11  C   UNL     1      -1.800  13.303  21.932  0.00  0.00    +0.000 A 
ATOM     12  N   UNL     1      -0.871  12.300  21.741  0.00  0.00    +0.000 NA
ATOM     13  C   UNL     1      -1.272  11.711  20.630  0.00  0.00    +0.000 A 
ATOM     14  C   UNL     1      -0.617  10.626  19.908  0.00  0.00    +0.000 A 
ATOM     15  N   UNL     1       0.511  10.007  20.420  0.00  0.00    +0.000 N 
ATOM     16  N   UNL     1      -1.135  10.232  18.764  0.00  0.00    +0.000 NA
ATOM     17  H   UNL     1       0.674  10.208  21.404  0.00  0.00    +0.000 HD
BRANCH  10  18
ATOM     18  C   UNL     1      -3.970  14.158  20.844  0.00  0.00    +0.000 A 
ATOM     19  C   UNL     1      -5.324  13.818  20.654  0.00  0.00    +0.000 A 
ATOM     20  N   UNL     1      -6.103  14.893  20.522  0.00  0.00    +0.000 NA
ATOM     21  N   UNL     1      -5.247  15.921  20.639  0.00  0.00    +0.000 N 
ATOM     22  C   UNL     1      -3.957  15.532  20.874  0.00  0.00    +0.000 A 
ATOM     23  H   UNL     1      -5.612  16.863  20.538  0.00  0.00    +0.000 HD
ENDBRANCH  10  18
ENDBRANCH   1  15
BRANCH   3  24
ATOM     24  C   UNL     1       3.331   7.526  17.056  0.00  0.00    +0.000 C 
BRANCH  24  25
ATOM     25  C   UNL     1       4.292   6.404  17.384  0.00  0.00    +0.000 A 
ATOM     26  C   UNL     1       5.622   6.673  17.707  0.00  0.00    +0.000 A 
ATOM     27  C   UNL     1       6.473   5.619  18.018  0.00  0.00    +0.000 A 
ATOM     28  C   UNL     1       5.974   4.322  18.031  0.00  0.00    +0.000 A 
ATOM     29  C   UNL     1       4.631   4.116  17.734  0.00  0.00    +0.000 A 
ATOM     30  N   UNL     1       3.791   5.139  17.407  0.00  0.00    +0.000 NA
BRANCH  29  31
ATOM     31  C   UNL     1       4.056   2.707  17.736  0.00  0.00    +0.000 C 
BRANCH  31  32
ATOM     32  N   UNL     1       3.090   2.401  18.827  0.00  0.00    +0.000 NA
ATOM     33  C   UNL     1       3.507   3.058  20.081  0.00  0.00    +0.000 C 
ATOM     34  C   UNL     1       2.481   2.879  21.205  0.00  0.00    +0.000 C 
ATOM     35  C   UNL     1       1.105   3.371  20.778  0.00  0.00    +0.000 C 
ATOM     36  C   UNL     1       0.689   2.669  19.494  0.00  0.00    +0.000 C 
ATOM     37  C   UNL     1       1.749   2.848  18.406  0.00  0.00    +0.000 C 
ENDBRANCH  31  32
ENDBRANCH  29  31
ENDBRANCH  24  25
ENDBRANCH   3  24
TORSDOF 6
ENDMDL
MODEL 7
REMARK VINA RESULT:      -7.8      5.027      8.843
REMARK  Name = 
REMARK  7 active torsions:
REMARK  status: ('A' for Active; 'I' for Inactive)
REMARK    1  A    between atoms: C_1  and  C_2
REMARK    2  A    between atoms: C_5  and  C_6
REMARK    3  A    between atoms: N_15  and  C_16
REMARK    4  A    between atoms: C_18  and  C_19
REMARK    5  A    between atoms: C_19  and  C_20
REMARK    6  A    between atoms: C_24  and  C_25
REMARK    7  A    between atoms: C_25  and  N_26
REMARK                            x       y       z     vdW  Elec       q    Type
REMARK                         _______ _______ _______ _____ _____    ______ ____
ROOT
ATOM      1  C   UNL     1      -2.032  12.296  22.723  0.00  0.00    +0.000 A 
ATOM      2  C   UNL     1      -3.384  12.454  22.477  0.00  0.00    +0.000 A 
ATOM      3  C   UNL     1      -3.849  13.753  22.863  0.00  0.00    +0.000 A 
ATOM      4  N   UNL     1      -2.909  14.571  23.347  0.00  0.00    +0.000 NA
ATOM      5  S   UNL     1      -1.474  13.748  23.444  0.00  0.00    +0.000 S 
ENDROOT
BRANCH   1  15
ATOM      6  C   UNL     1       0.206  12.695  18.169  0.00  0.00    +0.000 C 
ATOM      7  C   UNL     1       0.275  11.620  19.212  0.00  0.00    +0.000 A 
ATOM      8  C   UNL     1       1.001  10.503  19.035  0.00  0.00    +0.000 A 
ATOM      9  N   UNL     1       0.995   9.546  20.031  0.00  0.00    +0.000 N 
ATOM     10  C   UNL     1       1.550   8.291  20.124  0.00  0.00    +0.000 A 
ATOM     11  C   UNL     1       1.052   7.774  21.307  0.00  0.00    +0.000 A 
ATOM     12  N   UNL     1       0.266   8.692  21.975  0.00  0.00    +0.000 NA
ATOM     13  C   UNL     1       0.243   9.733  21.163  0.00  0.00    +0.000 A 
ATOM     14  C   UNL     1      -0.505  10.975  21.324  0.00  0.00    +0.000 A 
ATOM     15  N   UNL     1      -1.227  11.228  22.478  0.00  0.00    +0.000 N 
ATOM     16  N   UNL     1      -0.461  11.862  20.354  0.00  0.00    +0.000 NA
ATOM     17  H   UNL     1      -0.992  10.608  23.249  0.00  0.00    +0.000 HD
BRANCH  10  18
ATOM     18  C   UNL     1       2.443   7.633  19.147  0.00  0.00    +0.000 A 
ATOM     19  C   UNL     1       2.907   8.108  17.904  0.00  0.00    +0.000 A 
ATOM     20  N   UNL     1       3.651   7.206  17.261  0.00  0.00    +0.000 NA
ATOM     21  N   UNL     1       3.671   6.157  18.100  0.00  0.00    +0.000 N 
ATOM     22  C   UNL     1       2.992   6.379  19.266  0.00  0.00    +0.000 A 
ATOM     23  H   UNL     1       4.161   5.318  17.807  0.00  0.00    +0.000 HD
ENDBRANCH  10  18
ENDBRANCH   1  15
BRANCH   3  24
ATOM     24  C   UNL     1      -5.257  14.249  22.721  0.00  0.00    +0.000 C 
BRANCH  24  25
ATOM     25  C   UNL     1      -5.947  13.355  21.713  0.00  0.00    +0.000 A 
ATOM     26  C   UNL     1      -7.054  12.589  22.075  0.00  0.00    +0.000 A 
ATOM     27  C   UNL     1      -7.671  11.791  21.118  0.00  0.00    +0.000 A 
ATOM     28  C   UNL     1      -7.192  11.796  19.815  0.00  0.00    +0.000 A 
ATOM     29  C   UNL     1      -6.105  12.606  19.502  0.00  0.00    +0.000 A 
ATOM     30  N   UNL     1      -5.477  13.377  20.435  0.00  0.00    +0.000 NA
BRANCH  29  31
ATOM     31  C   UNL     1      -5.554  12.630  18.084  0.00  0.00    +0.000 C 
BRANCH  31  32
ATOM     32  N   UNL     1      -4.812  11.412  17.656  0.00  0.00    +0.000 NA
ATOM     33  C   UNL     1      -4.509  11.474  16.214  0.00  0.00    +0.000 C 
ATOM     34  C   UNL     1      -3.636  10.304  15.747  0.00  0.00    +0.000 C 
ATOM     35  C   UNL     1      -2.351  10.217  16.558  0.00  0.00    +0.000 C 
ATOM     36  C   UNL     1      -2.688  10.137  18.039  0.00  0.00    +0.000 C 
ATOM     37  C   UNL     1      -3.579  11.306  18.461  0.00  0.00    +0.000 C 
ENDBRANCH  31  32
ENDBRANCH  29  31
ENDBRANCH  24  25
ENDBRANCH   3  24
TORSDOF 6
ENDMDL
MODEL 8
REMARK VINA RESULT:      -7.7      5.082      9.426
REMARK  Name = 
REMARK  7 active torsions:
REMARK  status: ('A' for Active; 'I' for Inactive)
REMARK    1  A    between atoms: C_1  and  C_2
REMARK    2  A    between atoms: C_5  and  C_6
REMARK    3  A    between atoms: N_15  and  C_16
REMARK    4  A    between atoms: C_18  and  C_19
REMARK    5  A    between atoms: C_19  and  C_20
REMARK    6  A    between atoms: C_24  and  C_25
REMARK    7  A    between atoms: C_25  and  N_26
REMARK                            x       y       z     vdW  Elec       q    Type
REMARK                         _______ _______ _______ _____ _____    ______ ____
ROOT
ATOM      1  C   UNL     1       1.273   9.352  18.873  0.00  0.00    +0.000 A 
ATOM      2  C   UNL     1       2.033   9.166  17.732  0.00  0.00    +0.000 A 
ATOM      3  C   UNL     1       2.835   7.982  17.810  0.00  0.00    +0.000 A 
ATOM      4  N   UNL     1       2.684   7.268  18.931  0.00  0.00    +0.000 NA
ATOM      5  S   UNL     1       1.654   8.073  19.949  0.00  0.00    +0.000 S 
ENDROOT
BRANCH   1  15
ATOM      6  C   UNL     1       0.175   9.396  23.843  0.00  0.00    +0.000 C 
ATOM      7  C   UNL     1      -0.332  10.240  22.712  0.00  0.00    +0.000 A 
ATOM      8  C   UNL     1      -1.256  11.199  22.899  0.00  0.00    +0.000 A 
ATOM      9  N   UNL     1      -1.693  11.918  21.804  0.00  0.00    +0.000 N 
ATOM     10  C   UNL     1      -2.659  12.883  21.645  0.00  0.00    +0.000 A 
ATOM     11  C   UNL     1      -2.724  13.093  20.279  0.00  0.00    +0.000 A 
ATOM     12  N   UNL     1      -1.786  12.341  19.601  0.00  0.00    +0.000 NA
ATOM     13  C   UNL     1      -1.204  11.636  20.554  0.00  0.00    +0.000 A 
ATOM     14  C   UNL     1      -0.181  10.607  20.404  0.00  0.00    +0.000 A 
ATOM     15  N   UNL     1       0.381  10.334  19.168  0.00  0.00    +0.000 N 
ATOM     16  N   UNL     1       0.212   9.955  21.477  0.00  0.00    +0.000 NA
ATOM     17  H   UNL     1       0.197  11.052  18.471  0.00  0.00    +0.000 HD
BRANCH  10  18
ATOM     18  C   UNL     1      -3.474  13.515  22.704  0.00  0.00    +0.000 A 
ATOM     19  C   UNL     1      -3.298  14.761  23.339  0.00  0.00    +0.000 A 
ATOM     20  N   UNL     1      -4.199  14.973  24.301  0.00  0.00    +0.000 NA
ATOM     21  N   UNL     1      -4.958  13.865  24.272  0.00  0.00    +0.000 N 
ATOM     22  C   UNL     1      -4.588  12.975  23.302  0.00  0.00    +0.000 A 
ATOM     23  H   UNL     1      -5.708  13.780  24.951  0.00  0.00    +0.000 HD
ENDBRANCH  10  18
ENDBRANCH   1  15
BRANCH   3  24
ATOM     24  C   UNL     1       3.762   7.488  16.740  0.00  0.00    +0.000 C 
BRANCH  24  25
ATOM     25  C   UNL     1       4.543   6.331  17.324  0.00  0.00    +0.000 A 
ATOM     26  C   UNL     1       5.791   6.534  17.912  0.00  0.00    +0.000 A 
ATOM     27  C   UNL     1       6.473   5.450  18.453  0.00  0.00    +0.000 A 
ATOM     28  C   UNL     1       5.885   4.192  18.422  0.00  0.00    +0.000 A 
ATOM     29  C   UNL     1       4.623   4.054  17.852  0.00  0.00    +0.000 A 
ATOM     30  N   UNL     1       3.953   5.104  17.301  0.00  0.00    +0.000 NA
BRANCH  29  31
ATOM     31  C   UNL     1       3.956   2.687  17.800  0.00  0.00    +0.000 C 
BRANCH  31  32
ATOM     32  N   UNL     1       2.985   2.397  18.892  0.00  0.00    +0.000 NA
ATOM     33  C   UNL     1       3.509   2.875  20.186  0.00  0.00    +0.000 C 
ATOM     34  C   UNL     1       2.496   2.715  21.324  0.00  0.00    +0.000 C 
ATOM     35  C   UNL     1       1.182   3.408  20.993  0.00  0.00    +0.000 C 
ATOM     36  C   UNL     1       0.652   2.889  19.665  0.00  0.00    +0.000 C 
ATOM     37  C   UNL     1       1.700   3.042  18.561  0.00  0.00    +0.000 C 
ENDBRANCH  31  32
ENDBRANCH  29  31
ENDBRANCH  24  25
ENDBRANCH   3  24
TORSDOF 6
ENDMDL
MODEL 9
REMARK VINA RESULT:      -7.7      5.102      8.126
REMARK  Name = 
REMARK  7 active torsions:
REMARK  status: ('A' for Active; 'I' for Inactive)
REMARK    1  A    between atoms: C_1  and  C_2
REMARK    2  A    between atoms: C_5  and  C_6
REMARK    3  A    between atoms: N_15  and  C_16
REMARK    4  A    between atoms: C_18  and  C_19
REMARK    5  A    between atoms: C_19  and  C_20
REMARK    6  A    between atoms: C_24  and  C_25
REMARK    7  A    between atoms: C_25  and  N_26
REMARK                            x       y       z     vdW  Elec       q    Type
REMARK                         _______ _______ _______ _____ _____    ______ ____
ROOT
ATOM      1  C   UNL     1      -0.959  12.811  19.749  0.00  0.00    +0.000 A 
ATOM      2  C   UNL     1      -2.288  12.930  20.114  0.00  0.00    +0.000 A 
ATOM      3  C   UNL     1      -2.588  14.235  20.623  0.00  0.00    +0.000 A 
ATOM      4  N   UNL     1      -1.563  15.093  20.624  0.00  0.00    +0.000 NA
ATOM      5  S   UNL     1      -0.198  14.305  20.111  0.00  0.00    +0.000 S 
ENDROOT
BRANCH   1  15
ATOM      6  C   UNL     1       0.214   9.377  23.319  0.00  0.00    +0.000 C 
ATOM      7  C   UNL     1       0.495   9.407  21.846  0.00  0.00    +0.000 A 
ATOM      8  C   UNL     1       1.186   8.429  21.235  0.00  0.00    +0.000 A 
ATOM      9  N   UNL     1       1.428   8.539  19.880  0.00  0.00    +0.000 N 
ATOM     10  C   UNL     1       2.151   7.774  18.995  0.00  0.00    +0.000 A 
ATOM     11  C   UNL     1       2.138   8.495  17.815  0.00  0.00    +0.000 A 
ATOM     12  N   UNL     1       1.375   9.641  17.925  0.00  0.00    +0.000 NA
ATOM     13  C   UNL     1       0.986   9.636  19.187  0.00  0.00    +0.000 A 
ATOM     14  C   UNL     1       0.214  10.658  19.887  0.00  0.00    +0.000 A 
ATOM     15  N   UNL     1      -0.301  11.751  19.211  0.00  0.00    +0.000 N 
ATOM     16  N   UNL     1       0.000  10.506  21.176  0.00  0.00    +0.000 NA
ATOM     17  H   UNL     1      -0.297  11.642  18.199  0.00  0.00    +0.000 HD
BRANCH  10  18
ATOM     18  C   UNL     1       2.829   6.489  19.270  0.00  0.00    +0.000 A 
ATOM     19  C   UNL     1       4.184   6.142  19.096  0.00  0.00    +0.000 A 
ATOM     20  N   UNL     1       4.422   4.862  19.391  0.00  0.00    +0.000 NA
ATOM     21  N   UNL     1       3.219   4.395  19.764  0.00  0.00    +0.000 N 
ATOM     22  C   UNL     1       2.236   5.345  19.747  0.00  0.00    +0.000 A 
ATOM     23  H   UNL     1       3.142   3.413  20.010  0.00  0.00    +0.000 HD
ENDBRANCH  10  18
ENDBRANCH   1  15
BRANCH   3  24
ATOM     24  C   UNL     1      -3.935  14.695  21.095  0.00  0.00    +0.000 C 
BRANCH  24  25
ATOM     25  C   UNL     1      -4.945  13.663  20.639  0.00  0.00    +0.000 A 
ATOM     26  C   UNL     1      -5.861  13.113  21.535  0.00  0.00    +0.000 A 
ATOM     27  C   UNL     1      -6.784  12.180  21.078  0.00  0.00    +0.000 A 
ATOM     28  C   UNL     1      -6.795  11.836  19.733  0.00  0.00    +0.000 A 
ATOM     29  C   UNL     1      -5.879  12.441  18.877  0.00  0.00    +0.000 A 
ATOM     30  N   UNL     1      -4.956  13.342  19.316  0.00  0.00    +0.000 NA
BRANCH  29  31
ATOM     31  C   UNL     1      -5.864  12.081  17.398  0.00  0.00    +0.000 C 
BRANCH  31  32
ATOM     32  N   UNL     1      -4.935  10.984  17.008  0.00  0.00    +0.000 NA
ATOM     33  C   UNL     1      -4.188  11.352  15.791  0.00  0.00    +0.000 C 
ATOM     34  C   UNL     1      -3.128  10.311  15.416  0.00  0.00    +0.000 C 
ATOM     35  C   UNL     1      -2.170  10.059  16.573  0.00  0.00    +0.000 C 
ATOM     36  C   UNL     1      -2.961   9.665  17.811  0.00  0.00    +0.000 C 
ATOM     37  C   UNL     1      -4.025  10.715  18.137  0.00  0.00    +0.000 C 
ENDBRANCH  31  32
ENDBRANCH  29  31
ENDBRANCH  24  25
ENDBRANCH   3  24
TORSDOF 6
ENDMDL
