MODEL 1
REMARK VINA RESULT:      -8.7      0.000      0.000
REMARK  Name = 
REMARK  5 active torsions:
REMARK  status: ('A' for Active; 'I' for Inactive)
REMARK    1  A    between atoms: C_9  and  C_10
REMARK    2  A    between atoms: N_17  and  C_18
REMARK    3  A    between atoms: C_18  and  C_19
REMARK    4  A    between atoms: C_19  and  S_20
REMARK    5  A    between atoms: S_20  and  C_21
REMARK                            x       y       z     vdW  Elec       q    Type
REMARK                         _______ _______ _______ _____ _____    ______ ____
ROOT
ATOM      1  O   UNL     1       5.576   3.208  19.328  0.00  0.00    +0.000 OA
ATOM      2  C   UNL     1       4.801   4.157  19.261  0.00  0.00    +0.000 A 
ATOM      3  C   UNL     1       3.437   4.007  19.808  0.00  0.00    +0.000 A 
ATOM      4  C   UNL     1       3.071   2.801  20.413  0.00  0.00    +0.000 A 
ATOM      5  C   UNL     1       1.794   2.649  20.952  0.00  0.00    +0.000 A 
ATOM      6  C   UNL     1       0.871   3.666  20.810  0.00  0.00    +0.000 A 
ATOM      7  C   UNL     1       1.223   4.843  20.144  0.00  0.00    +0.000 A 
ATOM      8  C   UNL     1       2.537   5.059  19.708  0.00  0.00    +0.000 A 
ATOM      9  C   UNL     1       3.045   6.347  19.154  0.00  0.00    +0.000 A 
ATOM     10  N   UNL     1       4.250   6.458  18.669  0.00  0.00    +0.000 NA
ATOM     11  N   UNL     1       5.110   5.384  18.686  0.00  0.00    +0.000 N 
ENDROOT
BRANCH   9  12
ATOM     12  C   UNL     1       2.210   7.588  19.154  0.00  0.00    +0.000 A 
ATOM     13  C   UNL     1       1.997   8.294  17.968  0.00  0.00    +0.000 A 
ATOM     14  C   UNL     1       1.198   9.438  17.976  0.00  0.00    +0.000 A 
ATOM     15  C   UNL     1       0.630   9.842  19.173  0.00  0.00    +0.000 A 
ATOM     16  N   UNL     1       0.850   9.216  20.348  0.00  0.00    +0.000 NA
ATOM     17  C   UNL     1       1.664   8.132  20.313  0.00  0.00    +0.000 A 
ENDBRANCH   9  12
BRANCH  11  18
ATOM     18  C   UNL     1       6.493   5.641  18.268  0.00  0.00    +0.000 C 
BRANCH  18  19
ATOM     19  C   UNL     1       6.669   5.658  16.746  0.00  0.00    +0.000 C 
BRANCH  19  20
ATOM     20  S   UNL     1       5.612   4.378  15.972  0.00  0.00    +0.000 S 
BRANCH  20  21
ATOM     21  C   UNL     1       6.239   4.322  14.298  0.00  0.00    +0.000 A 
ATOM     22  C   UNL     1       7.323   5.154  13.990  0.00  0.00    +0.000 A 
ATOM     23  C   UNL     1       7.865   5.177  12.702  0.00  0.00    +0.000 A 
ATOM     24  C   UNL     1       7.338   4.355  11.710  0.00  0.00    +0.000 A 
ATOM     25  C   UNL     1       6.280   3.501  12.011  0.00  0.00    +0.000 A 
ATOM     26  C   UNL     1       5.736   3.480  13.300  0.00  0.00    +0.000 A 
ENDBRANCH  20  21
ENDBRANCH  19  20
ENDBRANCH  18  19
ENDBRANCH  11  18
TORSDOF 5
ENDMDL
MODEL 2
REMARK VINA RESULT:      -8.6      0.627      1.118
REMARK  Name = 
REMARK  5 active torsions:
REMARK  status: ('A' for Active; 'I' for Inactive)
REMARK    1  A    between atoms: C_9  and  C_10
REMARK    2  A    between atoms: N_17  and  C_18
REMARK    3  A    between atoms: C_18  and  C_19
REMARK    4  A    between atoms: C_19  and  S_20
REMARK    5  A    between atoms: S_20  and  C_21
REMARK                            x       y       z     vdW  Elec       q    Type
REMARK                         _______ _______ _______ _____ _____    ______ ____
ROOT
ATOM      1  O   UNL     1       5.405   2.748  19.535  0.00  0.00    +0.000 OA
ATOM      2  C   UNL     1       4.711   3.753  19.409  0.00  0.00    +0.000 A 
ATOM      3  C   UNL     1       3.289   3.694  19.805  0.00  0.00    +0.000 A 
ATOM      4  C   UNL     1       2.775   2.509  20.340  0.00  0.00    +0.000 A 
ATOM      5  C   UNL     1       1.441   2.443  20.737  0.00  0.00    +0.000 A 
ATOM      6  C   UNL     1       0.613   3.527  20.522  0.00  0.00    +0.000 A 
ATOM      7  C   UNL     1       1.117   4.685  19.925  0.00  0.00    +0.000 A 
ATOM      8  C   UNL     1       2.482   4.811  19.636  0.00  0.00    +0.000 A 
ATOM      9  C   UNL     1       3.137   6.067  19.169  0.00  0.00    +0.000 A 
ATOM     10  N   UNL     1       4.392   6.097  18.817  0.00  0.00    +0.000 NA
ATOM     11  N   UNL     1       5.166   4.963  18.899  0.00  0.00    +0.000 N 
ENDROOT
BRANCH   9  12
ATOM     12  C   UNL     1       2.398   7.366  19.111  0.00  0.00    +0.000 A 
ATOM     13  C   UNL     1       2.301   8.068  17.907  0.00  0.00    +0.000 A 
ATOM     14  C   UNL     1       1.590   9.268  17.859  0.00  0.00    +0.000 A 
ATOM     15  C   UNL     1       0.990   9.730  19.019  0.00  0.00    +0.000 A 
ATOM     16  N   UNL     1       1.100   9.106  20.211  0.00  0.00    +0.000 NA
ATOM     17  C   UNL     1       1.832   7.966  20.232  0.00  0.00    +0.000 A 
ENDBRANCH   9  12
BRANCH  11  18
ATOM     18  C   UNL     1       6.601   5.124  18.636  0.00  0.00    +0.000 C 
BRANCH  18  19
ATOM     19  C   UNL     1       7.017   4.635  17.244  0.00  0.00    +0.000 C 
BRANCH  19  20
ATOM     20  S   UNL     1       6.762   5.958  16.004  0.00  0.00    +0.000 S 
BRANCH  20  21
ATOM     21  C   UNL     1       6.674   5.038  14.473  0.00  0.00    +0.000 A 
ATOM     22  C   UNL     1       5.562   4.206  14.287  0.00  0.00    +0.000 A 
ATOM     23  C   UNL     1       5.423   3.446  13.122  0.00  0.00    +0.000 A 
ATOM     24  C   UNL     1       6.388   3.522  12.122  0.00  0.00    +0.000 A 
ATOM     25  C   UNL     1       7.482   4.368  12.281  0.00  0.00    +0.000 A 
ATOM     26  C   UNL     1       7.622   5.127  13.449  0.00  0.00    +0.000 A 
ENDBRANCH  20  21
ENDBRANCH  19  20
ENDBRANCH  18  19
ENDBRANCH  11  18
TORSDOF 5
ENDMDL
MODEL 3
REMARK VINA RESULT:      -8.5      0.635      1.371
REMARK  Name = 
REMARK  5 active torsions:
REMARK  status: ('A' for Active; 'I' for Inactive)
REMARK    1  A    between atoms: C_9  and  C_10
REMARK    2  A    between atoms: N_17  and  C_18
REMARK    3  A    between atoms: C_18  and  C_19
REMARK    4  A    between atoms: C_19  and  S_20
REMARK    5  A    between atoms: S_20  and  C_21
REMARK                            x       y       z     vdW  Elec       q    Type
REMARK                         _______ _______ _______ _____ _____    ______ ____
ROOT
ATOM      1  O   UNL     1       5.476   2.902  19.419  0.00  0.00    +0.000 OA
ATOM      2  C   UNL     1       4.750   3.888  19.324  0.00  0.00    +0.000 A 
ATOM      3  C   UNL     1       3.359   3.802  19.813  0.00  0.00    +0.000 A 
ATOM      4  C   UNL     1       2.910   2.613  20.397  0.00  0.00    +0.000 A 
ATOM      5  C   UNL     1       1.606   2.522  20.881  0.00  0.00    +0.000 A 
ATOM      6  C   UNL     1       0.739   3.582  20.705  0.00  0.00    +0.000 A 
ATOM      7  C   UNL     1       1.175   4.743  20.061  0.00  0.00    +0.000 A 
ATOM      8  C   UNL     1       2.515   4.896  19.681  0.00  0.00    +0.000 A 
ATOM      9  C   UNL     1       3.107   6.160  19.155  0.00  0.00    +0.000 A 
ATOM     10  N   UNL     1       4.335   6.215  18.721  0.00  0.00    +0.000 NA
ATOM     11  N   UNL     1       5.141   5.101  18.769  0.00  0.00    +0.000 N 
ENDROOT
BRANCH   9  12
ATOM     12  C   UNL     1       2.333   7.440  19.127  0.00  0.00    +0.000 A 
ATOM     13  C   UNL     1       1.736   7.928  20.291  0.00  0.00    +0.000 A 
ATOM     14  C   UNL     1       1.036   9.134  20.259  0.00  0.00    +0.000 A 
ATOM     15  C   UNL     1       0.956   9.823  19.059  0.00  0.00    +0.000 A 
ATOM     16  N   UNL     1       1.478   9.362  17.903  0.00  0.00    +0.000 NA
ATOM     17  C   UNL     1       2.116   8.168  17.960  0.00  0.00    +0.000 A 
ENDBRANCH   9  12
BRANCH  11  18
ATOM     18  C   UNL     1       6.552   5.292  18.411  0.00  0.00    +0.000 C 
BRANCH  18  19
ATOM     19  C   UNL     1       6.964   4.517  17.155  0.00  0.00    +0.000 C 
BRANCH  19  20
ATOM     20  S   UNL     1       5.519   4.278  16.055  0.00  0.00    +0.000 S 
BRANCH  20  21
ATOM     21  C   UNL     1       6.259   4.345  14.428  0.00  0.00    +0.000 A 
ATOM     22  C   UNL     1       5.690   3.542  13.430  0.00  0.00    +0.000 A 
ATOM     23  C   UNL     1       6.215   3.530  12.135  0.00  0.00    +0.000 A 
ATOM     24  C   UNL     1       7.307   4.334  11.818  0.00  0.00    +0.000 A 
ATOM     25  C   UNL     1       7.862   5.159  12.793  0.00  0.00    +0.000 A 
ATOM     26  C   UNL     1       7.338   5.169  14.090  0.00  0.00    +0.000 A 
ENDBRANCH  20  21
ENDBRANCH  19  20
ENDBRANCH  18  19
ENDBRANCH  11  18
TORSDOF 5
ENDMDL
MODEL 4
REMARK VINA RESULT:      -8.2      2.640      7.264
REMARK  Name = 
REMARK  5 active torsions:
REMARK  status: ('A' for Active; 'I' for Inactive)
REMARK    1  A    between atoms: C_9  and  C_10
REMARK    2  A    between atoms: N_17  and  C_18
REMARK    3  A    between atoms: C_18  and  C_19
REMARK    4  A    between atoms: C_19  and  S_20
REMARK    5  A    between atoms: S_20  and  C_21
REMARK                            x       y       z     vdW  Elec       q    Type
REMARK                         _______ _______ _______ _____ _____    ______ ____
ROOT
ATOM      1  O   UNL     1       1.103   5.589  20.443  0.00  0.00    +0.000 OA
ATOM      2  C   UNL     1       2.024   5.465  19.640  0.00  0.00    +0.000 A 
ATOM      3  C   UNL     1       2.436   4.108  19.230  0.00  0.00    +0.000 A 
ATOM      4  C   UNL     1       1.754   3.000  19.741  0.00  0.00    +0.000 A 
ATOM      5  C   UNL     1       2.119   1.713  19.350  0.00  0.00    +0.000 A 
ATOM      6  C   UNL     1       3.209   1.538  18.520  0.00  0.00    +0.000 A 
ATOM      7  C   UNL     1       3.928   2.646  18.066  0.00  0.00    +0.000 A 
ATOM      8  C   UNL     1       3.499   3.949  18.350  0.00  0.00    +0.000 A 
ATOM      9  C   UNL     1       4.094   5.184  17.764  0.00  0.00    +0.000 A 
ATOM     10  N   UNL     1       3.721   6.374  18.144  0.00  0.00    +0.000 NA
ATOM     11  N   UNL     1       2.730   6.526  19.085  0.00  0.00    +0.000 N 
ENDROOT
BRANCH   9  12
ATOM     12  C   UNL     1       5.129   5.124  16.685  0.00  0.00    +0.000 A 
ATOM     13  C   UNL     1       4.872   4.427  15.501  0.00  0.00    +0.000 A 
ATOM     14  C   UNL     1       5.835   4.395  14.492  0.00  0.00    +0.000 A 
ATOM     15  C   UNL     1       7.030   5.068  14.694  0.00  0.00    +0.000 A 
ATOM     16  N   UNL     1       7.335   5.712  15.841  0.00  0.00    +0.000 NA
ATOM     17  C   UNL     1       6.394   5.688  16.816  0.00  0.00    +0.000 A 
ENDBRANCH   9  12
BRANCH  11  18
ATOM     18  C   UNL     1       2.263   7.895  19.336  0.00  0.00    +0.000 C 
BRANCH  18  19
ATOM     19  C   UNL     1       1.855   8.635  18.058  0.00  0.00    +0.000 C 
BRANCH  19  20
ATOM     20  S   UNL     1       1.618  10.417  18.406  0.00  0.00    +0.000 S 
BRANCH  20  21
ATOM     21  C   UNL     1      -0.159  10.595  18.313  0.00  0.00    +0.000 A 
ATOM     22  C   UNL     1      -0.733  11.677  18.994  0.00  0.00    +0.000 A 
ATOM     23  C   UNL     1      -2.116  11.880  18.979  0.00  0.00    +0.000 A 
ATOM     24  C   UNL     1      -2.940  11.011  18.269  0.00  0.00    +0.000 A 
ATOM     25  C   UNL     1      -2.379   9.950  17.563  0.00  0.00    +0.000 A 
ATOM     26  C   UNL     1      -0.995   9.745  17.581  0.00  0.00    +0.000 A 
ENDBRANCH  20  21
ENDBRANCH  19  20
ENDBRANCH  18  19
ENDBRANCH  11  18
TORSDOF 5
ENDMDL
MODEL 5
REMARK VINA RESULT:      -8.1      1.107      1.391
REMARK  Name = 
REMARK  5 active torsions:
REMARK  status: ('A' for Active; 'I' for Inactive)
REMARK    1  A    between atoms: C_9  and  C_10
REMARK    2  A    between atoms: N_17  and  C_18
REMARK    3  A    between atoms: C_18  and  C_19
REMARK    4  A    between atoms: C_19  and  S_20
REMARK    5  A    between atoms: S_20  and  C_21
REMARK                            x       y       z     vdW  Elec       q    Type
REMARK                         _______ _______ _______ _____ _____    ______ ____
ROOT
ATOM      1  O   UNL     1       5.502   2.743  19.437  0.00  0.00    +0.000 OA
ATOM      2  C   UNL     1       4.797   3.742  19.315  0.00  0.00    +0.000 A 
ATOM      3  C   UNL     1       3.333   3.575  19.220  0.00  0.00    +0.000 A 
ATOM      4  C   UNL     1       2.782   2.293  19.299  0.00  0.00    +0.000 A 
ATOM      5  C   UNL     1       1.401   2.120  19.230  0.00  0.00    +0.000 A 
ATOM      6  C   UNL     1       0.589   3.214  19.001  0.00  0.00    +0.000 A 
ATOM      7  C   UNL     1       1.152   4.484  18.856  0.00  0.00    +0.000 A 
ATOM      8  C   UNL     1       2.524   4.690  19.046  0.00  0.00    +0.000 A 
ATOM      9  C   UNL     1       3.183   6.028  19.089  0.00  0.00    +0.000 A 
ATOM     10  N   UNL     1       4.478   6.155  19.166  0.00  0.00    +0.000 NA
ATOM     11  N   UNL     1       5.283   5.042  19.245  0.00  0.00    +0.000 N 
ENDROOT
BRANCH   9  12
ATOM     12  C   UNL     1       2.389   7.297  19.078  0.00  0.00    +0.000 A 
ATOM     13  C   UNL     1       2.236   8.022  17.894  0.00  0.00    +0.000 A 
ATOM     14  C   UNL     1       1.475   9.191  17.890  0.00  0.00    +0.000 A 
ATOM     15  C   UNL     1       0.884   9.601  19.075  0.00  0.00    +0.000 A 
ATOM     16  N   UNL     1       1.047   8.956  20.249  0.00  0.00    +0.000 NA
ATOM     17  C   UNL     1       1.825   7.847  20.226  0.00  0.00    +0.000 A 
ENDBRANCH   9  12
BRANCH  11  18
ATOM     18  C   UNL     1       6.711   5.278  19.489  0.00  0.00    +0.000 C 
BRANCH  18  19
ATOM     19  C   UNL     1       7.577   5.070  18.243  0.00  0.00    +0.000 C 
BRANCH  19  20
ATOM     20  S   UNL     1       7.165   6.321  16.970  0.00  0.00    +0.000 S 
BRANCH  20  21
ATOM     21  C   UNL     1       6.602   5.310  15.605  0.00  0.00    +0.000 A 
ATOM     22  C   UNL     1       7.416   5.258  14.466  0.00  0.00    +0.000 A 
ATOM     23  C   UNL     1       7.043   4.500  13.353  0.00  0.00    +0.000 A 
ATOM     24  C   UNL     1       5.857   3.771  13.373  0.00  0.00    +0.000 A 
ATOM     25  C   UNL     1       5.054   3.791  14.511  0.00  0.00    +0.000 A 
ATOM     26  C   UNL     1       5.426   4.553  15.624  0.00  0.00    +0.000 A 
ENDBRANCH  20  21
ENDBRANCH  19  20
ENDBRANCH  18  19
ENDBRANCH  11  18
TORSDOF 5
ENDMDL
MODEL 6
REMARK VINA RESULT:      -8.1      3.049      5.276
REMARK  Name = 
REMARK  5 active torsions:
REMARK  status: ('A' for Active; 'I' for Inactive)
REMARK    1  A    between atoms: C_9  and  C_10
REMARK    2  A    between atoms: N_17  and  C_18
REMARK    3  A    between atoms: C_18  and  C_19
REMARK    4  A    between atoms: C_19  and  S_20
REMARK    5  A    between atoms: S_20  and  C_21
REMARK                            x       y       z     vdW  Elec       q    Type
REMARK                         _______ _______ _______ _____ _____    ______ ____
ROOT
ATOM      1  O   UNL     1       2.489   9.786  17.697  0.00  0.00    +0.000 OA
ATOM      2  C   UNL     1       2.361   8.753  18.349  0.00  0.00    +0.000 A 
ATOM      3  C   UNL     1       1.445   8.748  19.507  0.00  0.00    +0.000 A 
ATOM      4  C   UNL     1       0.726   9.906  19.818  0.00  0.00    +0.000 A 
ATOM      5  C   UNL     1      -0.157   9.912  20.896  0.00  0.00    +0.000 A 
ATOM      6  C   UNL     1      -0.253   8.794  21.702  0.00  0.00    +0.000 A 
ATOM      7  C   UNL     1       0.519   7.664  21.426  0.00  0.00    +0.000 A 
ATOM      8  C   UNL     1       1.316   7.599  20.276  0.00  0.00    +0.000 A 
ATOM      9  C   UNL     1       2.030   6.376  19.806  0.00  0.00    +0.000 A 
ATOM     10  N   UNL     1       2.840   6.402  18.785  0.00  0.00    +0.000 NA
ATOM     11  N   UNL     1       3.036   7.568  18.082  0.00  0.00    +0.000 N 
ENDROOT
BRANCH   9  12
ATOM     12  C   UNL     1       1.828   5.047  20.463  0.00  0.00    +0.000 A 
ATOM     13  C   UNL     1       0.862   4.162  19.979  0.00  0.00    +0.000 A 
ATOM     14  C   UNL     1       0.697   2.915  20.585  0.00  0.00    +0.000 A 
ATOM     15  C   UNL     1       1.511   2.587  21.658  0.00  0.00    +0.000 A 
ATOM     16  N   UNL     1       2.423   3.432  22.184  0.00  0.00    +0.000 NA
ATOM     17  C   UNL     1       2.528   4.649  21.598  0.00  0.00    +0.000 A 
ENDBRANCH   9  12
BRANCH  11  18
ATOM     18  C   UNL     1       3.837   7.471  16.855  0.00  0.00    +0.000 C 
BRANCH  18  19
ATOM     19  C   UNL     1       5.180   6.765  17.068  0.00  0.00    +0.000 C 
BRANCH  19  20
ATOM     20  S   UNL     1       5.259   5.236  16.062  0.00  0.00    +0.000 S 
BRANCH  20  21
ATOM     21  C   UNL     1       4.671   3.992  17.205  0.00  0.00    +0.000 A 
ATOM     22  C   UNL     1       5.238   3.980  18.486  0.00  0.00    +0.000 A 
ATOM     23  C   UNL     1       4.841   3.033  19.435  0.00  0.00    +0.000 A 
ATOM     24  C   UNL     1       3.860   2.097  19.118  0.00  0.00    +0.000 A 
ATOM     25  C   UNL     1       3.268   2.119  17.858  0.00  0.00    +0.000 A 
ATOM     26  C   UNL     1       3.668   3.064  16.907  0.00  0.00    +0.000 A 
ENDBRANCH  20  21
ENDBRANCH  19  20
ENDBRANCH  18  19
ENDBRANCH  11  18
TORSDOF 5
ENDMDL
MODEL 7
REMARK VINA RESULT:      -8.0      3.587      5.071
REMARK  Name = 
REMARK  5 active torsions:
REMARK  status: ('A' for Active; 'I' for Inactive)
REMARK    1  A    between atoms: C_9  and  C_10
REMARK    2  A    between atoms: N_17  and  C_18
REMARK    3  A    between atoms: C_18  and  C_19
REMARK    4  A    between atoms: C_19  and  S_20
REMARK    5  A    between atoms: S_20  and  C_21
REMARK                            x       y       z     vdW  Elec       q    Type
REMARK                         _______ _______ _______ _____ _____    ______ ____
ROOT
ATOM      1  O   UNL     1       6.263   4.033  16.676  0.00  0.00    +0.000 OA
ATOM      2  C   UNL     1       5.417   4.846  17.038  0.00  0.00    +0.000 A 
ATOM      3  C   UNL     1       4.077   4.359  17.424  0.00  0.00    +0.000 A 
ATOM      4  C   UNL     1       3.811   2.987  17.395  0.00  0.00    +0.000 A 
ATOM      5  C   UNL     1       2.558   2.510  17.773  0.00  0.00    +0.000 A 
ATOM      6  C   UNL     1       1.558   3.406  18.097  0.00  0.00    +0.000 A 
ATOM      7  C   UNL     1       1.810   4.779  18.059  0.00  0.00    +0.000 A 
ATOM      8  C   UNL     1       3.098   5.268  17.801  0.00  0.00    +0.000 A 
ATOM      9  C   UNL     1       3.499   6.700  17.917  0.00  0.00    +0.000 A 
ATOM     10  N   UNL     1       4.685   7.112  17.565  0.00  0.00    +0.000 NA
ATOM     11  N   UNL     1       5.624   6.219  17.103  0.00  0.00    +0.000 N 
ENDROOT
BRANCH   9  12
ATOM     12  C   UNL     1       2.572   7.735  18.473  0.00  0.00    +0.000 A 
ATOM     13  C   UNL     1       2.147   8.801  17.676  0.00  0.00    +0.000 A 
ATOM     14  C   UNL     1       1.265   9.748  18.197  0.00  0.00    +0.000 A 
ATOM     15  C   UNL     1       0.829   9.599  19.504  0.00  0.00    +0.000 A 
ATOM     16  N   UNL     1       1.253   8.612  20.321  0.00  0.00    +0.000 NA
ATOM     17  C   UNL     1       2.141   7.733  19.796  0.00  0.00    +0.000 A 
ENDBRANCH   9  12
BRANCH  11  18
ATOM     18  C   UNL     1       6.978   6.741  16.882  0.00  0.00    +0.000 C 
BRANCH  18  19
ATOM     19  C   UNL     1       7.179   8.150  17.450  0.00  0.00    +0.000 C 
BRANCH  19  20
ATOM     20  S   UNL     1       8.524   8.147  18.692  0.00  0.00    +0.000 S 
BRANCH  20  21
ATOM     21  C   UNL     1       8.885   9.889  18.874  0.00  0.00    +0.000 A 
ATOM     22  C   UNL     1       8.620  10.717  17.775  0.00  0.00    +0.000 A 
ATOM     23  C   UNL     1       8.883  12.089  17.832  0.00  0.00    +0.000 A 
ATOM     24  C   UNL     1       9.400  12.651  18.996  0.00  0.00    +0.000 A 
ATOM     25  C   UNL     1       9.639  11.844  20.105  0.00  0.00    +0.000 A 
ATOM     26  C   UNL     1       9.378  10.470  20.047  0.00  0.00    +0.000 A 
ENDBRANCH  20  21
ENDBRANCH  19  20
ENDBRANCH  18  19
ENDBRANCH  11  18
TORSDOF 5
ENDMDL
MODEL 8
REMARK VINA RESULT:      -8.0      2.480      7.024
REMARK  Name = 
REMARK  5 active torsions:
REMARK  status: ('A' for Active; 'I' for Inactive)
REMARK    1  A    between atoms: C_9  and  C_10
REMARK    2  A    between atoms: N_17  and  C_18
REMARK    3  A    between atoms: C_18  and  C_19
REMARK    4  A    between atoms: C_19  and  S_20
REMARK    5  A    between atoms: S_20  and  C_21
REMARK                            x       y       z     vdW  Elec       q    Type
REMARK                         _______ _______ _______ _____ _____    ______ ____
ROOT
ATOM      1  O   UNL     1       4.836   3.615  19.957  0.00  0.00    +0.000 OA
ATOM      2  C   UNL     1       5.136   3.806  18.781  0.00  0.00    +0.000 A 
ATOM      3  C   UNL     1       6.137   4.843  18.459  0.00  0.00    +0.000 A 
ATOM      4  C   UNL     1       6.739   5.562  19.497  0.00  0.00    +0.000 A 
ATOM      5  C   UNL     1       7.699   6.530  19.211  0.00  0.00    +0.000 A 
ATOM      6  C   UNL     1       7.990   6.832  17.895  0.00  0.00    +0.000 A 
ATOM      7  C   UNL     1       7.336   6.157  16.861  0.00  0.00    +0.000 A 
ATOM      8  C   UNL     1       6.462   5.097  17.133  0.00  0.00    +0.000 A 
ATOM      9  C   UNL     1       5.861   4.207  16.098  0.00  0.00    +0.000 A 
ATOM     10  N   UNL     1       4.974   3.301  16.401  0.00  0.00    +0.000 NA
ATOM     11  N   UNL     1       4.586   3.116  17.708  0.00  0.00    +0.000 N 
ENDROOT
BRANCH   9  12
ATOM     12  C   UNL     1       6.269   4.284  14.660  0.00  0.00    +0.000 A 
ATOM     13  C   UNL     1       5.632   3.490  13.704  0.00  0.00    +0.000 A 
ATOM     14  C   UNL     1       6.005   3.587  12.363  0.00  0.00    +0.000 A 
ATOM     15  C   UNL     1       7.005   4.481  12.015  0.00  0.00    +0.000 A 
ATOM     16  N   UNL     1       7.677   5.230  12.915  0.00  0.00    +0.000 NA
ATOM     17  C   UNL     1       7.318   5.082  14.213  0.00  0.00    +0.000 A 
ENDBRANCH   9  12
BRANCH  11  18
ATOM     18  C   UNL     1       3.706   1.973  17.978  0.00  0.00    +0.000 C 
BRANCH  18  19
ATOM     19  C   UNL     1       2.260   2.207  17.529  0.00  0.00    +0.000 C 
BRANCH  19  20
ATOM     20  S   UNL     1       1.212   2.645  18.965  0.00  0.00    +0.000 S 
BRANCH  20  21
ATOM     21  C   UNL     1       1.626   4.364  19.234  0.00  0.00    +0.000 A 
ATOM     22  C   UNL     1       1.986   5.121  18.110  0.00  0.00    +0.000 A 
ATOM     23  C   UNL     1       2.333   6.469  18.236  0.00  0.00    +0.000 A 
ATOM     24  C   UNL     1       2.309   7.080  19.487  0.00  0.00    +0.000 A 
ATOM     25  C   UNL     1       1.925   6.347  20.606  0.00  0.00    +0.000 A 
ATOM     26  C   UNL     1       1.580   4.997  20.480  0.00  0.00    +0.000 A 
ENDBRANCH  20  21
ENDBRANCH  19  20
ENDBRANCH  18  19
ENDBRANCH  11  18
TORSDOF 5
ENDMDL
MODEL 9
REMARK VINA RESULT:      -8.0      2.492      7.354
REMARK  Name = 
REMARK  5 active torsions:
REMARK  status: ('A' for Active; 'I' for Inactive)
REMARK    1  A    between atoms: C_9  and  C_10
REMARK    2  A    between atoms: N_17  and  C_18
REMARK    3  A    between atoms: C_18  and  C_19
REMARK    4  A    between atoms: C_19  and  S_20
REMARK    5  A    between atoms: S_20  and  C_21
REMARK                            x       y       z     vdW  Elec       q    Type
REMARK                         _______ _______ _______ _____ _____    ______ ____
ROOT
ATOM      1  O   UNL     1       1.240   6.337  21.001  0.00  0.00    +0.000 OA
ATOM      2  C   UNL     1       2.127   6.122  20.179  0.00  0.00    +0.000 A 
ATOM      3  C   UNL     1       2.794   4.805  20.174  0.00  0.00    +0.000 A 
ATOM      4  C   UNL     1       2.383   3.825  21.083  0.00  0.00    +0.000 A 
ATOM      5  C   UNL     1       2.989   2.570  21.079  0.00  0.00    +0.000 A 
ATOM      6  C   UNL     1       4.050   2.330  20.229  0.00  0.00    +0.000 A 
ATOM      7  C   UNL     1       4.500   3.335  19.370  0.00  0.00    +0.000 A 
ATOM      8  C   UNL     1       3.822   4.558  19.275  0.00  0.00    +0.000 A 
ATOM      9  C   UNL     1       4.118   5.615  18.265  0.00  0.00    +0.000 A 
ATOM     10  N   UNL     1       3.524   6.775  18.290  0.00  0.00    +0.000 NA
ATOM     11  N   UNL     1       2.569   7.048  19.242  0.00  0.00    +0.000 N 
ENDROOT
BRANCH   9  12
ATOM     12  C   UNL     1       5.090   5.388  17.150  0.00  0.00    +0.000 A 
ATOM     13  C   UNL     1       4.784   4.496  16.120  0.00  0.00    +0.000 A 
ATOM     14  C   UNL     1       5.687   4.308  15.073  0.00  0.00    +0.000 A 
ATOM     15  C   UNL     1       6.873   5.026  15.085  0.00  0.00    +0.000 A 
ATOM     16  N   UNL     1       7.226   5.861  16.084  0.00  0.00    +0.000 NA
ATOM     17  C   UNL     1       6.345   5.989  17.105  0.00  0.00    +0.000 A 
ENDBRANCH   9  12
BRANCH  11  18
ATOM     18  C   UNL     1       1.839   8.314  19.099  0.00  0.00    +0.000 C 
BRANCH  18  19
ATOM     19  C   UNL     1       2.091   9.005  17.755  0.00  0.00    +0.000 C 
BRANCH  19  20
ATOM     20  S   UNL     1       2.232  10.816  17.991  0.00  0.00    +0.000 S 
BRANCH  20  21
ATOM     21  C   UNL     1       0.791  11.188  18.983  0.00  0.00    +0.000 A 
ATOM     22  C   UNL     1       1.011  11.676  20.278  0.00  0.00    +0.000 A 
ATOM     23  C   UNL     1      -0.061  11.982  21.120  0.00  0.00    +0.000 A 
ATOM     24  C   UNL     1      -1.369  11.818  20.670  0.00  0.00    +0.000 A 
ATOM     25  C   UNL     1      -1.601  11.363  19.375  0.00  0.00    +0.000 A 
ATOM     26  C   UNL     1      -0.527  11.054  18.533  0.00  0.00    +0.000 A 
ENDBRANCH  20  21
ENDBRANCH  19  20
ENDBRANCH  18  19
ENDBRANCH  11  18
TORSDOF 5
ENDMDL
