MODEL 1
REMARK VINA RESULT:      -7.4      0.000      0.000
REMARK  Name = 
REMARK  8 active torsions:
REMARK  status: ('A' for Active; 'I' for Inactive)
REMARK    1  A    between atoms: C_1  and  C_2
REMARK    2  A    between atoms: C_2  and  C_3
REMARK    3  A    between atoms: C_2  and  C_4
REMARK    4  A    between atoms: C_6  and  N_7
REMARK    5  A    between atoms: C_8  and  C_10
REMARK    6  A    between atoms: C_10  and  N_11
REMARK    7  A    between atoms: C_15  and  C_16
REMARK    8  A    between atoms: C_16  and  N_17
REMARK                            x       y       z     vdW  Elec       q    Type
REMARK                         _______ _______ _______ _____ _____    ______ ____
ROOT
ATOM      1  N   UNL     1       5.055   5.789  17.001  0.00  0.00    +0.000 N 
ATOM      2  C   UNL     1       5.235   5.208  18.245  0.00  0.00    +0.000 C 
ATOM      3  O   UNL     1       5.958   4.242  18.489  0.00  0.00    +0.000 OA
ATOM      4  H   UNL     1       4.438   6.579  16.886  0.00  0.00    +0.000 HD
ENDROOT
BRANCH   1   7
ATOM      5  C   UNL     1       6.480   4.445  14.025  0.00  0.00    +0.000 A 
ATOM      6  C   UNL     1       5.347   4.513  14.874  0.00  0.00    +0.000 A 
ATOM      7  C   UNL     1       5.737   5.346  15.894  0.00  0.00    +0.000 A 
ATOM      8  O   UNL     1       7.014   5.752  15.668  0.00  0.00    +0.000 OA
ATOM      9  N   UNL     1       7.484   5.192  14.500  0.00  0.00    +0.000 NA
BRANCH   5  11
ATOM     10  C   UNL     1       5.292   3.273  12.160  0.00  0.00    +0.000 C 
ATOM     11  C   UNL     1       6.645   3.677  12.750  0.00  0.00    +0.000 C 
ATOM     12  C   UNL     1       7.468   4.463  11.726  0.00  0.00    +0.000 C 
ENDBRANCH   5  11
ENDBRANCH   1   7
BRANCH   2  13
ATOM     13  C   UNL     1       4.483   5.938  19.366  0.00  0.00    +0.000 C 
BRANCH  13  14
ATOM     14  N   UNL     1       3.026   5.853  19.141  0.00  0.00    +0.000 NA
ATOM     15  C   UNL     1       2.438   7.171  18.879  0.00  0.00    +0.000 C 
ATOM     16  C   UNL     1       2.010   7.672  20.241  0.00  0.00    +0.000 C 
ATOM     17  C   UNL     1       1.465   6.417  20.893  0.00  0.00    +0.000 C 
ATOM     18  C   UNL     1       2.282   5.267  20.288  0.00  0.00    +0.000 C 
BRANCH  18  19
ATOM     19  C   UNL     1       1.429   4.083  19.795  0.00  0.00    +0.000 C 
BRANCH  19  20
ATOM     20  N   UNL     1       2.202   3.081  19.097  0.00  0.00    +0.000 N 
ATOM     21  C   UNL     1       2.107   2.701  17.796  0.00  0.00    +0.000 A 
ATOM     22  N   UNL     1       2.997   1.770  17.543  0.00  0.00    +0.000 NA
ATOM     23  C   UNL     1       3.606   1.591  18.753  0.00  0.00    +0.000 A 
ATOM     24  N   UNL     1       3.157   2.375  19.736  0.00  0.00    +0.000 NA
ENDBRANCH  19  20
ENDBRANCH  18  19
ENDBRANCH  13  14
ENDBRANCH   2  13
TORSDOF 6
ENDMDL
MODEL 2
REMARK VINA RESULT:      -7.1      1.736      3.635
REMARK  Name = 
REMARK  8 active torsions:
REMARK  status: ('A' for Active; 'I' for Inactive)
REMARK    1  A    between atoms: C_1  and  C_2
REMARK    2  A    between atoms: C_2  and  C_3
REMARK    3  A    between atoms: C_2  and  C_4
REMARK    4  A    between atoms: C_6  and  N_7
REMARK    5  A    between atoms: C_8  and  C_10
REMARK    6  A    between atoms: C_10  and  N_11
REMARK    7  A    between atoms: C_15  and  C_16
REMARK    8  A    between atoms: C_16  and  N_17
REMARK                            x       y       z     vdW  Elec       q    Type
REMARK                         _______ _______ _______ _____ _____    ______ ____
ROOT
ATOM      1  N   UNL     1       4.868   3.547  17.516  0.00  0.00    +0.000 N 
ATOM      2  C   UNL     1       3.586   3.037  17.621  0.00  0.00    +0.000 C 
ATOM      3  O   UNL     1       2.715   3.097  16.753  0.00  0.00    +0.000 OA
ATOM      4  H   UNL     1       5.522   3.458  18.281  0.00  0.00    +0.000 HD
ENDROOT
BRANCH   1   7
ATOM      5  C   UNL     1       6.076   4.724  14.379  0.00  0.00    +0.000 A 
ATOM      6  C   UNL     1       5.796   3.603  15.198  0.00  0.00    +0.000 A 
ATOM      7  C   UNL     1       5.313   4.146  16.363  0.00  0.00    +0.000 A 
ATOM      8  O   UNL     1       5.301   5.500  16.246  0.00  0.00    +0.000 OA
ATOM      9  N   UNL     1       5.776   5.868  15.006  0.00  0.00    +0.000 NA
BRANCH   5  11
ATOM     10  C   UNL     1       8.093   5.200  12.974  0.00  0.00    +0.000 C 
ATOM     11  C   UNL     1       6.631   4.747  12.988  0.00  0.00    +0.000 C 
ATOM     12  C   UNL     1       6.480   3.387  12.302  0.00  0.00    +0.000 C 
ENDBRANCH   5  11
ENDBRANCH   1   7
BRANCH   2  13
ATOM     13  C   UNL     1       3.339   2.293  18.941  0.00  0.00    +0.000 C 
BRANCH  13  14
ATOM     14  N   UNL     1       3.239   3.254  20.057  0.00  0.00    +0.000 NA
ATOM     15  C   UNL     1       2.661   2.637  21.257  0.00  0.00    +0.000 C 
ATOM     16  C   UNL     1       1.176   2.903  21.140  0.00  0.00    +0.000 C 
ATOM     17  C   UNL     1       1.141   4.318  20.595  0.00  0.00    +0.000 C 
ATOM     18  C   UNL     1       2.409   4.447  19.741  0.00  0.00    +0.000 C 
BRANCH  18  19
ATOM     19  C   UNL     1       3.223   5.725  20.015  0.00  0.00    +0.000 C 
BRANCH  19  20
ATOM     20  N   UNL     1       2.692   6.890  19.343  0.00  0.00    +0.000 N 
ATOM     21  C   UNL     1       2.826   7.240  18.037  0.00  0.00    +0.000 A 
ATOM     22  N   UNL     1       2.181   8.362  17.814  0.00  0.00    +0.000 NA
ATOM     23  C   UNL     1       1.683   8.679  19.046  0.00  0.00    +0.000 A 
ATOM     24  N   UNL     1       1.965   7.805  20.015  0.00  0.00    +0.000 NA
ENDBRANCH  19  20
ENDBRANCH  18  19
ENDBRANCH  13  14
ENDBRANCH   2  13
TORSDOF 6
ENDMDL
MODEL 3
REMARK VINA RESULT:      -6.8      1.667      3.577
REMARK  Name = 
REMARK  8 active torsions:
REMARK  status: ('A' for Active; 'I' for Inactive)
REMARK    1  A    between atoms: C_1  and  C_2
REMARK    2  A    between atoms: C_2  and  C_3
REMARK    3  A    between atoms: C_2  and  C_4
REMARK    4  A    between atoms: C_6  and  N_7
REMARK    5  A    between atoms: C_8  and  C_10
REMARK    6  A    between atoms: C_10  and  N_11
REMARK    7  A    between atoms: C_15  and  C_16
REMARK    8  A    between atoms: C_16  and  N_17
REMARK                            x       y       z     vdW  Elec       q    Type
REMARK                         _______ _______ _______ _____ _____    ______ ____
ROOT
ATOM      1  N   UNL     1       5.534   3.797  18.700  0.00  0.00    +0.000 N 
ATOM      2  C   UNL     1       4.482   2.907  18.834  0.00  0.00    +0.000 C 
ATOM      3  O   UNL     1       3.898   2.339  17.912  0.00  0.00    +0.000 OA
ATOM      4  H   UNL     1       5.955   4.223  19.513  0.00  0.00    +0.000 HD
ENDROOT
BRANCH   1   7
ATOM      5  C   UNL     1       6.543   4.552  15.369  0.00  0.00    +0.000 A 
ATOM      6  C   UNL     1       5.478   4.211  16.238  0.00  0.00    +0.000 A 
ATOM      7  C   UNL     1       6.070   4.098  17.472  0.00  0.00    +0.000 A 
ATOM      8  O   UNL     1       7.398   4.358  17.350  0.00  0.00    +0.000 OA
ATOM      9  N   UNL     1       7.700   4.644  16.035  0.00  0.00    +0.000 NA
BRANCH   5  11
ATOM     10  C   UNL     1       7.861   5.249  13.357  0.00  0.00    +0.000 C 
ATOM     11  C   UNL     1       6.499   4.800  13.892  0.00  0.00    +0.000 C 
ATOM     12  C   UNL     1       5.998   3.569  13.132  0.00  0.00    +0.000 C 
ENDBRANCH   5  11
ENDBRANCH   1   7
BRANCH   2  13
ATOM     13  C   UNL     1       4.125   2.611  20.298  0.00  0.00    +0.000 C 
BRANCH  13  14
ATOM     14  N   UNL     1       2.959   3.416  20.711  0.00  0.00    +0.000 NA
ATOM     15  C   UNL     1       1.843   2.571  21.151  0.00  0.00    +0.000 C 
ATOM     16  C   UNL     1       1.017   2.355  19.903  0.00  0.00    +0.000 C 
ATOM     17  C   UNL     1       1.072   3.715  19.235  0.00  0.00    +0.000 C 
ATOM     18  C   UNL     1       2.435   4.298  19.634  0.00  0.00    +0.000 C 
BRANCH  18  19
ATOM     19  C   UNL     1       2.371   5.750  20.146  0.00  0.00    +0.000 C 
BRANCH  19  20
ATOM     20  N   UNL     1       2.661   6.725  19.118  0.00  0.00    +0.000 N 
ATOM     21  C   UNL     1       2.126   7.964  18.962  0.00  0.00    +0.000 A 
ATOM     22  N   UNL     1       2.663   8.546  17.914  0.00  0.00    +0.000 NA
ATOM     23  C   UNL     1       3.517   7.591  17.438  0.00  0.00    +0.000 A 
ATOM     24  N   UNL     1       3.555   6.460  18.145  0.00  0.00    +0.000 NA
ENDBRANCH  19  20
ENDBRANCH  18  19
ENDBRANCH  13  14
ENDBRANCH   2  13
TORSDOF 6
ENDMDL
MODEL 4
REMARK VINA RESULT:      -6.7      4.952      6.550
REMARK  Name = 
REMARK  8 active torsions:
REMARK  status: ('A' for Active; 'I' for Inactive)
REMARK    1  A    between atoms: C_1  and  C_2
REMARK    2  A    between atoms: C_2  and  C_3
REMARK    3  A    between atoms: C_2  and  C_4
REMARK    4  A    between atoms: C_6  and  N_7
REMARK    5  A    between atoms: C_8  and  C_10
REMARK    6  A    between atoms: C_10  and  N_11
REMARK    7  A    between atoms: C_15  and  C_16
REMARK    8  A    between atoms: C_16  and  N_17
REMARK                            x       y       z     vdW  Elec       q    Type
REMARK                         _______ _______ _______ _____ _____    ______ ____
ROOT
ATOM      1  N   UNL     1       7.757   8.884  17.543  0.00  0.00    +0.000 N 
ATOM      2  C   UNL     1       7.638   7.545  17.874  0.00  0.00    +0.000 C 
ATOM      3  O   UNL     1       8.307   6.951  18.718  0.00  0.00    +0.000 OA
ATOM      4  H   UNL     1       7.169   9.293  16.832  0.00  0.00    +0.000 HD
ENDROOT
BRANCH   1   7
ATOM      5  C   UNL     1      10.100  11.214  18.874  0.00  0.00    +0.000 A 
ATOM      6  C   UNL     1       9.418  10.740  17.726  0.00  0.00    +0.000 A 
ATOM      7  C   UNL     1       8.640   9.711  18.195  0.00  0.00    +0.000 A 
ATOM      8  O   UNL     1       8.839   9.580  19.533  0.00  0.00    +0.000 OA
ATOM      9  N   UNL     1       9.752  10.520  19.963  0.00  0.00    +0.000 NA
BRANCH   5  11
ATOM     10  C   UNL     1      12.225  11.989  19.946  0.00  0.00    +0.000 C 
ATOM     11  C   UNL     1      11.095  12.330  18.973  0.00  0.00    +0.000 C 
ATOM     12  C   UNL     1      11.658  12.702  17.599  0.00  0.00    +0.000 C 
ENDBRANCH   5  11
ENDBRANCH   1   7
BRANCH   2  13
ATOM     13  C   UNL     1       6.503   6.837  17.120  0.00  0.00    +0.000 C 
BRANCH  13  14
ATOM     14  N   UNL     1       6.432   5.418  17.522  0.00  0.00    +0.000 NA
ATOM     15  C   UNL     1       7.079   4.540  16.541  0.00  0.00    +0.000 C 
ATOM     16  C   UNL     1       5.963   4.136  15.602  0.00  0.00    +0.000 C 
ATOM     17  C   UNL     1       4.798   3.932  16.550  0.00  0.00    +0.000 C 
ATOM     18  C   UNL     1       5.041   4.920  17.699  0.00  0.00    +0.000 C 
BRANCH  18  19
ATOM     19  C   UNL     1       4.892   4.301  19.101  0.00  0.00    +0.000 C 
BRANCH  19  20
ATOM     20  N   UNL     1       3.632   4.626  19.732  0.00  0.00    +0.000 N 
ATOM     21  C   UNL     1       2.969   5.813  19.721  0.00  0.00    +0.000 A 
ATOM     22  N   UNL     1       1.850   5.696  20.399  0.00  0.00    +0.000 NA
ATOM     23  C   UNL     1       1.889   4.402  20.836  0.00  0.00    +0.000 A 
ATOM     24  N   UNL     1       2.959   3.704  20.449  0.00  0.00    +0.000 NA
ENDBRANCH  19  20
ENDBRANCH  18  19
ENDBRANCH  13  14
ENDBRANCH   2  13
TORSDOF 6
ENDMDL
MODEL 5
REMARK VINA RESULT:      -6.7      3.433      7.886
REMARK  Name = 
REMARK  8 active torsions:
REMARK  status: ('A' for Active; 'I' for Inactive)
REMARK    1  A    between atoms: C_1  and  C_2
REMARK    2  A    between atoms: C_2  and  C_3
REMARK    3  A    between atoms: C_2  and  C_4
REMARK    4  A    between atoms: C_6  and  N_7
REMARK    5  A    between atoms: C_8  and  C_10
REMARK    6  A    between atoms: C_10  and  N_11
REMARK    7  A    between atoms: C_15  and  C_16
REMARK    8  A    between atoms: C_16  and  N_17
REMARK                            x       y       z     vdW  Elec       q    Type
REMARK                         _______ _______ _______ _____ _____    ______ ____
ROOT
ATOM      1  N   UNL     1       1.598   7.081  20.968  0.00  0.00    +0.000 N 
ATOM      2  C   UNL     1       2.328   6.852  19.814  0.00  0.00    +0.000 C 
ATOM      3  O   UNL     1       2.563   7.680  18.935  0.00  0.00    +0.000 OA
ATOM      4  H   UNL     1       1.448   6.341  21.638  0.00  0.00    +0.000 HD
ENDROOT
BRANCH   1   7
ATOM      5  C   UNL     1       0.016  10.238  21.441  0.00  0.00    +0.000 A 
ATOM      6  C   UNL     1       0.068   9.036  20.692  0.00  0.00    +0.000 A 
ATOM      7  C   UNL     1       1.093   8.324  21.265  0.00  0.00    +0.000 A 
ATOM      8  O   UNL     1       1.616   9.048  22.289  0.00  0.00    +0.000 OA
ATOM      9  N   UNL     1       0.945  10.247  22.404  0.00  0.00    +0.000 NA
BRANCH   5  11
ATOM     10  C   UNL     1      -1.438  11.903  22.614  0.00  0.00    +0.000 C 
ATOM     11  C   UNL     1      -0.907  11.404  21.268  0.00  0.00    +0.000 C 
ATOM     12  C   UNL     1      -0.233  12.543  20.497  0.00  0.00    +0.000 C 
ENDBRANCH   5  11
ENDBRANCH   1   7
BRANCH   2  13
ATOM     13  C   UNL     1       2.911   5.433  19.742  0.00  0.00    +0.000 C 
BRANCH  13  14
ATOM     14  N   UNL     1       3.075   5.020  18.334  0.00  0.00    +0.000 NA
ATOM     15  C   UNL     1       1.821   4.514  17.765  0.00  0.00    +0.000 C 
ATOM     16  C   UNL     1       1.869   3.023  18.013  0.00  0.00    +0.000 C 
ATOM     17  C   UNL     1       3.324   2.694  17.743  0.00  0.00    +0.000 C 
ATOM     18  C   UNL     1       4.098   3.957  18.142  0.00  0.00    +0.000 C 
BRANCH  18  19
ATOM     19  C   UNL     1       5.128   4.420  17.094  0.00  0.00    +0.000 C 
BRANCH  19  20
ATOM     20  N   UNL     1       6.195   5.212  17.661  0.00  0.00    +0.000 N 
ATOM     21  C   UNL     1       6.643   6.430  17.256  0.00  0.00    +0.000 A 
ATOM     22  N   UNL     1       7.620   6.822  18.043  0.00  0.00    +0.000 NA
ATOM     23  C   UNL     1       7.752   5.777  18.913  0.00  0.00    +0.000 A 
ATOM     24  N   UNL     1       6.898   4.769  18.722  0.00  0.00    +0.000 NA
ENDBRANCH  19  20
ENDBRANCH  18  19
ENDBRANCH  13  14
ENDBRANCH   2  13
TORSDOF 6
ENDMDL
MODEL 6
REMARK VINA RESULT:      -6.6      1.188      1.445
REMARK  Name = 
REMARK  8 active torsions:
REMARK  status: ('A' for Active; 'I' for Inactive)
REMARK    1  A    between atoms: C_1  and  C_2
REMARK    2  A    between atoms: C_2  and  C_3
REMARK    3  A    between atoms: C_2  and  C_4
REMARK    4  A    between atoms: C_6  and  N_7
REMARK    5  A    between atoms: C_8  and  C_10
REMARK    6  A    between atoms: C_10  and  N_11
REMARK    7  A    between atoms: C_15  and  C_16
REMARK    8  A    between atoms: C_16  and  N_17
REMARK                            x       y       z     vdW  Elec       q    Type
REMARK                         _______ _______ _______ _____ _____    ______ ____
ROOT
ATOM      1  N   UNL     1       5.807   4.728  16.687  0.00  0.00    +0.000 N 
ATOM      2  C   UNL     1       5.765   5.990  17.253  0.00  0.00    +0.000 C 
ATOM      3  O   UNL     1       6.056   7.043  16.687  0.00  0.00    +0.000 OA
ATOM      4  H   UNL     1       5.556   3.912  17.225  0.00  0.00    +0.000 HD
ENDROOT
BRANCH   1   7
ATOM      5  C   UNL     1       6.334   4.042  13.231  0.00  0.00    +0.000 A 
ATOM      6  C   UNL     1       5.502   3.864  14.363  0.00  0.00    +0.000 A 
ATOM      7  C   UNL     1       6.146   4.542  15.368  0.00  0.00    +0.000 A 
ATOM      8  O   UNL     1       7.285   5.092  14.870  0.00  0.00    +0.000 OA
ATOM      9  N   UNL     1       7.407   4.783  13.532  0.00  0.00    +0.000 NA
BRANCH   5  11
ATOM     10  C   UNL     1       7.054   2.326  11.556  0.00  0.00    +0.000 C 
ATOM     11  C   UNL     1       6.141   3.521  11.840  0.00  0.00    +0.000 C 
ATOM     12  C   UNL     1       4.677   3.157  11.577  0.00  0.00    +0.000 C 
ENDBRANCH   5  11
ENDBRANCH   1   7
BRANCH   2  13
ATOM     13  C   UNL     1       5.235   5.986  18.694  0.00  0.00    +0.000 C 
BRANCH  13  14
ATOM     14  N   UNL     1       3.819   5.568  18.715  0.00  0.00    +0.000 NA
ATOM     15  C   UNL     1       2.990   6.411  17.847  0.00  0.00    +0.000 C 
ATOM     16  C   UNL     1       2.485   7.510  18.756  0.00  0.00    +0.000 C 
ATOM     17  C   UNL     1       2.192   6.760  20.041  0.00  0.00    +0.000 C 
ATOM     18  C   UNL     1       3.208   5.610  20.071  0.00  0.00    +0.000 C 
BRANCH  18  19
ATOM     19  C   UNL     1       2.590   4.237  20.397  0.00  0.00    +0.000 C 
BRANCH  19  20
ATOM     20  N   UNL     1       2.676   3.302  19.297  0.00  0.00    +0.000 N 
ATOM     21  C   UNL     1       1.759   3.066  18.323  0.00  0.00    +0.000 A 
ATOM     22  N   UNL     1       2.219   2.152  17.499  0.00  0.00    +0.000 NA
ATOM     23  C   UNL     1       3.434   1.836  18.039  0.00  0.00    +0.000 A 
ATOM     24  N   UNL     1       3.761   2.517  19.139  0.00  0.00    +0.000 NA
ENDBRANCH  19  20
ENDBRANCH  18  19
ENDBRANCH  13  14
ENDBRANCH   2  13
TORSDOF 6
ENDMDL
MODEL 7
REMARK VINA RESULT:      -6.6      1.421      3.357
REMARK  Name = 
REMARK  8 active torsions:
REMARK  status: ('A' for Active; 'I' for Inactive)
REMARK    1  A    between atoms: C_1  and  C_2
REMARK    2  A    between atoms: C_2  and  C_3
REMARK    3  A    between atoms: C_2  and  C_4
REMARK    4  A    between atoms: C_6  and  N_7
REMARK    5  A    between atoms: C_8  and  C_10
REMARK    6  A    between atoms: C_10  and  N_11
REMARK    7  A    between atoms: C_15  and  C_16
REMARK    8  A    between atoms: C_16  and  N_17
REMARK                            x       y       z     vdW  Elec       q    Type
REMARK                         _______ _______ _______ _____ _____    ______ ____
ROOT
ATOM      1  N   UNL     1       6.310   4.025  17.146  0.00  0.00    +0.000 N 
ATOM      2  C   UNL     1       5.540   4.925  17.863  0.00  0.00    +0.000 C 
ATOM      3  O   UNL     1       5.012   5.940  17.411  0.00  0.00    +0.000 OA
ATOM      4  H   UNL     1       6.711   3.216  17.597  0.00  0.00    +0.000 HD
ENDROOT
BRANCH   1   7
ATOM      5  C   UNL     1       6.549   4.136  13.593  0.00  0.00    +0.000 A 
ATOM      6  C   UNL     1       5.919   3.560  14.723  0.00  0.00    +0.000 A 
ATOM      7  C   UNL     1       6.519   4.172  15.796  0.00  0.00    +0.000 A 
ATOM      8  O   UNL     1       7.442   5.059  15.338  0.00  0.00    +0.000 OA
ATOM      9  N   UNL     1       7.465   5.041  13.960  0.00  0.00    +0.000 NA
BRANCH   5  11
ATOM     10  C   UNL     1       7.245   2.760  11.621  0.00  0.00    +0.000 C 
ATOM     11  C   UNL     1       6.306   3.851  12.143  0.00  0.00    +0.000 C 
ATOM     12  C   UNL     1       4.845   3.477  11.883  0.00  0.00    +0.000 C 
ENDBRANCH   5  11
ENDBRANCH   1   7
BRANCH   2  13
ATOM     13  C   UNL     1       5.323   4.503  19.323  0.00  0.00    +0.000 C 
BRANCH  13  14
ATOM     14  N   UNL     1       3.985   3.902  19.487  0.00  0.00    +0.000 NA
ATOM     15  C   UNL     1       4.059   2.558  20.073  0.00  0.00    +0.000 C 
ATOM     16  C   UNL     1       4.125   1.630  18.880  0.00  0.00    +0.000 C 
ATOM     17  C   UNL     1       3.153   2.274  17.911  0.00  0.00    +0.000 C 
ATOM     18  C   UNL     1       3.230   3.778  18.212  0.00  0.00    +0.000 C 
BRANCH  18  19
ATOM     19  C   UNL     1       1.856   4.458  18.361  0.00  0.00    +0.000 C 
BRANCH  19  20
ATOM     20  N   UNL     1       1.912   5.684  19.126  0.00  0.00    +0.000 N 
ATOM     21  C   UNL     1       2.283   6.921  18.703  0.00  0.00    +0.000 A 
ATOM     22  N   UNL     1       2.183   7.773  19.698  0.00  0.00    +0.000 NA
ATOM     23  C   UNL     1       1.766   6.987  20.735  0.00  0.00    +0.000 A 
ATOM     24  N   UNL     1       1.581   5.700  20.433  0.00  0.00    +0.000 NA
ENDBRANCH  19  20
ENDBRANCH  18  19
ENDBRANCH  13  14
ENDBRANCH   2  13
TORSDOF 6
ENDMDL
MODEL 8
REMARK VINA RESULT:      -6.6      0.827      1.061
REMARK  Name = 
REMARK  8 active torsions:
REMARK  status: ('A' for Active; 'I' for Inactive)
REMARK    1  A    between atoms: C_1  and  C_2
REMARK    2  A    between atoms: C_2  and  C_3
REMARK    3  A    between atoms: C_2  and  C_4
REMARK    4  A    between atoms: C_6  and  N_7
REMARK    5  A    between atoms: C_8  and  C_10
REMARK    6  A    between atoms: C_10  and  N_11
REMARK    7  A    between atoms: C_15  and  C_16
REMARK    8  A    between atoms: C_16  and  N_17
REMARK                            x       y       z     vdW  Elec       q    Type
REMARK                         _______ _______ _______ _____ _____    ______ ____
ROOT
ATOM      1  N   UNL     1       5.389   4.632  17.339  0.00  0.00    +0.000 N 
ATOM      2  C   UNL     1       5.720   5.617  18.253  0.00  0.00    +0.000 C 
ATOM      3  O   UNL     1       6.562   6.499  18.088  0.00  0.00    +0.000 OA
ATOM      4  H   UNL     1       4.686   3.941  17.557  0.00  0.00    +0.000 HD
ENDROOT
BRANCH   1   7
ATOM      5  C   UNL     1       6.602   4.228  14.014  0.00  0.00    +0.000 A 
ATOM      6  C   UNL     1       5.671   3.812  14.996  0.00  0.00    +0.000 A 
ATOM      7  C   UNL     1       5.966   4.585  16.092  0.00  0.00    +0.000 A 
ATOM      8  O   UNL     1       7.000   5.411  15.785  0.00  0.00    +0.000 OA
ATOM      9  N   UNL     1       7.402   5.192  14.484  0.00  0.00    +0.000 NA
BRANCH   5  11
ATOM     10  C   UNL     1       5.443   3.192  12.052  0.00  0.00    +0.000 C 
ATOM     11  C   UNL     1       6.762   3.730  12.610  0.00  0.00    +0.000 C 
ATOM     12  C   UNL     1       7.336   4.814  11.693  0.00  0.00    +0.000 C 
ENDBRANCH   5  11
ENDBRANCH   1   7
BRANCH   2  13
ATOM     13  C   UNL     1       4.865   5.568  19.528  0.00  0.00    +0.000 C 
BRANCH  13  14
ATOM     14  N   UNL     1       3.444   5.368  19.181  0.00  0.00    +0.000 NA
ATOM     15  C   UNL     1       2.879   6.540  18.503  0.00  0.00    +0.000 C 
ATOM     16  C   UNL     1       2.296   7.378  19.619  0.00  0.00    +0.000 C 
ATOM     17  C   UNL     1       1.690   6.330  20.531  0.00  0.00    +0.000 C 
ATOM     18  C   UNL     1       2.579   5.090  20.359  0.00  0.00    +0.000 C 
BRANCH  18  19
ATOM     19  C   UNL     1       1.796   3.784  20.124  0.00  0.00    +0.000 C 
BRANCH  19  20
ATOM     20  N   UNL     1       2.355   2.973  19.066  0.00  0.00    +0.000 N 
ATOM     21  C   UNL     1       3.389   2.094  19.138  0.00  0.00    +0.000 A 
ATOM     22  N   UNL     1       3.581   1.544  17.961  0.00  0.00    +0.000 NA
ATOM     23  C   UNL     1       2.639   2.153  17.181  0.00  0.00    +0.000 A 
ATOM     24  N   UNL     1       1.860   3.033  17.813  0.00  0.00    +0.000 NA
ENDBRANCH  19  20
ENDBRANCH  18  19
ENDBRANCH  13  14
ENDBRANCH   2  13
TORSDOF 6
ENDMDL
MODEL 9
REMARK VINA RESULT:      -6.6      3.495      8.020
REMARK  Name = 
REMARK  8 active torsions:
REMARK  status: ('A' for Active; 'I' for Inactive)
REMARK    1  A    between atoms: C_1  and  C_2
REMARK    2  A    between atoms: C_2  and  C_3
REMARK    3  A    between atoms: C_2  and  C_4
REMARK    4  A    between atoms: C_6  and  N_7
REMARK    5  A    between atoms: C_8  and  C_10
REMARK    6  A    between atoms: C_10  and  N_11
REMARK    7  A    between atoms: C_15  and  C_16
REMARK    8  A    between atoms: C_16  and  N_17
REMARK                            x       y       z     vdW  Elec       q    Type
REMARK                         _______ _______ _______ _____ _____    ______ ____
ROOT
ATOM      1  N   UNL     1       1.654   7.299  20.927  0.00  0.00    +0.000 N 
ATOM      2  C   UNL     1       2.299   7.065  19.725  0.00  0.00    +0.000 C 
ATOM      3  O   UNL     1       2.431   7.877  18.809  0.00  0.00    +0.000 OA
ATOM      4  H   UNL     1       1.586   6.574  21.625  0.00  0.00    +0.000 HD
ENDROOT
BRANCH   1   7
ATOM      5  C   UNL     1       0.073  10.460  21.372  0.00  0.00    +0.000 A 
ATOM      6  C   UNL     1       0.241   9.323  20.544  0.00  0.00    +0.000 A 
ATOM      7  C   UNL     1       1.126   8.530  21.233  0.00  0.00    +0.000 A 
ATOM      8  O   UNL     1       1.460   9.149  22.396  0.00  0.00    +0.000 OA
ATOM      9  N   UNL     1       0.803  10.357  22.489  0.00  0.00    +0.000 NA
BRANCH   5  11
ATOM     10  C   UNL     1      -1.566  11.552  19.827  0.00  0.00    +0.000 C 
ATOM     11  C   UNL     1      -0.779  11.669  21.134  0.00  0.00    +0.000 C 
ATOM     12  C   UNL     1      -1.721  11.932  22.311  0.00  0.00    +0.000 C 
ENDBRANCH   5  11
ENDBRANCH   1   7
BRANCH   2  13
ATOM     13  C   UNL     1       2.930   5.667  19.641  0.00  0.00    +0.000 C 
BRANCH  13  14
ATOM     14  N   UNL     1       3.080   5.260  18.230  0.00  0.00    +0.000 NA
ATOM     15  C   UNL     1       1.907   4.520  17.750  0.00  0.00    +0.000 C 
ATOM     16  C   UNL     1       2.244   3.068  18.011  0.00  0.00    +0.000 C 
ATOM     17  C   UNL     1       3.715   3.004  17.651  0.00  0.00    +0.000 C 
ATOM     18  C   UNL     1       4.267   4.397  17.985  0.00  0.00    +0.000 C 
BRANCH  18  19
ATOM     19  C   UNL     1       5.128   5.015  16.867  0.00  0.00    +0.000 C 
BRANCH  19  20
ATOM     20  N   UNL     1       6.200   5.844  17.372  0.00  0.00    +0.000 N 
ATOM     21  C   UNL     1       6.997   5.621  18.450  0.00  0.00    +0.000 A 
ATOM     22  N   UNL     1       7.862   6.602  18.568  0.00  0.00    +0.000 NA
ATOM     23  C   UNL     1       7.528   7.430  17.533  0.00  0.00    +0.000 A 
ATOM     24  N   UNL     1       6.519   7.006  16.769  0.00  0.00    +0.000 NA
ENDBRANCH  19  20
ENDBRANCH  18  19
ENDBRANCH  13  14
ENDBRANCH   2  13
TORSDOF 6
ENDMDL
