MODEL 1
REMARK VINA RESULT:      -8.1      0.000      0.000
REMARK  Name = 
REMARK  10 active torsions:
REMARK  status: ('A' for Active; 'I' for Inactive)
REMARK    1  A    between atoms: N_1  and  C_2
REMARK    2  A    between atoms: C_2  and  C_3
REMARK    3  A    between atoms: C_6  and  C_7
REMARK    4  A    between atoms: C_10  and  S_11
REMARK    5  A    between atoms: S_11  and  C_12
REMARK    6  A    between atoms: C_12  and  C_13
REMARK    7  A    between atoms: N_15  and  C_16
REMARK    8  A    between atoms: N_21  and  C_22
REMARK    9  A    between atoms: C_22  and  C_23
REMARK   10  A    between atoms: C_23  and  C_24
REMARK                            x       y       z     vdW  Elec       q    Type
REMARK                         _______ _______ _______ _____ _____    ______ ____
ROOT
ATOM      1  C   UNL     1       2.787   7.605  18.044  0.00  0.00    +0.000 A 
ATOM      2  N   UNL     1       2.421   8.693  17.332  0.00  0.00    +0.000 NA
ATOM      3  N   UNL     1       1.593   9.410  18.080  0.00  0.00    +0.000 NA
ATOM      4  C   UNL     1       1.466   8.779  19.267  0.00  0.00    +0.000 A 
ATOM      5  N   UNL     1       2.212   7.640  19.281  0.00  0.00    +0.000 N 
ENDROOT
BRANCH   1   9
ATOM      6  C   UNL     1       5.549   4.676  16.383  0.00  0.00    +0.000 A 
ATOM      7  C   UNL     1       4.269   4.295  16.813  0.00  0.00    +0.000 A 
ATOM      8  C   UNL     1       3.401   5.239  17.389  0.00  0.00    +0.000 A 
ATOM      9  C   UNL     1       3.786   6.590  17.528  0.00  0.00    +0.000 A 
ATOM     10  C   UNL     1       5.102   6.926  17.138  0.00  0.00    +0.000 A 
ATOM     11  C   UNL     1       5.966   5.990  16.580  0.00  0.00    +0.000 A 
BRANCH   6  12
ATOM     12  C   UNL     1       6.465   3.702  15.686  0.00  0.00    +0.000 C 
BRANCH  12  13
ATOM     13  N   UNL     1       6.277   3.807  14.242  0.00  0.00    +0.000 NA
ATOM     14  H   UNL     1       6.453   2.872  13.810  0.00  0.00    +0.000 HD
ATOM     15  H   UNL     1       6.987   4.472  13.852  0.00  0.00    +0.000 HD
ENDBRANCH  12  13
ENDBRANCH   6  12
ENDBRANCH   1   9
BRANCH   4  16
ATOM     16  S   UNL     1       0.452   9.413  20.644  0.00  0.00    +0.000 S 
BRANCH  16  17
ATOM     17  C   UNL     1       0.582  11.214  20.407  0.00  0.00    +0.000 C 
BRANCH  17  18
ATOM     18  C   UNL     1      -0.220  11.623  19.186  0.00  0.00    +0.000 C 
ATOM     19  O   UNL     1       0.064  12.665  18.612  0.00  0.00    +0.000 OA
ATOM     20  N   UNL     1      -1.250  10.846  18.733  0.00  0.00    +0.000 N 
ATOM     21  H   UNL     1      -1.449   9.961  19.222  0.00  0.00    +0.000 HD
BRANCH  20  22
ATOM     22  C   UNL     1      -2.080  11.214  17.592  0.00  0.00    +0.000 C 
ATOM     23  C   UNL     1      -2.266  10.066  16.595  0.00  0.00    +0.000 C 
ATOM     24  C   UNL     1      -3.378  10.608  15.708  0.00  0.00    +0.000 C 
ATOM     25  C   UNL     1      -4.311  11.373  16.662  0.00  0.00    +0.000 C 
ATOM     26  C   UNL     1      -3.536  11.467  17.984  0.00  0.00    +0.000 C 
ENDBRANCH  20  22
ENDBRANCH  17  18
ENDBRANCH  16  17
ENDBRANCH   4  16
BRANCH   5  27
ATOM     27  C   UNL     1       2.464   6.673  20.367  0.00  0.00    +0.000 C 
BRANCH  27  28
ATOM     28  C   UNL     1       1.354   5.678  20.703  0.00  0.00    +0.000 C 
BRANCH  28  29
ATOM     29  C   UNL     1       1.725   4.316  20.173  0.00  0.00    +0.000 A 
ATOM     30  C   UNL     1       2.967   3.741  20.499  0.00  0.00    +0.000 A 
ATOM     31  C   UNL     1       3.318   2.488  19.991  0.00  0.00    +0.000 A 
ATOM     32  C   UNL     1       2.434   1.801  19.156  0.00  0.00    +0.000 A 
ATOM     33  C   UNL     1       1.198   2.365  18.829  0.00  0.00    +0.000 A 
ATOM     34  C   UNL     1       0.841   3.616  19.338  0.00  0.00    +0.000 A 
ENDBRANCH  28  29
ENDBRANCH  27  28
ENDBRANCH   5  27
TORSDOF 10
ENDMDL
MODEL 2
REMARK VINA RESULT:      -7.8      2.266      3.055
REMARK  Name = 
REMARK  10 active torsions:
REMARK  status: ('A' for Active; 'I' for Inactive)
REMARK    1  A    between atoms: N_1  and  C_2
REMARK    2  A    between atoms: C_2  and  C_3
REMARK    3  A    between atoms: C_6  and  C_7
REMARK    4  A    between atoms: C_10  and  S_11
REMARK    5  A    between atoms: S_11  and  C_12
REMARK    6  A    between atoms: C_12  and  C_13
REMARK    7  A    between atoms: N_15  and  C_16
REMARK    8  A    between atoms: N_21  and  C_22
REMARK    9  A    between atoms: C_22  and  C_23
REMARK   10  A    between atoms: C_23  and  C_24
REMARK                            x       y       z     vdW  Elec       q    Type
REMARK                         _______ _______ _______ _____ _____    ______ ____
ROOT
ATOM      1  C   UNL     1       2.811   7.542  18.635  0.00  0.00    +0.000 A 
ATOM      2  N   UNL     1       2.534   8.739  18.074  0.00  0.00    +0.000 NA
ATOM      3  N   UNL     1       1.581   9.316  18.794  0.00  0.00    +0.000 NA
ATOM      4  C   UNL     1       1.287   8.488  19.819  0.00  0.00    +0.000 A 
ATOM      5  N   UNL     1       2.049   7.361  19.752  0.00  0.00    +0.000 N 
ENDROOT
BRANCH   1   9
ATOM      6  C   UNL     1       6.057   5.089  17.079  0.00  0.00    +0.000 A 
ATOM      7  C   UNL     1       5.161   5.733  16.211  0.00  0.00    +0.000 A 
ATOM      8  C   UNL     1       4.089   6.486  16.723  0.00  0.00    +0.000 A 
ATOM      9  C   UNL     1       3.903   6.630  18.115  0.00  0.00    +0.000 A 
ATOM     10  C   UNL     1       4.789   5.921  18.958  0.00  0.00    +0.000 A 
ATOM     11  C   UNL     1       5.841   5.165  18.452  0.00  0.00    +0.000 A 
BRANCH   6  12
ATOM     12  C   UNL     1       7.259   4.347  16.556  0.00  0.00    +0.000 C 
BRANCH  12  13
ATOM     13  N   UNL     1       8.190   4.098  17.653  0.00  0.00    +0.000 NA
ATOM     14  H   UNL     1       7.687   4.229  18.559  0.00  0.00    +0.000 HD
ATOM     15  H   UNL     1       8.960   4.808  17.615  0.00  0.00    +0.000 HD
ENDBRANCH  12  13
ENDBRANCH   6  12
ENDBRANCH   1   9
BRANCH   4  16
ATOM     16  S   UNL     1       0.055   8.873  21.106  0.00  0.00    +0.000 S 
BRANCH  16  17
ATOM     17  C   UNL     1      -0.678  10.416  20.473  0.00  0.00    +0.000 C 
BRANCH  17  18
ATOM     18  C   UNL     1       0.359  11.522  20.512  0.00  0.00    +0.000 C 
ATOM     19  O   UNL     1       0.818  11.866  21.591  0.00  0.00    +0.000 OA
ATOM     20  N   UNL     1       0.773  12.134  19.361  0.00  0.00    +0.000 N 
ATOM     21  H   UNL     1       0.385  11.805  18.463  0.00  0.00    +0.000 HD
BRANCH  20  22
ATOM     22  C   UNL     1       1.733  13.230  19.345  0.00  0.00    +0.000 C 
ATOM     23  C   UNL     1       2.761  13.107  18.215  0.00  0.00    +0.000 C 
ATOM     24  C   UNL     1       3.413  14.482  18.244  0.00  0.00    +0.000 C 
ATOM     25  C   UNL     1       2.269  15.459  18.563  0.00  0.00    +0.000 C 
ATOM     26  C   UNL     1       1.090  14.568  18.978  0.00  0.00    +0.000 C 
ENDBRANCH  20  22
ENDBRANCH  17  18
ENDBRANCH  16  17
ENDBRANCH   4  16
BRANCH   5  27
ATOM     27  C   UNL     1       2.152   6.218  20.679  0.00  0.00    +0.000 C 
BRANCH  27  28
ATOM     28  C   UNL     1       1.241   5.017  20.430  0.00  0.00    +0.000 C 
BRANCH  28  29
ATOM     29  C   UNL     1       1.957   4.018  19.558  0.00  0.00    +0.000 A 
ATOM     30  C   UNL     1       2.899   3.134  20.115  0.00  0.00    +0.000 A 
ATOM     31  C   UNL     1       3.576   2.222  19.303  0.00  0.00    +0.000 A 
ATOM     32  C   UNL     1       3.319   2.184  17.931  0.00  0.00    +0.000 A 
ATOM     33  C   UNL     1       2.383   3.058  17.369  0.00  0.00    +0.000 A 
ATOM     34  C   UNL     1       1.701   3.968  18.179  0.00  0.00    +0.000 A 
ENDBRANCH  28  29
ENDBRANCH  27  28
ENDBRANCH   5  27
TORSDOF 10
ENDMDL
MODEL 3
REMARK VINA RESULT:      -7.8      2.674      3.662
REMARK  Name = 
REMARK  10 active torsions:
REMARK  status: ('A' for Active; 'I' for Inactive)
REMARK    1  A    between atoms: N_1  and  C_2
REMARK    2  A    between atoms: C_2  and  C_3
REMARK    3  A    between atoms: C_6  and  C_7
REMARK    4  A    between atoms: C_10  and  S_11
REMARK    5  A    between atoms: S_11  and  C_12
REMARK    6  A    between atoms: C_12  and  C_13
REMARK    7  A    between atoms: N_15  and  C_16
REMARK    8  A    between atoms: N_21  and  C_22
REMARK    9  A    between atoms: C_22  and  C_23
REMARK   10  A    between atoms: C_23  and  C_24
REMARK                            x       y       z     vdW  Elec       q    Type
REMARK                         _______ _______ _______ _____ _____    ______ ____
ROOT
ATOM      1  C   UNL     1       2.803   7.675  18.256  0.00  0.00    +0.000 A 
ATOM      2  N   UNL     1       2.360   8.822  17.697  0.00  0.00    +0.000 NA
ATOM      3  N   UNL     1       1.479   9.366  18.525  0.00  0.00    +0.000 NA
ATOM      4  C   UNL     1       1.393   8.568  19.610  0.00  0.00    +0.000 A 
ATOM      5  N   UNL     1       2.221   7.495  19.476  0.00  0.00    +0.000 N 
ENDROOT
BRANCH   1   9
ATOM      6  C   UNL     1       5.966   5.171  16.614  0.00  0.00    +0.000 A 
ATOM      7  C   UNL     1       6.244   6.460  17.093  0.00  0.00    +0.000 A 
ATOM      8  C   UNL     1       5.209   7.278  17.580  0.00  0.00    +0.000 A 
ATOM      9  C   UNL     1       3.876   6.816  17.618  0.00  0.00    +0.000 A 
ATOM     10  C   UNL     1       3.623   5.536  17.074  0.00  0.00    +0.000 A 
ATOM     11  C   UNL     1       4.645   4.732  16.581  0.00  0.00    +0.000 A 
BRANCH   6  12
ATOM     12  C   UNL     1       7.068   4.246  16.165  0.00  0.00    +0.000 C 
BRANCH  12  13
ATOM     13  N   UNL     1       8.085   4.161  17.210  0.00  0.00    +0.000 NA
ATOM     14  H   UNL     1       8.756   3.398  16.965  0.00  0.00    +0.000 HD
ATOM     15  H   UNL     1       7.624   3.896  18.114  0.00  0.00    +0.000 HD
ENDBRANCH  12  13
ENDBRANCH   6  12
ENDBRANCH   1   9
BRANCH   4  16
ATOM     16  S   UNL     1       0.329   8.929  21.046  0.00  0.00    +0.000 S 
BRANCH  16  17
ATOM     17  C   UNL     1       0.236  10.747  20.997  0.00  0.00    +0.000 C 
BRANCH  17  18
ATOM     18  C   UNL     1      -0.405  11.256  22.274  0.00  0.00    +0.000 C 
ATOM     19  O   UNL     1      -0.265  10.613  23.304  0.00  0.00    +0.000 OA
ATOM     20  N   UNL     1      -1.134  12.413  22.279  0.00  0.00    +0.000 N 
ATOM     21  H   UNL     1      -1.213  12.947  21.400  0.00  0.00    +0.000 HD
BRANCH  20  22
ATOM     22  C   UNL     1      -1.807  12.923  23.467  0.00  0.00    +0.000 C 
ATOM     23  C   UNL     1      -1.990  14.444  23.442  0.00  0.00    +0.000 C 
ATOM     24  C   UNL     1      -2.952  14.656  24.601  0.00  0.00    +0.000 C 
ATOM     25  C   UNL     1      -3.906  13.451  24.553  0.00  0.00    +0.000 C 
ATOM     26  C   UNL     1      -3.267  12.478  23.551  0.00  0.00    +0.000 C 
ENDBRANCH  20  22
ENDBRANCH  17  18
ENDBRANCH  16  17
ENDBRANCH   4  16
BRANCH   5  27
ATOM     27  C   UNL     1       2.538   6.406  20.421  0.00  0.00    +0.000 C 
BRANCH  27  28
ATOM     28  C   UNL     1       1.553   5.242  20.520  0.00  0.00    +0.000 C 
BRANCH  28  29
ATOM     29  C   UNL     1       2.122   4.043  19.807  0.00  0.00    +0.000 A 
ATOM     30  C   UNL     1       1.345   3.338  18.869  0.00  0.00    +0.000 A 
ATOM     31  C   UNL     1       1.866   2.215  18.224  0.00  0.00    +0.000 A 
ATOM     32  C   UNL     1       3.166   1.787  18.508  0.00  0.00    +0.000 A 
ATOM     33  C   UNL     1       3.945   2.482  19.437  0.00  0.00    +0.000 A 
ATOM     34  C   UNL     1       3.428   3.608  20.081  0.00  0.00    +0.000 A 
ENDBRANCH  28  29
ENDBRANCH  27  28
ENDBRANCH   5  27
TORSDOF 10
ENDMDL
MODEL 4
REMARK VINA RESULT:      -7.8      2.561      3.440
REMARK  Name = 
REMARK  10 active torsions:
REMARK  status: ('A' for Active; 'I' for Inactive)
REMARK    1  A    between atoms: N_1  and  C_2
REMARK    2  A    between atoms: C_2  and  C_3
REMARK    3  A    between atoms: C_6  and  C_7
REMARK    4  A    between atoms: C_10  and  S_11
REMARK    5  A    between atoms: S_11  and  C_12
REMARK    6  A    between atoms: C_12  and  C_13
REMARK    7  A    between atoms: N_15  and  C_16
REMARK    8  A    between atoms: N_21  and  C_22
REMARK    9  A    between atoms: C_22  and  C_23
REMARK   10  A    between atoms: C_23  and  C_24
REMARK                            x       y       z     vdW  Elec       q    Type
REMARK                         _______ _______ _______ _____ _____    ______ ____
ROOT
ATOM      1  C   UNL     1       2.893   7.491  18.382  0.00  0.00    +0.000 A 
ATOM      2  N   UNL     1       2.463   8.677  17.899  0.00  0.00    +0.000 NA
ATOM      3  N   UNL     1       1.609   9.190  18.775  0.00  0.00    +0.000 NA
ATOM      4  C   UNL     1       1.530   8.333  19.815  0.00  0.00    +0.000 A 
ATOM      5  N   UNL     1       2.332   7.253  19.603  0.00  0.00    +0.000 N 
ENDROOT
BRANCH   1   9
ATOM      6  C   UNL     1       5.783   5.100  16.169  0.00  0.00    +0.000 A 
ATOM      7  C   UNL     1       4.510   4.593  16.471  0.00  0.00    +0.000 A 
ATOM      8  C   UNL     1       3.600   5.355  17.225  0.00  0.00    +0.000 A 
ATOM      9  C   UNL     1       3.935   6.650  17.675  0.00  0.00    +0.000 A 
ATOM     10  C   UNL     1       5.246   7.106  17.403  0.00  0.00    +0.000 A 
ATOM     11  C   UNL     1       6.151   6.347  16.669  0.00  0.00    +0.000 A 
BRANCH   6  12
ATOM     12  C   UNL     1       6.744   4.338  15.294  0.00  0.00    +0.000 C 
BRANCH  12  13
ATOM     13  N   UNL     1       7.740   5.258  14.751  0.00  0.00    +0.000 NA
ATOM     14  H   UNL     1       8.052   4.906  13.818  0.00  0.00    +0.000 HD
ATOM     15  H   UNL     1       8.578   5.264  15.381  0.00  0.00    +0.000 HD
ENDBRANCH  12  13
ENDBRANCH   6  12
ENDBRANCH   1   9
BRANCH   4  16
ATOM     16  S   UNL     1       0.502   8.631  21.292  0.00  0.00    +0.000 S 
BRANCH  16  17
ATOM     17  C   UNL     1      -0.291  10.218  20.882  0.00  0.00    +0.000 C 
BRANCH  17  18
ATOM     18  C   UNL     1      -0.640  10.955  22.161  0.00  0.00    +0.000 C 
ATOM     19  O   UNL     1      -0.276  10.488  23.231  0.00  0.00    +0.000 OA
ATOM     20  N   UNL     1      -1.356  12.120  22.126  0.00  0.00    +0.000 N 
ATOM     21  H   UNL     1      -1.626  12.501  21.207  0.00  0.00    +0.000 HD
BRANCH  20  22
ATOM     22  C   UNL     1      -1.755  12.844  23.326  0.00  0.00    +0.000 C 
ATOM     23  C   UNL     1      -1.101  14.226  23.434  0.00  0.00    +0.000 C 
ATOM     24  C   UNL     1      -1.901  14.855  24.566  0.00  0.00    +0.000 C 
ATOM     25  C   UNL     1      -3.341  14.352  24.364  0.00  0.00    +0.000 C 
ATOM     26  C   UNL     1      -3.230  13.245  23.305  0.00  0.00    +0.000 C 
ENDBRANCH  20  22
ENDBRANCH  17  18
ENDBRANCH  16  17
ENDBRANCH   4  16
BRANCH   5  27
ATOM     27  C   UNL     1       2.646   6.106  20.477  0.00  0.00    +0.000 C 
BRANCH  27  28
ATOM     28  C   UNL     1       1.640   4.958  20.531  0.00  0.00    +0.000 C 
BRANCH  28  29
ATOM     29  C   UNL     1       2.216   3.753  19.832  0.00  0.00    +0.000 A 
ATOM     30  C   UNL     1       3.486   3.264  20.190  0.00  0.00    +0.000 A 
ATOM     31  C   UNL     1       4.027   2.160  19.528  0.00  0.00    +0.000 A 
ATOM     32  C   UNL     1       3.308   1.536  18.506  0.00  0.00    +0.000 A 
ATOM     33  C   UNL     1       2.045   2.015  18.145  0.00  0.00    +0.000 A 
ATOM     34  C   UNL     1       1.498   3.117  18.808  0.00  0.00    +0.000 A 
ENDBRANCH  28  29
ENDBRANCH  27  28
ENDBRANCH   5  27
TORSDOF 10
ENDMDL
MODEL 5
REMARK VINA RESULT:      -7.7      2.799      3.486
REMARK  Name = 
REMARK  10 active torsions:
REMARK  status: ('A' for Active; 'I' for Inactive)
REMARK    1  A    between atoms: N_1  and  C_2
REMARK    2  A    between atoms: C_2  and  C_3
REMARK    3  A    between atoms: C_6  and  C_7
REMARK    4  A    between atoms: C_10  and  S_11
REMARK    5  A    between atoms: S_11  and  C_12
REMARK    6  A    between atoms: C_12  and  C_13
REMARK    7  A    between atoms: N_15  and  C_16
REMARK    8  A    between atoms: N_21  and  C_22
REMARK    9  A    between atoms: C_22  and  C_23
REMARK   10  A    between atoms: C_23  and  C_24
REMARK                            x       y       z     vdW  Elec       q    Type
REMARK                         _______ _______ _______ _____ _____    ______ ____
ROOT
ATOM      1  C   UNL     1       2.609   7.236  19.116  0.00  0.00    +0.000 A 
ATOM      2  N   UNL     1       2.343   8.504  18.732  0.00  0.00    +0.000 NA
ATOM      3  N   UNL     1       1.387   8.976  19.520  0.00  0.00    +0.000 NA
ATOM      4  C   UNL     1       1.077   8.010  20.410  0.00  0.00    +0.000 A 
ATOM      5  N   UNL     1       1.835   6.900  20.187  0.00  0.00    +0.000 N 
ENDROOT
BRANCH   1   9
ATOM      6  C   UNL     1       5.837   5.015  17.214  0.00  0.00    +0.000 A 
ATOM      7  C   UNL     1       4.811   5.591  16.449  0.00  0.00    +0.000 A 
ATOM      8  C   UNL     1       3.750   6.268  17.075  0.00  0.00    +0.000 A 
ATOM      9  C   UNL     1       3.702   6.403  18.479  0.00  0.00    +0.000 A 
ATOM     10  C   UNL     1       4.720   5.761  19.221  0.00  0.00    +0.000 A 
ATOM     11  C   UNL     1       5.764   5.080  18.603  0.00  0.00    +0.000 A 
BRANCH   6  12
ATOM     12  C   UNL     1       7.027   4.358  16.564  0.00  0.00    +0.000 C 
BRANCH  12  13
ATOM     13  N   UNL     1       6.570   3.473  15.496  0.00  0.00    +0.000 NA
ATOM     14  H   UNL     1       6.475   4.028  14.615  0.00  0.00    +0.000 HD
ATOM     15  H   UNL     1       5.619   3.107  15.741  0.00  0.00    +0.000 HD
ENDBRANCH  12  13
ENDBRANCH   6  12
ENDBRANCH   1   9
BRANCH   4  16
ATOM     16  S   UNL     1      -0.166   8.212  21.728  0.00  0.00    +0.000 S 
BRANCH  16  17
ATOM     17  C   UNL     1       0.447   9.691  22.597  0.00  0.00    +0.000 C 
BRANCH  17  18
ATOM     18  C   UNL     1      -0.458  10.869  22.291  0.00  0.00    +0.000 C 
ATOM     19  O   UNL     1      -0.361  11.425  21.207  0.00  0.00    +0.000 OA
ATOM     20  N   UNL     1      -1.366  11.312  23.213  0.00  0.00    +0.000 N 
ATOM     21  H   UNL     1      -1.443  10.807  24.109  0.00  0.00    +0.000 HD
BRANCH  20  22
ATOM     22  C   UNL     1      -2.229  12.465  22.987  0.00  0.00    +0.000 C 
ATOM     23  C   UNL     1      -3.528  12.407  23.798  0.00  0.00    +0.000 C 
ATOM     24  C   UNL     1      -4.065  13.820  23.617  0.00  0.00    +0.000 C 
ATOM     25  C   UNL     1      -2.822  14.724  23.631  0.00  0.00    +0.000 C 
ATOM     26  C   UNL     1      -1.629  13.761  23.533  0.00  0.00    +0.000 C 
ENDBRANCH  20  22
ENDBRANCH  17  18
ENDBRANCH  16  17
ENDBRANCH   4  16
BRANCH   5  27
ATOM     27  C   UNL     1       1.923   5.634  20.940  0.00  0.00    +0.000 C 
BRANCH  27  28
ATOM     28  C   UNL     1       1.087   4.454  20.446  0.00  0.00    +0.000 C 
BRANCH  28  29
ATOM     29  C   UNL     1       1.935   3.573  19.566  0.00  0.00    +0.000 A 
ATOM     30  C   UNL     1       1.670   3.478  18.187  0.00  0.00    +0.000 A 
ATOM     31  C   UNL     1       2.444   2.645  17.377  0.00  0.00    +0.000 A 
ATOM     32  C   UNL     1       3.488   1.902  17.933  0.00  0.00    +0.000 A 
ATOM     33  C   UNL     1       3.759   1.992  19.301  0.00  0.00    +0.000 A 
ATOM     34  C   UNL     1       2.989   2.827  20.115  0.00  0.00    +0.000 A 
ENDBRANCH  28  29
ENDBRANCH  27  28
ENDBRANCH   5  27
TORSDOF 10
ENDMDL
MODEL 6
REMARK VINA RESULT:      -7.6      1.963      3.085
REMARK  Name = 
REMARK  10 active torsions:
REMARK  status: ('A' for Active; 'I' for Inactive)
REMARK    1  A    between atoms: N_1  and  C_2
REMARK    2  A    between atoms: C_2  and  C_3
REMARK    3  A    between atoms: C_6  and  C_7
REMARK    4  A    between atoms: C_10  and  S_11
REMARK    5  A    between atoms: S_11  and  C_12
REMARK    6  A    between atoms: C_12  and  C_13
REMARK    7  A    between atoms: N_15  and  C_16
REMARK    8  A    between atoms: N_21  and  C_22
REMARK    9  A    between atoms: C_22  and  C_23
REMARK   10  A    between atoms: C_23  and  C_24
REMARK                            x       y       z     vdW  Elec       q    Type
REMARK                         _______ _______ _______ _____ _____    ______ ____
ROOT
ATOM      1  C   UNL     1       2.839   7.558  18.079  0.00  0.00    +0.000 A 
ATOM      2  N   UNL     1       2.423   8.647  17.396  0.00  0.00    +0.000 NA
ATOM      3  N   UNL     1       1.580   9.317  18.171  0.00  0.00    +0.000 NA
ATOM      4  C   UNL     1       1.494   8.657  19.345  0.00  0.00    +0.000 A 
ATOM      5  N   UNL     1       2.281   7.545  19.323  0.00  0.00    +0.000 N 
ENDROOT
BRANCH   1   9
ATOM      6  C   UNL     1       5.688   4.778  16.311  0.00  0.00    +0.000 A 
ATOM      7  C   UNL     1       4.405   4.352  16.687  0.00  0.00    +0.000 A 
ATOM      8  C   UNL     1       3.507   5.246  17.298  0.00  0.00    +0.000 A 
ATOM      9  C   UNL     1       3.866   6.592  17.527  0.00  0.00    +0.000 A 
ATOM     10  C   UNL     1       5.186   6.971  17.190  0.00  0.00    +0.000 A 
ATOM     11  C   UNL     1       6.078   6.084  16.597  0.00  0.00    +0.000 A 
BRANCH   6  12
ATOM     12  C   UNL     1       6.636   3.863  15.580  0.00  0.00    +0.000 C 
BRANCH  12  13
ATOM     13  N   UNL     1       6.204   3.725  14.192  0.00  0.00    +0.000 NA
ATOM     14  H   UNL     1       5.324   4.273  14.057  0.00  0.00    +0.000 HD
ATOM     15  H   UNL     1       5.979   2.718  14.003  0.00  0.00    +0.000 HD
ENDBRANCH  12  13
ENDBRANCH   6  12
ENDBRANCH   1   9
BRANCH   4  16
ATOM     16  S   UNL     1       0.477   9.223  20.749  0.00  0.00    +0.000 S 
BRANCH  16  17
ATOM     17  C   UNL     1      -0.267  10.746  20.082  0.00  0.00    +0.000 C 
BRANCH  17  18
ATOM     18  C   UNL     1       0.729  11.885  20.190  0.00  0.00    +0.000 C 
ATOM     19  O   UNL     1       1.421  11.974  21.194  0.00  0.00    +0.000 OA
ATOM     20  N   UNL     1       0.851  12.805  19.186  0.00  0.00    +0.000 N 
ATOM     21  H   UNL     1       0.272  12.689  18.340  0.00  0.00    +0.000 HD
BRANCH  20  22
ATOM     22  C   UNL     1       1.760  13.943  19.257  0.00  0.00    +0.000 C 
ATOM     23  C   UNL     1       2.881  13.877  18.214  0.00  0.00    +0.000 C 
ATOM     24  C   UNL     1       3.467  15.278  18.306  0.00  0.00    +0.000 C 
ATOM     25  C   UNL     1       2.258  16.201  18.537  0.00  0.00    +0.000 C 
ATOM     26  C   UNL     1       1.090  15.255  18.847  0.00  0.00    +0.000 C 
ENDBRANCH  20  22
ENDBRANCH  17  18
ENDBRANCH  16  17
ENDBRANCH   4  16
BRANCH   5  27
ATOM     27  C   UNL     1       2.584   6.565  20.384  0.00  0.00    +0.000 C 
BRANCH  27  28
ATOM     28  C   UNL     1       1.506   5.539  20.731  0.00  0.00    +0.000 C 
BRANCH  28  29
ATOM     29  C   UNL     1       1.852   4.216  20.096  0.00  0.00    +0.000 A 
ATOM     30  C   UNL     1       0.912   3.547  19.291  0.00  0.00    +0.000 A 
ATOM     31  C   UNL     1       1.226   2.312  18.720  0.00  0.00    +0.000 A 
ATOM     32  C   UNL     1       2.479   1.736  18.948  0.00  0.00    +0.000 A 
ATOM     33  C   UNL     1       3.418   2.394  19.745  0.00  0.00    +0.000 A 
ATOM     34  C   UNL     1       3.109   3.632  20.315  0.00  0.00    +0.000 A 
ENDBRANCH  28  29
ENDBRANCH  27  28
ENDBRANCH   5  27
TORSDOF 10
ENDMDL
MODEL 7
REMARK VINA RESULT:      -7.5      2.866      7.756
REMARK  Name = 
REMARK  10 active torsions:
REMARK  status: ('A' for Active; 'I' for Inactive)
REMARK    1  A    between atoms: N_1  and  C_2
REMARK    2  A    between atoms: C_2  and  C_3
REMARK    3  A    between atoms: C_6  and  C_7
REMARK    4  A    between atoms: C_10  and  S_11
REMARK    5  A    between atoms: S_11  and  C_12
REMARK    6  A    between atoms: C_12  and  C_13
REMARK    7  A    between atoms: N_15  and  C_16
REMARK    8  A    between atoms: N_21  and  C_22
REMARK    9  A    between atoms: C_22  and  C_23
REMARK   10  A    between atoms: C_23  and  C_24
REMARK                            x       y       z     vdW  Elec       q    Type
REMARK                         _______ _______ _______ _____ _____    ______ ____
ROOT
ATOM      1  C   UNL     1       2.384   8.188  18.325  0.00  0.00    +0.000 A 
ATOM      2  N   UNL     1       3.013   8.151  17.130  0.00  0.00    +0.000 NA
ATOM      3  N   UNL     1       3.875   7.143  17.154  0.00  0.00    +0.000 NA
ATOM      4  C   UNL     1       3.761   6.538  18.356  0.00  0.00    +0.000 A 
ATOM      5  N   UNL     1       2.825   7.168  19.117  0.00  0.00    +0.000 N 
ENDROOT
BRANCH   1   9
ATOM      6  C   UNL     1      -0.929  10.864  19.236  0.00  0.00    +0.000 A 
ATOM      7  C   UNL     1      -0.839  10.229  17.988  0.00  0.00    +0.000 A 
ATOM      8  C   UNL     1       0.258   9.402  17.686  0.00  0.00    +0.000 A 
ATOM      9  C   UNL     1       1.278   9.175  18.636  0.00  0.00    +0.000 A 
ATOM     10  C   UNL     1       1.185   9.876  19.859  0.00  0.00    +0.000 A 
ATOM     11  C   UNL     1       0.106  10.704  20.153  0.00  0.00    +0.000 A 
BRANCH   6  12
ATOM     12  C   UNL     1      -2.135  11.687  19.612  0.00  0.00    +0.000 C 
BRANCH  12  13
ATOM     13  N   UNL     1      -2.790  12.170  18.400  0.00  0.00    +0.000 NA
ATOM     14  H   UNL     1      -2.330  13.058  18.099  0.00  0.00    +0.000 HD
ATOM     15  H   UNL     1      -3.791  12.393  18.619  0.00  0.00    +0.000 HD
ENDBRANCH  12  13
ENDBRANCH   6  12
ENDBRANCH   1   9
BRANCH   4  16
ATOM     16  S   UNL     1       4.725   5.068  18.840  0.00  0.00    +0.000 S 
BRANCH  16  17
ATOM     17  C   UNL     1       6.425   5.585  18.440  0.00  0.00    +0.000 C 
BRANCH  17  18
ATOM     18  C   UNL     1       6.891   4.866  17.189  0.00  0.00    +0.000 C 
ATOM     19  O   UNL     1       7.982   4.314  17.194  0.00  0.00    +0.000 OA
ATOM     20  N   UNL     1       6.111   4.838  16.065  0.00  0.00    +0.000 N 
ATOM     21  H   UNL     1       5.185   5.291  16.100  0.00  0.00    +0.000 HD
BRANCH  20  22
ATOM     22  C   UNL     1       6.529   4.200  14.824  0.00  0.00    +0.000 C 
ATOM     23  C   UNL     1       5.356   3.887  13.889  0.00  0.00    +0.000 C 
ATOM     24  C   UNL     1       6.080   3.530  12.599  0.00  0.00    +0.000 C 
ATOM     25  C   UNL     1       7.284   4.484  12.540  0.00  0.00    +0.000 C 
ATOM     26  C   UNL     1       7.343   5.136  13.929  0.00  0.00    +0.000 C 
ENDBRANCH  20  22
ENDBRANCH  17  18
ENDBRANCH  16  17
ENDBRANCH   4  16
BRANCH   5  27
ATOM     27  C   UNL     1       2.291   6.832  20.451  0.00  0.00    +0.000 C 
BRANCH  27  28
ATOM     28  C   UNL     1       1.023   5.981  20.514  0.00  0.00    +0.000 C 
BRANCH  28  29
ATOM     29  C   UNL     1       1.390   4.525  20.382  0.00  0.00    +0.000 A 
ATOM     30  C   UNL     1       1.041   3.806  19.225  0.00  0.00    +0.000 A 
ATOM     31  C   UNL     1       1.364   2.452  19.113  0.00  0.00    +0.000 A 
ATOM     32  C   UNL     1       2.037   1.806  20.152  0.00  0.00    +0.000 A 
ATOM     33  C   UNL     1       2.389   2.514  21.305  0.00  0.00    +0.000 A 
ATOM     34  C   UNL     1       2.072   3.869  21.420  0.00  0.00    +0.000 A 
ENDBRANCH  28  29
ENDBRANCH  27  28
ENDBRANCH   5  27
TORSDOF 10
ENDMDL
MODEL 8
REMARK VINA RESULT:      -7.5      2.364      3.370
REMARK  Name = 
REMARK  10 active torsions:
REMARK  status: ('A' for Active; 'I' for Inactive)
REMARK    1  A    between atoms: N_1  and  C_2
REMARK    2  A    between atoms: C_2  and  C_3
REMARK    3  A    between atoms: C_6  and  C_7
REMARK    4  A    between atoms: C_10  and  S_11
REMARK    5  A    between atoms: S_11  and  C_12
REMARK    6  A    between atoms: C_12  and  C_13
REMARK    7  A    between atoms: N_15  and  C_16
REMARK    8  A    between atoms: N_21  and  C_22
REMARK    9  A    between atoms: C_22  and  C_23
REMARK   10  A    between atoms: C_23  and  C_24
REMARK                            x       y       z     vdW  Elec       q    Type
REMARK                         _______ _______ _______ _____ _____    ______ ____
ROOT
ATOM      1  C   UNL     1       2.657   7.675  18.134  0.00  0.00    +0.000 A 
ATOM      2  N   UNL     1       2.215   8.802  17.533  0.00  0.00    +0.000 NA
ATOM      3  N   UNL     1       1.432   9.441  18.391  0.00  0.00    +0.000 NA
ATOM      4  C   UNL     1       1.408   8.724  19.534  0.00  0.00    +0.000 A 
ATOM      5  N   UNL     1       2.176   7.606  19.409  0.00  0.00    +0.000 N 
ENDROOT
BRANCH   1   9
ATOM      6  C   UNL     1       5.591   4.965  16.397  0.00  0.00    +0.000 A 
ATOM      7  C   UNL     1       5.835   6.346  16.460  0.00  0.00    +0.000 A 
ATOM      8  C   UNL     1       4.863   7.218  16.981  0.00  0.00    +0.000 A 
ATOM      9  C   UNL     1       3.634   6.726  17.472  0.00  0.00    +0.000 A 
ATOM     10  C   UNL     1       3.399   5.339  17.339  0.00  0.00    +0.000 A 
ATOM     11  C   UNL     1       4.355   4.477  16.812  0.00  0.00    +0.000 A 
BRANCH   6  12
ATOM     12  C   UNL     1       6.649   4.003  15.921  0.00  0.00    +0.000 C 
BRANCH  12  13
ATOM     13  N   UNL     1       6.341   3.580  14.557  0.00  0.00    +0.000 NA
ATOM     14  H   UNL     1       6.324   4.423  13.939  0.00  0.00    +0.000 HD
ATOM     15  H   UNL     1       5.382   3.157  14.539  0.00  0.00    +0.000 HD
ENDBRANCH  12  13
ENDBRANCH   6  12
ENDBRANCH   1   9
BRANCH   4  16
ATOM     16  S   UNL     1       0.489   9.230  21.025  0.00  0.00    +0.000 S 
BRANCH  16  17
ATOM     17  C   UNL     1       0.768  11.030  21.044  0.00  0.00    +0.000 C 
BRANCH  17  18
ATOM     18  C   UNL     1      -0.544  11.743  21.313  0.00  0.00    +0.000 C 
ATOM     19  O   UNL     1      -1.360  11.842  20.409  0.00  0.00    +0.000 OA
ATOM     20  N   UNL     1      -0.812  12.274  22.545  0.00  0.00    +0.000 N 
ATOM     21  H   UNL     1      -0.115  12.151  23.295  0.00  0.00    +0.000 HD
BRANCH  20  22
ATOM     22  C   UNL     1      -2.036  13.006  22.845  0.00  0.00    +0.000 C 
ATOM     23  C   UNL     1      -3.074  12.156  23.585  0.00  0.00    +0.000 C 
ATOM     24  C   UNL     1      -4.077  13.212  24.027  0.00  0.00    +0.000 C 
ATOM     25  C   UNL     1      -3.227  14.441  24.391  0.00  0.00    +0.000 C 
ATOM     26  C   UNL     1      -1.818  14.117  23.871  0.00  0.00    +0.000 C 
ENDBRANCH  20  22
ENDBRANCH  17  18
ENDBRANCH  16  17
ENDBRANCH   4  16
BRANCH   5  27
ATOM     27  C   UNL     1       2.530   6.570  20.399  0.00  0.00    +0.000 C 
BRANCH  27  28
ATOM     28  C   UNL     1       1.462   5.538  20.759  0.00  0.00    +0.000 C 
BRANCH  28  29
ATOM     29  C   UNL     1       1.806   4.217  20.121  0.00  0.00    +0.000 A 
ATOM     30  C   UNL     1       0.880   3.568  19.284  0.00  0.00    +0.000 A 
ATOM     31  C   UNL     1       1.192   2.334  18.710  0.00  0.00    +0.000 A 
ATOM     32  C   UNL     1       2.431   1.739  18.965  0.00  0.00    +0.000 A 
ATOM     33  C   UNL     1       3.357   2.378  19.793  0.00  0.00    +0.000 A 
ATOM     34  C   UNL     1       3.050   3.615  20.366  0.00  0.00    +0.000 A 
ENDBRANCH  28  29
ENDBRANCH  27  28
ENDBRANCH   5  27
TORSDOF 10
ENDMDL
MODEL 9
REMARK VINA RESULT:      -7.4      2.310      3.064
REMARK  Name = 
REMARK  10 active torsions:
REMARK  status: ('A' for Active; 'I' for Inactive)
REMARK    1  A    between atoms: N_1  and  C_2
REMARK    2  A    between atoms: C_2  and  C_3
REMARK    3  A    between atoms: C_6  and  C_7
REMARK    4  A    between atoms: C_10  and  S_11
REMARK    5  A    between atoms: S_11  and  C_12
REMARK    6  A    between atoms: C_12  and  C_13
REMARK    7  A    between atoms: N_15  and  C_16
REMARK    8  A    between atoms: N_21  and  C_22
REMARK    9  A    between atoms: C_22  and  C_23
REMARK   10  A    between atoms: C_23  and  C_24
REMARK                            x       y       z     vdW  Elec       q    Type
REMARK                         _______ _______ _______ _____ _____    ______ ____
ROOT
ATOM      1  C   UNL     1       2.833   7.796  18.045  0.00  0.00    +0.000 A 
ATOM      2  N   UNL     1       2.441   8.866  17.321  0.00  0.00    +0.000 NA
ATOM      3  N   UNL     1       1.540   9.532  18.031  0.00  0.00    +0.000 NA
ATOM      4  C   UNL     1       1.394   8.888  19.209  0.00  0.00    +0.000 A 
ATOM      5  N   UNL     1       2.200   7.791  19.254  0.00  0.00    +0.000 N 
ENDROOT
BRANCH   1   9
ATOM      6  C   UNL     1       5.850   5.063  16.496  0.00  0.00    +0.000 A 
ATOM      7  C   UNL     1       4.518   4.650  16.655  0.00  0.00    +0.000 A 
ATOM      8  C   UNL     1       3.561   5.525  17.198  0.00  0.00    +0.000 A 
ATOM      9  C   UNL     1       3.910   6.840  17.574  0.00  0.00    +0.000 A 
ATOM     10  C   UNL     1       5.271   7.203  17.454  0.00  0.00    +0.000 A 
ATOM     11  C   UNL     1       6.221   6.333  16.928  0.00  0.00    +0.000 A 
BRANCH   6  12
ATOM     12  C   UNL     1       6.874   4.173  15.839  0.00  0.00    +0.000 C 
BRANCH  12  13
ATOM     13  N   UNL     1       6.247   3.436  14.746  0.00  0.00    +0.000 NA
ATOM     14  H   UNL     1       6.166   4.066  13.917  0.00  0.00    +0.000 HD
ATOM     15  H   UNL     1       5.275   3.164  15.030  0.00  0.00    +0.000 HD
ENDBRANCH  12  13
ENDBRANCH   6  12
ENDBRANCH   1   9
BRANCH   4  16
ATOM     16  S   UNL     1       0.283   9.457  20.538  0.00  0.00    +0.000 S 
BRANCH  16  17
ATOM     17  C   UNL     1      -0.092  11.159  20.010  0.00  0.00    +0.000 C 
BRANCH  17  18
ATOM     18  C   UNL     1      -0.624  11.950  21.191  0.00  0.00    +0.000 C 
ATOM     19  O   UNL     1       0.157  12.327  22.052  0.00  0.00    +0.000 OA
ATOM     20  N   UNL     1      -1.958  12.233  21.299  0.00  0.00    +0.000 N 
ATOM     21  H   UNL     1      -2.589  11.924  20.544  0.00  0.00    +0.000 HD
BRANCH  20  22
ATOM     22  C   UNL     1      -2.528  12.950  22.433  0.00  0.00    +0.000 C 
ATOM     23  C   UNL     1      -3.850  13.647  22.095  0.00  0.00    +0.000 C 
ATOM     24  C   UNL     1      -4.354  14.035  23.478  0.00  0.00    +0.000 C 
ATOM     25  C   UNL     1      -3.950  12.866  24.392  0.00  0.00    +0.000 C 
ATOM     26  C   UNL     1      -2.995  12.012  23.545  0.00  0.00    +0.000 C 
ENDBRANCH  20  22
ENDBRANCH  17  18
ENDBRANCH  16  17
ENDBRANCH   4  16
BRANCH   5  27
ATOM     27  C   UNL     1       2.454   6.834  20.347  0.00  0.00    +0.000 C 
BRANCH  27  28
ATOM     28  C   UNL     1       1.398   5.762  20.612  0.00  0.00    +0.000 C 
BRANCH  28  29
ATOM     29  C   UNL     1       1.859   4.450  20.031  0.00  0.00    +0.000 A 
ATOM     30  C   UNL     1       0.996   3.686  19.224  0.00  0.00    +0.000 A 
ATOM     31  C   UNL     1       1.417   2.461  18.704  0.00  0.00    +0.000 A 
ATOM     32  C   UNL     1       2.702   1.989  18.983  0.00  0.00    +0.000 A 
ATOM     33  C   UNL     1       3.567   2.742  19.782  0.00  0.00    +0.000 A 
ATOM     34  C   UNL     1       3.150   3.970  20.302  0.00  0.00    +0.000 A 
ENDBRANCH  28  29
ENDBRANCH  27  28
ENDBRANCH   5  27
TORSDOF 10
ENDMDL
