MODEL 1
REMARK VINA RESULT:      -8.7      0.000      0.000
REMARK  Name = 
REMARK  6 active torsions:
REMARK  status: ('A' for Active; 'I' for Inactive)
REMARK    1  A    between atoms: C_1  and  N_2
REMARK    2  A    between atoms: N_2  and  C_29
REMARK    3  A    between atoms: C_3  and  C_5
REMARK    4  A    between atoms: C_13  and  C_14
REMARK    5  A    between atoms: C_19  and  C_20
REMARK    6  A    between atoms: C_25  and  C_26
REMARK                            x       y       z     vdW  Elec       q    Type
REMARK                         _______ _______ _______ _____ _____    ______ ____
ROOT
ATOM      1  C   UNL     1      -0.746  10.888  22.379  0.00  0.00    +0.000 A 
ATOM      2  C   UNL     1      -0.142   9.922  23.220  0.00  0.00    +0.000 A 
ATOM      3  N   UNL     1       0.597   9.023  22.586  0.00  0.00    +0.000 NA
ATOM      4  N   UNL     1       0.510   9.378  21.277  0.00  0.00    +0.000 N 
ATOM      5  C   UNL     1       1.259   8.649  20.278  0.00  0.00    +0.000 A 
ATOM      6  N   UNL     1       1.495   9.230  19.086  0.00  0.00    +0.000 NA
ATOM      7  C   UNL     1       2.070   8.472  18.146  0.00  0.00    +0.000 A 
ATOM      8  C   UNL     1       2.350   7.141  18.328  0.00  0.00    +0.000 A 
ATOM      9  C   UNL     1       2.081   6.611  19.579  0.00  0.00    +0.000 A 
ATOM     10  N   UNL     1       1.626   7.379  20.575  0.00  0.00    +0.000 NA
ATOM     11  C   UNL     1      -0.395  10.443  21.095  0.00  0.00    +0.000 A 
ENDROOT
BRANCH   9  12
ATOM     12  C   UNL     1       2.260   5.168  19.886  0.00  0.00    +0.000 A 
ATOM     13  C   UNL     1       1.201   4.480  20.532  0.00  0.00    +0.000 A 
ATOM     14  C   UNL     1       1.286   3.132  20.888  0.00  0.00    +0.000 A 
ATOM     15  C   UNL     1       2.427   2.412  20.589  0.00  0.00    +0.000 A 
ATOM     16  C   UNL     1       3.482   3.050  19.943  0.00  0.00    +0.000 A 
ATOM     17  C   UNL     1       3.434   4.426  19.597  0.00  0.00    +0.000 A 
BRANCH  17  18
ATOM     18  C   UNL     1       4.711   4.954  18.958  0.00  0.00    +0.000 C 
ATOM     19  F   UNL     1       5.314   6.032  19.513  0.00  0.00    +0.000 F 
ATOM     20  F   UNL     1       5.688   3.989  18.986  0.00  0.00    +0.000 F 
ATOM     21  F   UNL     1       4.541   5.231  17.633  0.00  0.00    +0.000 F 
ENDBRANCH  17  18
ENDBRANCH   9  12
BRANCH   1  24
ATOM     22  C   UNL     1      -0.047  13.839  22.280  0.00  0.00    +0.000 C 
ATOM     23  N   UNL     1      -1.306  13.308  22.786  0.00  0.00    +0.000 N 
ATOM     24  C   UNL     1      -1.671  11.941  22.805  0.00  0.00    +0.000 C 
ATOM     25  O   UNL     1      -2.776  11.658  23.265  0.00  0.00    +0.000 OA
BRANCH  23  26
ATOM     26  C   UNL     1      -2.195  14.179  23.595  0.00  0.00    +0.000 C 
ATOM     27  C   UNL     1      -3.169  15.086  22.870  0.00  0.00    +0.000 C 
ATOM     28  C   UNL     1      -2.420  16.393  22.725  0.00  0.00    +0.000 C 
ATOM     29  O   UNL     1      -1.412  16.438  23.737  0.00  0.00    +0.000 OA
ATOM     30  C   UNL     1      -1.398  15.183  24.436  0.00  0.00    +0.000 C 
ENDBRANCH  23  26
ENDBRANCH   1  24
BRANCH  11  31
ATOM     31  C   UNL     1      -0.872  10.888  19.692  0.00  0.00    +0.000 C 
ATOM     32  C   UNL     1      -1.823  12.021  19.409  0.00  0.00    +0.000 C 
ATOM     33  C   UNL     1      -0.369  12.191  19.121  0.00  0.00    +0.000 C 
ENDBRANCH  11  31
TORSDOF 5
ENDMDL
MODEL 2
REMARK VINA RESULT:      -8.4      2.225      3.839
REMARK  Name = 
REMARK  6 active torsions:
REMARK  status: ('A' for Active; 'I' for Inactive)
REMARK    1  A    between atoms: C_1  and  N_2
REMARK    2  A    between atoms: N_2  and  C_29
REMARK    3  A    between atoms: C_3  and  C_5
REMARK    4  A    between atoms: C_13  and  C_14
REMARK    5  A    between atoms: C_19  and  C_20
REMARK    6  A    between atoms: C_25  and  C_26
REMARK                            x       y       z     vdW  Elec       q    Type
REMARK                         _______ _______ _______ _____ _____    ______ ____
ROOT
ATOM      1  C   UNL     1       0.639  10.310  19.312  0.00  0.00    +0.000 A 
ATOM      2  C   UNL     1       1.359  10.062  18.119  0.00  0.00    +0.000 A 
ATOM      3  N   UNL     1       2.006   8.905  18.096  0.00  0.00    +0.000 NA
ATOM      4  N   UNL     1       1.722   8.336  19.296  0.00  0.00    +0.000 N 
ATOM      5  C   UNL     1       2.212   7.011  19.602  0.00  0.00    +0.000 A 
ATOM      6  N   UNL     1       1.613   6.302  20.579  0.00  0.00    +0.000 NA
ATOM      7  C   UNL     1       2.182   5.142  20.921  0.00  0.00    +0.000 A 
ATOM      8  C   UNL     1       3.361   4.698  20.378  0.00  0.00    +0.000 A 
ATOM      9  C   UNL     1       3.921   5.478  19.379  0.00  0.00    +0.000 A 
ATOM     10  N   UNL     1       3.304   6.576  18.929  0.00  0.00    +0.000 NA
ATOM     11  C   UNL     1       0.984   9.213  20.116  0.00  0.00    +0.000 A 
ENDROOT
BRANCH   9  12
ATOM     12  C   UNL     1       5.235   5.158  18.764  0.00  0.00    +0.000 A 
ATOM     13  C   UNL     1       6.407   5.675  19.372  0.00  0.00    +0.000 A 
ATOM     14  C   UNL     1       7.685   5.456  18.852  0.00  0.00    +0.000 A 
ATOM     15  C   UNL     1       7.841   4.687  17.713  0.00  0.00    +0.000 A 
ATOM     16  C   UNL     1       6.714   4.152  17.096  0.00  0.00    +0.000 A 
ATOM     17  C   UNL     1       5.402   4.385  17.586  0.00  0.00    +0.000 A 
BRANCH  17  18
ATOM     18  C   UNL     1       4.301   3.771  16.735  0.00  0.00    +0.000 C 
ATOM     19  F   UNL     1       3.040   4.250  16.864  0.00  0.00    +0.000 F 
ATOM     20  F   UNL     1       4.578   3.948  15.402  0.00  0.00    +0.000 F 
ATOM     21  F   UNL     1       4.229   2.417  16.893  0.00  0.00    +0.000 F 
ENDBRANCH  17  18
ENDBRANCH   9  12
BRANCH   1  24
ATOM     22  C   UNL     1       1.973  12.776  20.472  0.00  0.00    +0.000 C 
ATOM     23  N   UNL     1       0.544  12.659  20.213  0.00  0.00    +0.000 N 
ATOM     24  C   UNL     1      -0.095  11.536  19.636  0.00  0.00    +0.000 C 
ATOM     25  O   UNL     1      -1.313  11.598  19.480  0.00  0.00    +0.000 OA
BRANCH  23  26
ATOM     26  C   UNL     1      -0.392  13.639  20.818  0.00  0.00    +0.000 C 
ATOM     27  C   UNL     1      -0.547  14.993  20.154  0.00  0.00    +0.000 C 
ATOM     28  C   UNL     1       0.456  15.872  20.868  0.00  0.00    +0.000 C 
ATOM     29  O   UNL     1       0.718  15.293  22.148  0.00  0.00    +0.000 OA
ATOM     30  C   UNL     1       0.034  14.033  22.237  0.00  0.00    +0.000 C 
ENDBRANCH  23  26
ENDBRANCH   1  24
BRANCH  11  31
ATOM     31  C   UNL     1       0.735   8.923  21.616  0.00  0.00    +0.000 C 
ATOM     32  C   UNL     1       0.042   9.848  22.582  0.00  0.00    +0.000 C 
ATOM     33  C   UNL     1      -0.669   8.633  22.088  0.00  0.00    +0.000 C 
ENDBRANCH  11  31
TORSDOF 5
ENDMDL
MODEL 3
REMARK VINA RESULT:      -8.3      2.445      4.363
REMARK  Name = 
REMARK  6 active torsions:
REMARK  status: ('A' for Active; 'I' for Inactive)
REMARK    1  A    between atoms: C_1  and  N_2
REMARK    2  A    between atoms: N_2  and  C_29
REMARK    3  A    between atoms: C_3  and  C_5
REMARK    4  A    between atoms: C_13  and  C_14
REMARK    5  A    between atoms: C_19  and  C_20
REMARK    6  A    between atoms: C_25  and  C_26
REMARK                            x       y       z     vdW  Elec       q    Type
REMARK                         _______ _______ _______ _____ _____    ______ ____
ROOT
ATOM      1  C   UNL     1       1.232  10.155  19.198  0.00  0.00    +0.000 A 
ATOM      2  C   UNL     1       1.754  10.154  17.882  0.00  0.00    +0.000 A 
ATOM      3  N   UNL     1       2.253   8.991  17.488  0.00  0.00    +0.000 NA
ATOM      4  N   UNL     1       2.064   8.166  18.550  0.00  0.00    +0.000 N 
ATOM      5  C   UNL     1       2.431   6.771  18.457  0.00  0.00    +0.000 A 
ATOM      6  N   UNL     1       1.886   5.893  19.321  0.00  0.00    +0.000 NA
ATOM      7  C   UNL     1       2.355   4.641  19.289  0.00  0.00    +0.000 A 
ATOM      8  C   UNL     1       3.393   4.252  18.480  0.00  0.00    +0.000 A 
ATOM      9  C   UNL     1       3.904   5.207  17.617  0.00  0.00    +0.000 A 
ATOM     10  N   UNL     1       3.367   6.430  17.539  0.00  0.00    +0.000 NA
ATOM     11  C   UNL     1       1.548   8.868  19.658  0.00  0.00    +0.000 A 
ENDROOT
BRANCH   9  12
ATOM     12  C   UNL     1       5.079   4.945  16.748  0.00  0.00    +0.000 A 
ATOM     13  C   UNL     1       4.856   4.392  15.461  0.00  0.00    +0.000 A 
ATOM     14  C   UNL     1       5.898   4.081  14.583  0.00  0.00    +0.000 A 
ATOM     15  C   UNL     1       7.206   4.336  14.952  0.00  0.00    +0.000 A 
ATOM     16  C   UNL     1       7.464   4.891  16.202  0.00  0.00    +0.000 A 
ATOM     17  C   UNL     1       6.426   5.187  17.125  0.00  0.00    +0.000 A 
BRANCH  17  18
ATOM     18  C   UNL     1       6.914   5.725  18.461  0.00  0.00    +0.000 C 
ATOM     19  F   UNL     1       6.130   5.555  19.553  0.00  0.00    +0.000 F 
ATOM     20  F   UNL     1       8.093   5.115  18.815  0.00  0.00    +0.000 F 
ATOM     21  F   UNL     1       7.222   7.053  18.396  0.00  0.00    +0.000 F 
ENDBRANCH  17  18
ENDBRANCH   9  12
BRANCH   1  24
ATOM     22  C   UNL     1      -1.731  10.801  19.313  0.00  0.00    +0.000 C 
ATOM     23  N   UNL     1      -0.687  11.620  19.915  0.00  0.00    +0.000 N 
ATOM     24  C   UNL     1       0.696  11.318  19.909  0.00  0.00    +0.000 C 
ATOM     25  O   UNL     1       1.450  12.115  20.467  0.00  0.00    +0.000 OA
BRANCH  23  26
ATOM     26  C   UNL     1      -0.999  13.007  20.342  0.00  0.00    +0.000 C 
ATOM     27  C   UNL     1      -0.912  13.344  21.817  0.00  0.00    +0.000 C 
ATOM     28  C   UNL     1      -2.318  13.126  22.330  0.00  0.00    +0.000 C 
ATOM     29  O   UNL     1      -3.214  13.238  21.221  0.00  0.00    +0.000 OA
ATOM     30  C   UNL     1      -2.447  13.391  20.016  0.00  0.00    +0.000 C 
ENDBRANCH  23  26
ENDBRANCH   1  24
BRANCH  11  31
ATOM     31  C   UNL     1       1.466   8.235  21.068  0.00  0.00    +0.000 C 
ATOM     32  C   UNL     1       1.275   8.992  22.356  0.00  0.00    +0.000 C 
ATOM     33  C   UNL     1       0.139   8.209  21.788  0.00  0.00    +0.000 C 
ENDBRANCH  11  31
TORSDOF 5
ENDMDL
MODEL 4
REMARK VINA RESULT:      -8.3      2.528      4.276
REMARK  Name = 
REMARK  6 active torsions:
REMARK  status: ('A' for Active; 'I' for Inactive)
REMARK    1  A    between atoms: C_1  and  N_2
REMARK    2  A    between atoms: N_2  and  C_29
REMARK    3  A    between atoms: C_3  and  C_5
REMARK    4  A    between atoms: C_13  and  C_14
REMARK    5  A    between atoms: C_19  and  C_20
REMARK    6  A    between atoms: C_25  and  C_26
REMARK                            x       y       z     vdW  Elec       q    Type
REMARK                         _______ _______ _______ _____ _____    ______ ____
ROOT
ATOM      1  C   UNL     1       0.934  10.075  19.132  0.00  0.00    +0.000 A 
ATOM      2  C   UNL     1       1.347   9.943  17.784  0.00  0.00    +0.000 A 
ATOM      3  N   UNL     1       1.937   8.791  17.499  0.00  0.00    +0.000 NA
ATOM      4  N   UNL     1       1.925   8.106  18.673  0.00  0.00    +0.000 N 
ATOM      5  C   UNL     1       2.435   6.755  18.727  0.00  0.00    +0.000 A 
ATOM      6  N   UNL     1       2.061   5.956  19.745  0.00  0.00    +0.000 NA
ATOM      7  C   UNL     1       2.661   4.764  19.831  0.00  0.00    +0.000 A 
ATOM      8  C   UNL     1       3.667   4.370  18.986  0.00  0.00    +0.000 A 
ATOM      9  C   UNL     1       3.999   5.242  17.962  0.00  0.00    +0.000 A 
ATOM     10  N   UNL     1       3.327   6.384  17.777  0.00  0.00    +0.000 NA
ATOM     11  C   UNL     1       1.426   8.901  19.724  0.00  0.00    +0.000 A 
ENDROOT
BRANCH   9  12
ATOM     12  C   UNL     1       5.123   4.979  17.027  0.00  0.00    +0.000 A 
ATOM     13  C   UNL     1       4.829   4.412  15.761  0.00  0.00    +0.000 A 
ATOM     14  C   UNL     1       5.819   4.099  14.827  0.00  0.00    +0.000 A 
ATOM     15  C   UNL     1       7.145   4.365  15.115  0.00  0.00    +0.000 A 
ATOM     16  C   UNL     1       7.472   4.935  16.342  0.00  0.00    +0.000 A 
ATOM     17  C   UNL     1       6.488   5.234  17.322  0.00  0.00    +0.000 A 
BRANCH  17  18
ATOM     18  C   UNL     1       7.051   5.788  18.622  0.00  0.00    +0.000 C 
ATOM     19  F   UNL     1       6.306   5.678  19.748  0.00  0.00    +0.000 F 
ATOM     20  F   UNL     1       8.220   5.143  18.945  0.00  0.00    +0.000 F 
ATOM     21  F   UNL     1       7.405   7.100  18.506  0.00  0.00    +0.000 F 
ENDBRANCH  17  18
ENDBRANCH   9  12
BRANCH   1  24
ATOM     22  C   UNL     1       2.315  12.776  19.185  0.00  0.00    +0.000 C 
ATOM     23  N   UNL     1       1.014  12.506  19.781  0.00  0.00    +0.000 N 
ATOM     24  C   UNL     1       0.332  11.267  19.735  0.00  0.00    +0.000 C 
ATOM     25  O   UNL     1      -0.765  11.205  20.288  0.00  0.00    +0.000 OA
BRANCH  23  26
ATOM     26  C   UNL     1       0.436  13.476  20.746  0.00  0.00    +0.000 C 
ATOM     27  C   UNL     1      -0.532  14.519  20.227  0.00  0.00    +0.000 C 
ATOM     28  C   UNL     1       0.342  15.714  19.918  0.00  0.00    +0.000 C 
ATOM     29  O   UNL     1       1.533  15.604  20.702  0.00  0.00    +0.000 OA
ATOM     30  C   UNL     1       1.517  14.346  21.396  0.00  0.00    +0.000 C 
ENDBRANCH  23  26
ENDBRANCH   1  24
BRANCH  11  31
ATOM     31  C   UNL     1       1.527   8.466  21.205  0.00  0.00    +0.000 C 
ATOM     32  C   UNL     1       1.206   9.331  22.395  0.00  0.00    +0.000 C 
ATOM     33  C   UNL     1       0.261   8.248  21.998  0.00  0.00    +0.000 C 
ENDBRANCH  11  31
TORSDOF 5
ENDMDL
MODEL 5
REMARK VINA RESULT:      -8.1      0.719      1.030
REMARK  Name = 
REMARK  6 active torsions:
REMARK  status: ('A' for Active; 'I' for Inactive)
REMARK    1  A    between atoms: C_1  and  N_2
REMARK    2  A    between atoms: N_2  and  C_29
REMARK    3  A    between atoms: C_3  and  C_5
REMARK    4  A    between atoms: C_13  and  C_14
REMARK    5  A    between atoms: C_19  and  C_20
REMARK    6  A    between atoms: C_25  and  C_26
REMARK                            x       y       z     vdW  Elec       q    Type
REMARK                         _______ _______ _______ _____ _____    ______ ____
ROOT
ATOM      1  C   UNL     1      -0.590  11.197  21.646  0.00  0.00    +0.000 A 
ATOM      2  C   UNL     1      -0.071  10.289  22.601  0.00  0.00    +0.000 A 
ATOM      3  N   UNL     1       0.662   9.310  22.089  0.00  0.00    +0.000 NA
ATOM      4  N   UNL     1       0.658   9.550  20.751  0.00  0.00    +0.000 N 
ATOM      5  C   UNL     1       1.426   8.707  19.863  0.00  0.00    +0.000 A 
ATOM      6  N   UNL     1       1.748   9.170  18.640  0.00  0.00    +0.000 NA
ATOM      7  C   UNL     1       2.339   8.311  17.803  0.00  0.00    +0.000 A 
ATOM      8  C   UNL     1       2.554   6.992  18.115  0.00  0.00    +0.000 A 
ATOM      9  C   UNL     1       2.199   6.586  19.391  0.00  0.00    +0.000 A 
ATOM     10  N   UNL     1       1.725   7.457  20.289  0.00  0.00    +0.000 NA
ATOM     11  C   UNL     1      -0.191  10.627  20.427  0.00  0.00    +0.000 A 
ENDROOT
BRANCH   9  12
ATOM     12  C   UNL     1       2.301   5.171  19.832  0.00  0.00    +0.000 A 
ATOM     13  C   UNL     1       1.200   4.596  20.515  0.00  0.00    +0.000 A 
ATOM     14  C   UNL     1       1.212   3.285  20.995  0.00  0.00    +0.000 A 
ATOM     15  C   UNL     1       2.322   2.487  20.787  0.00  0.00    +0.000 A 
ATOM     16  C   UNL     1       3.418   3.012  20.108  0.00  0.00    +0.000 A 
ATOM     17  C   UNL     1       3.443   4.351  19.637  0.00  0.00    +0.000 A 
BRANCH  17  18
ATOM     18  C   UNL     1       4.754   4.756  18.980  0.00  0.00    +0.000 C 
ATOM     19  F   UNL     1       4.734   5.150  17.683  0.00  0.00    +0.000 F 
ATOM     20  F   UNL     1       5.299   5.834  19.635  0.00  0.00    +0.000 F 
ATOM     21  F   UNL     1       5.701   3.779  19.084  0.00  0.00    +0.000 F 
ENDBRANCH  17  18
ENDBRANCH   9  12
BRANCH   1  24
ATOM     22  C   UNL     1       0.367  14.067  21.888  0.00  0.00    +0.000 C 
ATOM     23  N   UNL     1      -1.014  13.641  22.074  0.00  0.00    +0.000 N 
ATOM     24  C   UNL     1      -1.491  12.317  21.926  0.00  0.00    +0.000 C 
ATOM     25  O   UNL     1      -2.691  12.125  22.116  0.00  0.00    +0.000 OA
BRANCH  23  26
ATOM     26  C   UNL     1      -1.982  14.561  22.724  0.00  0.00    +0.000 C 
ATOM     27  C   UNL     1      -2.771  15.513  21.848  0.00  0.00    +0.000 C 
ATOM     28  C   UNL     1      -1.943  16.779  21.836  0.00  0.00    +0.000 C 
ATOM     29  O   UNL     1      -1.119  16.777  23.005  0.00  0.00    +0.000 OA
ATOM     30  C   UNL     1      -1.288  15.526  23.691  0.00  0.00    +0.000 C 
ENDBRANCH  23  26
ENDBRANCH   1  24
BRANCH  11  31
ATOM     31  C   UNL     1      -0.576  10.962  18.966  0.00  0.00    +0.000 C 
ATOM     32  C   UNL     1      -1.531  10.172  18.111  0.00  0.00    +0.000 C 
ATOM     33  C   UNL     1      -1.960  11.487  18.670  0.00  0.00    +0.000 C 
ENDBRANCH  11  31
TORSDOF 5
ENDMDL
MODEL 6
REMARK VINA RESULT:      -8.0      1.729      2.187
REMARK  Name = 
REMARK  6 active torsions:
REMARK  status: ('A' for Active; 'I' for Inactive)
REMARK    1  A    between atoms: C_1  and  N_2
REMARK    2  A    between atoms: N_2  and  C_29
REMARK    3  A    between atoms: C_3  and  C_5
REMARK    4  A    between atoms: C_13  and  C_14
REMARK    5  A    between atoms: C_19  and  C_20
REMARK    6  A    between atoms: C_25  and  C_26
REMARK                            x       y       z     vdW  Elec       q    Type
REMARK                         _______ _______ _______ _____ _____    ______ ____
ROOT
ATOM      1  C   UNL     1      -0.119  10.406  22.164  0.00  0.00    +0.000 A 
ATOM      2  C   UNL     1       0.794   9.627  22.914  0.00  0.00    +0.000 A 
ATOM      3  N   UNL     1       1.552   8.816  22.190  0.00  0.00    +0.000 NA
ATOM      4  N   UNL     1       1.161   9.044  20.908  0.00  0.00    +0.000 N 
ATOM      5  C   UNL     1       1.830   8.372  19.817  0.00  0.00    +0.000 A 
ATOM      6  N   UNL     1       1.733   8.885  18.576  0.00  0.00    +0.000 NA
ATOM      7  C   UNL     1       2.250   8.160  17.578  0.00  0.00    +0.000 A 
ATOM      8  C   UNL     1       2.795   6.914  17.764  0.00  0.00    +0.000 A 
ATOM      9  C   UNL     1       2.863   6.450  19.067  0.00  0.00    +0.000 A 
ATOM     10  N   UNL     1       2.470   7.210  20.096  0.00  0.00    +0.000 NA
ATOM     11  C   UNL     1       0.062   9.924  20.858  0.00  0.00    +0.000 A 
ENDROOT
BRANCH   9  12
ATOM     12  C   UNL     1       3.352   5.088  19.401  0.00  0.00    +0.000 A 
ATOM     13  C   UNL     1       4.708   4.772  19.127  0.00  0.00    +0.000 A 
ATOM     14  C   UNL     1       5.252   3.511  19.376  0.00  0.00    +0.000 A 
ATOM     15  C   UNL     1       4.465   2.520  19.934  0.00  0.00    +0.000 A 
ATOM     16  C   UNL     1       3.133   2.796  20.229  0.00  0.00    +0.000 A 
ATOM     17  C   UNL     1       2.547   4.061  19.958  0.00  0.00    +0.000 A 
BRANCH  17  18
ATOM     18  C   UNL     1       1.064   4.144  20.289  0.00  0.00    +0.000 C 
ATOM     19  F   UNL     1       0.566   5.323  20.734  0.00  0.00    +0.000 F 
ATOM     20  F   UNL     1       0.313   3.880  19.170  0.00  0.00    +0.000 F 
ATOM     21  F   UNL     1       0.687   3.189  21.188  0.00  0.00    +0.000 F 
ENDBRANCH  17  18
ENDBRANCH   9  12
BRANCH   1  24
ATOM     22  C   UNL     1       0.027  13.418  21.824  0.00  0.00    +0.000 C 
ATOM     23  N   UNL     1      -1.012  12.724  22.575  0.00  0.00    +0.000 N 
ATOM     24  C   UNL     1      -1.124  11.320  22.713  0.00  0.00    +0.000 C 
ATOM     25  O   UNL     1      -2.064  10.892  23.380  0.00  0.00    +0.000 OA
BRANCH  23  26
ATOM     26  C   UNL     1      -1.882  13.491  23.501  0.00  0.00    +0.000 C 
ATOM     27  C   UNL     1      -3.227  13.972  22.994  0.00  0.00    +0.000 C 
ATOM     28  C   UNL     1      -2.951  15.367  22.479  0.00  0.00    +0.000 C 
ATOM     29  O   UNL     1      -1.778  15.855  23.135  0.00  0.00    +0.000 OA
ATOM     30  C   UNL     1      -1.226  14.804  23.942  0.00  0.00    +0.000 C 
ENDBRANCH  23  26
ENDBRANCH   1  24
BRANCH  11  31
ATOM     31  C   UNL     1      -0.740  10.166  19.556  0.00  0.00    +0.000 C 
ATOM     32  C   UNL     1      -1.782  11.235  19.358  0.00  0.00    +0.000 C 
ATOM     33  C   UNL     1      -0.441  11.388  18.723  0.00  0.00    +0.000 C 
ENDBRANCH  11  31
TORSDOF 5
ENDMDL
MODEL 7
REMARK VINA RESULT:      -8.0      1.239      1.484
REMARK  Name = 
REMARK  6 active torsions:
REMARK  status: ('A' for Active; 'I' for Inactive)
REMARK    1  A    between atoms: C_1  and  N_2
REMARK    2  A    between atoms: N_2  and  C_29
REMARK    3  A    between atoms: C_3  and  C_5
REMARK    4  A    between atoms: C_13  and  C_14
REMARK    5  A    between atoms: C_19  and  C_20
REMARK    6  A    between atoms: C_25  and  C_26
REMARK                            x       y       z     vdW  Elec       q    Type
REMARK                         _______ _______ _______ _____ _____    ______ ____
ROOT
ATOM      1  C   UNL     1      -0.644  11.020  21.904  0.00  0.00    +0.000 A 
ATOM      2  C   UNL     1      -0.225  10.050  22.846  0.00  0.00    +0.000 A 
ATOM      3  N   UNL     1       0.502   9.066  22.337  0.00  0.00    +0.000 NA
ATOM      4  N   UNL     1       0.596   9.365  21.015  0.00  0.00    +0.000 N 
ATOM      5  C   UNL     1       1.389   8.532  20.139  0.00  0.00    +0.000 A 
ATOM      6  N   UNL     1       1.809   9.035  18.962  0.00  0.00    +0.000 NA
ATOM      7  C   UNL     1       2.421   8.189  18.126  0.00  0.00    +0.000 A 
ATOM      8  C   UNL     1       2.564   6.850  18.389  0.00  0.00    +0.000 A 
ATOM      9  C   UNL     1       2.110   6.403  19.619  0.00  0.00    +0.000 A 
ATOM     10  N   UNL     1       1.611   7.252  20.524  0.00  0.00    +0.000 NA
ATOM     11  C   UNL     1      -0.188  10.489  20.687  0.00  0.00    +0.000 A 
ENDROOT
BRANCH   9  12
ATOM     12  C   UNL     1       2.129   4.967  19.998  0.00  0.00    +0.000 A 
ATOM     13  C   UNL     1       2.160   4.634  21.376  0.00  0.00    +0.000 A 
ATOM     14  C   UNL     1       2.210   3.314  21.831  0.00  0.00    +0.000 A 
ATOM     15  C   UNL     1       2.206   2.273  20.922  0.00  0.00    +0.000 A 
ATOM     16  C   UNL     1       2.162   2.560  19.560  0.00  0.00    +0.000 A 
ATOM     17  C   UNL     1       2.141   3.893  19.071  0.00  0.00    +0.000 A 
BRANCH  17  18
ATOM     18  C   UNL     1       2.162   4.000  17.553  0.00  0.00    +0.000 C 
ATOM     19  F   UNL     1       3.214   4.617  16.962  0.00  0.00    +0.000 F 
ATOM     20  F   UNL     1       2.166   2.747  16.990  0.00  0.00    +0.000 F 
ATOM     21  F   UNL     1       1.031   4.590  17.068  0.00  0.00    +0.000 F 
ENDBRANCH  17  18
ENDBRANCH   9  12
BRANCH   1  24
ATOM     22  C   UNL     1       0.325  13.895  21.838  0.00  0.00    +0.000 C 
ATOM     23  N   UNL     1      -1.033  13.492  22.179  0.00  0.00    +0.000 N 
ATOM     24  C   UNL     1      -1.519  12.163  22.177  0.00  0.00    +0.000 C 
ATOM     25  O   UNL     1      -2.696  11.992  22.489  0.00  0.00    +0.000 OA
BRANCH  23  26
ATOM     26  C   UNL     1      -1.940  14.464  22.842  0.00  0.00    +0.000 C 
ATOM     27  C   UNL     1      -2.002  15.877  22.299  0.00  0.00    +0.000 C 
ATOM     28  C   UNL     1      -0.982  16.634  23.121  0.00  0.00    +0.000 C 
ATOM     29  O   UNL     1      -0.796  15.929  24.351  0.00  0.00    +0.000 OA
ATOM     30  C   UNL     1      -1.546  14.705  24.303  0.00  0.00    +0.000 C 
ENDBRANCH  23  26
ENDBRANCH   1  24
BRANCH  11  31
ATOM     31  C   UNL     1      -0.462  10.904  19.222  0.00  0.00    +0.000 C 
ATOM     32  C   UNL     1      -1.381  12.013  18.784  0.00  0.00    +0.000 C 
ATOM     33  C   UNL     1       0.096  12.209  18.708  0.00  0.00    +0.000 C 
ENDBRANCH  11  31
TORSDOF 5
ENDMDL
MODEL 8
REMARK VINA RESULT:      -7.8      1.274      1.711
REMARK  Name = 
REMARK  6 active torsions:
REMARK  status: ('A' for Active; 'I' for Inactive)
REMARK    1  A    between atoms: C_1  and  N_2
REMARK    2  A    between atoms: N_2  and  C_29
REMARK    3  A    between atoms: C_3  and  C_5
REMARK    4  A    between atoms: C_13  and  C_14
REMARK    5  A    between atoms: C_19  and  C_20
REMARK    6  A    between atoms: C_25  and  C_26
REMARK                            x       y       z     vdW  Elec       q    Type
REMARK                         _______ _______ _______ _____ _____    ______ ____
ROOT
ATOM      1  C   UNL     1      -0.132  11.421  21.292  0.00  0.00    +0.000 A 
ATOM      2  C   UNL     1       0.374  10.554  22.291  0.00  0.00    +0.000 A 
ATOM      3  N   UNL     1       1.028   9.500  21.825  0.00  0.00    +0.000 NA
ATOM      4  N   UNL     1       0.982   9.644  20.474  0.00  0.00    +0.000 N 
ATOM      5  C   UNL     1       1.664   8.696  19.622  0.00  0.00    +0.000 A 
ATOM      6  N   UNL     1       1.960   9.051  18.357  0.00  0.00    +0.000 NA
ATOM      7  C   UNL     1       2.465   8.100  17.564  0.00  0.00    +0.000 A 
ATOM      8  C   UNL     1       2.619   6.797  17.963  0.00  0.00    +0.000 A 
ATOM      9  C   UNL     1       2.295   6.504  19.278  0.00  0.00    +0.000 A 
ATOM     10  N   UNL     1       1.910   7.464  20.127  0.00  0.00    +0.000 NA
ATOM     11  C   UNL     1       0.182  10.743  20.104  0.00  0.00    +0.000 A 
ENDROOT
BRANCH   9  12
ATOM     12  C   UNL     1       2.336   5.121  19.818  0.00  0.00    +0.000 A 
ATOM     13  C   UNL     1       1.193   4.627  20.496  0.00  0.00    +0.000 A 
ATOM     14  C   UNL     1       1.146   3.352  21.064  0.00  0.00    +0.000 A 
ATOM     15  C   UNL     1       2.236   2.510  20.953  0.00  0.00    +0.000 A 
ATOM     16  C   UNL     1       3.372   2.954  20.282  0.00  0.00    +0.000 A 
ATOM     17  C   UNL     1       3.458   4.256  19.723  0.00  0.00    +0.000 A 
BRANCH  17  18
ATOM     18  C   UNL     1       4.804   4.576  19.091  0.00  0.00    +0.000 C 
ATOM     19  F   UNL     1       5.452   5.700  19.483  0.00  0.00    +0.000 F 
ATOM     20  F   UNL     1       5.704   3.575  19.361  0.00  0.00    +0.000 F 
ATOM     21  F   UNL     1       4.732   4.614  17.729  0.00  0.00    +0.000 F 
ENDBRANCH  17  18
ENDBRANCH   9  12
BRANCH   1  24
ATOM     22  C   UNL     1      -2.375  11.506  23.335  0.00  0.00    +0.000 C 
ATOM     23  N   UNL     1      -2.023  12.611  22.454  0.00  0.00    +0.000 N 
ATOM     24  C   UNL     1      -0.957  12.610  21.523  0.00  0.00    +0.000 C 
ATOM     25  O   UNL     1      -0.790  13.629  20.854  0.00  0.00    +0.000 OA
BRANCH  23  26
ATOM     26  C   UNL     1      -2.971  13.740  22.281  0.00  0.00    +0.000 C 
ATOM     27  C   UNL     1      -2.842  14.937  23.202  0.00  0.00    +0.000 C 
ATOM     28  C   UNL     1      -3.788  14.630  24.342  0.00  0.00    +0.000 C 
ATOM     29  O   UNL     1      -4.766  13.702  23.866  0.00  0.00    +0.000 OA
ATOM     30  C   UNL     1      -4.421  13.309  22.528  0.00  0.00    +0.000 C 
ENDBRANCH  23  26
ENDBRANCH   1  24
BRANCH  11  31
ATOM     31  C   UNL     1      -0.244  10.995  18.638  0.00  0.00    +0.000 C 
ATOM     32  C   UNL     1      -1.171  10.122  17.835  0.00  0.00    +0.000 C 
ATOM     33  C   UNL     1      -1.658  11.436  18.347  0.00  0.00    +0.000 C 
ENDBRANCH  11  31
TORSDOF 5
ENDMDL
MODEL 9
REMARK VINA RESULT:      -7.6      2.446      4.327
REMARK  Name = 
REMARK  6 active torsions:
REMARK  status: ('A' for Active; 'I' for Inactive)
REMARK    1  A    between atoms: C_1  and  N_2
REMARK    2  A    between atoms: N_2  and  C_29
REMARK    3  A    between atoms: C_3  and  C_5
REMARK    4  A    between atoms: C_13  and  C_14
REMARK    5  A    between atoms: C_19  and  C_20
REMARK    6  A    between atoms: C_25  and  C_26
REMARK                            x       y       z     vdW  Elec       q    Type
REMARK                         _______ _______ _______ _____ _____    ______ ____
ROOT
ATOM      1  C   UNL     1       0.818  10.035  19.343  0.00  0.00    +0.000 A 
ATOM      2  C   UNL     1       1.640   9.925  18.195  0.00  0.00    +0.000 A 
ATOM      3  N   UNL     1       2.324   8.793  18.114  0.00  0.00    +0.000 NA
ATOM      4  N   UNL     1       1.962   8.100  19.225  0.00  0.00    +0.000 N 
ATOM      5  C   UNL     1       2.469   6.763  19.440  0.00  0.00    +0.000 A 
ATOM      6  N   UNL     1       1.816   5.946  20.289  0.00  0.00    +0.000 NA
ATOM      7  C   UNL     1       2.393   4.771  20.563  0.00  0.00    +0.000 A 
ATOM      8  C   UNL     1       3.627   4.413  20.080  0.00  0.00    +0.000 A 
ATOM      9  C   UNL     1       4.240   5.303  19.212  0.00  0.00    +0.000 A 
ATOM     10  N   UNL     1       3.626   6.425  18.822  0.00  0.00    +0.000 NA
ATOM     11  C   UNL     1       1.132   8.871  20.062  0.00  0.00    +0.000 A 
ENDROOT
BRANCH   9  12
ATOM     12  C   UNL     1       5.609   5.079  18.682  0.00  0.00    +0.000 A 
ATOM     13  C   UNL     1       6.714   5.385  19.517  0.00  0.00    +0.000 A 
ATOM     14  C   UNL     1       8.038   5.238  19.098  0.00  0.00    +0.000 A 
ATOM     15  C   UNL     1       8.309   4.753  17.832  0.00  0.00    +0.000 A 
ATOM     16  C   UNL     1       7.250   4.427  16.989  0.00  0.00    +0.000 A 
ATOM     17  C   UNL     1       5.895   4.597  17.378  0.00  0.00    +0.000 A 
BRANCH  17  18
ATOM     18  C   UNL     1       4.887   4.249  16.294  0.00  0.00    +0.000 C 
ATOM     19  F   UNL     1       3.690   3.733  16.664  0.00  0.00    +0.000 F 
ATOM     20  F   UNL     1       4.546   5.376  15.586  0.00  0.00    +0.000 F 
ATOM     21  F   UNL     1       5.412   3.404  15.360  0.00  0.00    +0.000 F 
ENDBRANCH  17  18
ENDBRANCH   9  12
BRANCH   1  24
ATOM     22  C   UNL     1      -2.177  10.211  18.888  0.00  0.00    +0.000 C 
ATOM     23  N   UNL     1      -1.369  11.278  19.462  0.00  0.00    +0.000 N 
ATOM     24  C   UNL     1       0.020  11.204  19.721  0.00  0.00    +0.000 C 
ATOM     25  O   UNL     1       0.556  12.196  20.214  0.00  0.00    +0.000 OA
BRANCH  23  26
ATOM     26  C   UNL     1      -1.926  12.651  19.553  0.00  0.00    +0.000 C 
ATOM     27  C   UNL     1      -1.954  13.329  20.908  0.00  0.00    +0.000 C 
ATOM     28  C   UNL     1      -3.322  12.996  21.461  0.00  0.00    +0.000 C 
ATOM     29  O   UNL     1      -4.181  12.692  20.359  0.00  0.00    +0.000 OA
ATOM     30  C   UNL     1      -3.405  12.693  19.150  0.00  0.00    +0.000 C 
ENDBRANCH  23  26
ENDBRANCH   1  24
BRANCH  11  31
ATOM     31  C   UNL     1       0.772   8.427  21.500  0.00  0.00    +0.000 C 
ATOM     32  C   UNL     1       0.412   9.349  22.635  0.00  0.00    +0.000 C 
ATOM     33  C   UNL     1      -0.657   8.547  21.972  0.00  0.00    +0.000 C 
ENDBRANCH  11  31
TORSDOF 5
ENDMDL
