MODEL 1
REMARK VINA RESULT:      -8.7      0.000      0.000
REMARK  Name = 
REMARK  6 active torsions:
REMARK  status: ('A' for Active; 'I' for Inactive)
REMARK    1  A    between atoms: C_1  and  C_2
REMARK    2  A    between atoms: C_2  and  N_3
REMARK    3  A    between atoms: C_10  and  C_11
REMARK    4  A    between atoms: C_17  and  C_18
REMARK    5  A    between atoms: C_18  and  C_19
REMARK    6  A    between atoms: C_22  and  C_23
REMARK                            x       y       z     vdW  Elec       q    Type
REMARK                         _______ _______ _______ _____ _____    ______ ____
ROOT
ATOM      1  C   UNL     1       2.044   8.655  18.179  0.00  0.00    +0.000 C 
ATOM      2  O   UNL     1       2.277   9.593  17.423  0.00  0.00    +0.000 OA
ATOM      3  N   UNL     1       1.224   8.680  19.283  0.00  0.00    +0.000 N 
ATOM      4  C   UNL     1       0.579   9.841  19.633  0.00  0.00    +0.000 A 
ATOM      5  N   UNL     1       0.421  10.952  18.956  0.00  0.00    +0.000 NA
ATOM      6  N   UNL     1      -0.234  11.920  19.691  0.00  0.00    +0.000 NA
ATOM      7  C   UNL     1      -0.536  11.505  20.903  0.00  0.00    +0.000 A 
ATOM      8  S   UNL     1      -0.095   9.863  21.199  0.00  0.00    +0.000 S 
ATOM      9  H   UNL     1       1.207   7.923  19.951  0.00  0.00    +0.000 HD
ENDROOT
BRANCH   1  17
ATOM     10  N   UNL     1       2.478   3.672  18.339  0.00  0.00    +0.000 N 
ATOM     11  N   UNL     1       3.442   2.794  17.991  0.00  0.00    +0.000 NA
ATOM     12  C   UNL     1       4.435   3.572  17.553  0.00  0.00    +0.000 A 
ATOM     13  C   UNL     1       4.112   4.944  17.592  0.00  0.00    +0.000 A 
ATOM     14  C   UNL     1       4.756   6.150  17.279  0.00  0.00    +0.000 A 
ATOM     15  F   UNL     1       6.017   6.148  16.825  0.00  0.00    +0.000 F 
ATOM     16  C   UNL     1       4.097   7.372  17.450  0.00  0.00    +0.000 A 
ATOM     17  C   UNL     1       2.788   7.389  17.937  0.00  0.00    +0.000 A 
ATOM     18  C   UNL     1       2.127   6.190  18.276  0.00  0.00    +0.000 A 
ATOM     19  C   UNL     1       2.813   4.985  18.094  0.00  0.00    +0.000 A 
BRANCH  10  21
ATOM     20  C   UNL     1       1.207   3.426  20.439  0.00  0.00    +0.000 C 
ATOM     21  C   UNL     1       1.253   3.180  18.943  0.00  0.00    +0.000 C 
ENDBRANCH  10  21
ENDBRANCH   1  17
BRANCH   7  22
ATOM     22  C   UNL     1      -1.239  12.429  21.922  0.00  0.00    +0.000 C 
ATOM     23  C   UNL     1      -0.417  13.630  22.387  0.00  0.00    +0.000 C 
ATOM     24  C   UNL     1      -2.712  12.794  21.525  0.00  0.00    +0.000 C 
ATOM     25  N   UNL     1      -3.070  12.435  22.880  0.00  0.00    +0.000 N 
ATOM     26  C   UNL     1      -4.158  12.593  23.681  0.00  0.00    +0.000 C 
ATOM     27  C   UNL     1      -5.299  13.404  23.131  0.00  0.00    +0.000 C 
ATOM     28  O   UNL     1      -4.213  12.112  24.811  0.00  0.00    +0.000 OA
ATOM     29  C   UNL     1      -1.900  11.605  23.075  0.00  0.00    +0.000 C 
ENDBRANCH   7  22
TORSDOF 3
ENDMDL
MODEL 2
REMARK VINA RESULT:      -8.3      1.612      2.643
REMARK  Name = 
REMARK  6 active torsions:
REMARK  status: ('A' for Active; 'I' for Inactive)
REMARK    1  A    between atoms: C_1  and  C_2
REMARK    2  A    between atoms: C_2  and  N_3
REMARK    3  A    between atoms: C_10  and  C_11
REMARK    4  A    between atoms: C_17  and  C_18
REMARK    5  A    between atoms: C_18  and  C_19
REMARK    6  A    between atoms: C_22  and  C_23
REMARK                            x       y       z     vdW  Elec       q    Type
REMARK                         _______ _______ _______ _____ _____    ______ ____
ROOT
ATOM      1  C   UNL     1       2.079   8.477  18.199  0.00  0.00    +0.000 C 
ATOM      2  O   UNL     1       2.355   9.401  17.440  0.00  0.00    +0.000 OA
ATOM      3  N   UNL     1       1.237   8.534  19.285  0.00  0.00    +0.000 N 
ATOM      4  C   UNL     1       0.618   9.716  19.610  0.00  0.00    +0.000 A 
ATOM      5  N   UNL     1       0.506  10.825  18.921  0.00  0.00    +0.000 NA
ATOM      6  N   UNL     1      -0.137  11.818  19.634  0.00  0.00    +0.000 NA
ATOM      7  C   UNL     1      -0.476  11.423  20.842  0.00  0.00    +0.000 A 
ATOM      8  S   UNL     1      -0.088   9.771  21.161  0.00  0.00    +0.000 S 
ATOM      9  H   UNL     1       1.184   7.785  19.958  0.00  0.00    +0.000 HD
ENDROOT
BRANCH   1  17
ATOM     10  N   UNL     1       6.174   5.799  17.149  0.00  0.00    +0.000 N 
ATOM     11  N   UNL     1       6.436   4.482  17.016  0.00  0.00    +0.000 NA
ATOM     12  C   UNL     1       5.249   3.902  17.210  0.00  0.00    +0.000 A 
ATOM     13  C   UNL     1       4.227   4.833  17.490  0.00  0.00    +0.000 A 
ATOM     14  C   UNL     1       2.849   4.782  17.749  0.00  0.00    +0.000 A 
ATOM     15  F   UNL     1       2.200   3.610  17.750  0.00  0.00    +0.000 F 
ATOM     16  C   UNL     1       2.130   5.957  17.996  0.00  0.00    +0.000 A 
ATOM     17  C   UNL     1       2.791   7.188  17.983  0.00  0.00    +0.000 A 
ATOM     18  C   UNL     1       4.172   7.264  17.707  0.00  0.00    +0.000 A 
ATOM     19  C   UNL     1       4.863   6.071  17.464  0.00  0.00    +0.000 A 
BRANCH  10  21
ATOM     20  C   UNL     1       7.902   7.203  18.212  0.00  0.00    +0.000 C 
ATOM     21  C   UNL     1       7.238   6.761  16.922  0.00  0.00    +0.000 C 
ENDBRANCH  10  21
ENDBRANCH   1  17
BRANCH   7  22
ATOM     22  C   UNL     1      -1.174  12.376  21.838  0.00  0.00    +0.000 C 
ATOM     23  C   UNL     1      -0.332  13.565  22.300  0.00  0.00    +0.000 C 
ATOM     24  C   UNL     1      -2.632  12.767  21.414  0.00  0.00    +0.000 C 
ATOM     25  N   UNL     1      -3.019  12.435  22.767  0.00  0.00    +0.000 N 
ATOM     26  C   UNL     1      -4.115  12.626  23.549  0.00  0.00    +0.000 C 
ATOM     27  C   UNL     1      -5.229  13.455  22.971  0.00  0.00    +0.000 C 
ATOM     28  O   UNL     1      -4.198  12.163  24.685  0.00  0.00    +0.000 OA
ATOM     29  C   UNL     1      -1.870  11.581  22.992  0.00  0.00    +0.000 C 
ENDBRANCH   7  22
TORSDOF 3
ENDMDL
MODEL 3
REMARK VINA RESULT:      -8.3      2.589      3.434
REMARK  Name = 
REMARK  6 active torsions:
REMARK  status: ('A' for Active; 'I' for Inactive)
REMARK    1  A    between atoms: C_1  and  C_2
REMARK    2  A    between atoms: C_2  and  N_3
REMARK    3  A    between atoms: C_10  and  C_11
REMARK    4  A    between atoms: C_17  and  C_18
REMARK    5  A    between atoms: C_18  and  C_19
REMARK    6  A    between atoms: C_22  and  C_23
REMARK                            x       y       z     vdW  Elec       q    Type
REMARK                         _______ _______ _______ _____ _____    ______ ____
ROOT
ATOM      1  C   UNL     1       2.119   6.661  19.860  0.00  0.00    +0.000 C 
ATOM      2  O   UNL     1       1.625   6.112  20.841  0.00  0.00    +0.000 OA
ATOM      3  N   UNL     1       1.987   7.985  19.513  0.00  0.00    +0.000 N 
ATOM      4  C   UNL     1       1.235   8.828  20.294  0.00  0.00    +0.000 A 
ATOM      5  N   UNL     1       0.752   8.651  21.499  0.00  0.00    +0.000 NA
ATOM      6  N   UNL     1      -0.017   9.720  21.913  0.00  0.00    +0.000 NA
ATOM      7  C   UNL     1      -0.096  10.661  20.996  0.00  0.00    +0.000 A 
ATOM      8  S   UNL     1       0.833  10.324  19.581  0.00  0.00    +0.000 S 
ATOM      9  H   UNL     1       2.281   8.330  18.611  0.00  0.00    +0.000 HD
ENDROOT
BRANCH   1  17
ATOM     10  N   UNL     1       6.147   5.526  17.118  0.00  0.00    +0.000 N 
ATOM     11  N   UNL     1       6.458   4.536  16.255  0.00  0.00    +0.000 NA
ATOM     12  C   UNL     1       5.347   3.796  16.210  0.00  0.00    +0.000 A 
ATOM     13  C   UNL     1       4.329   4.288  17.054  0.00  0.00    +0.000 A 
ATOM     14  C   UNL     1       3.011   3.929  17.374  0.00  0.00    +0.000 A 
ATOM     15  F   UNL     1       2.435   2.870  16.789  0.00  0.00    +0.000 F 
ATOM     16  C   UNL     1       2.276   4.681  18.296  0.00  0.00    +0.000 A 
ATOM     17  C   UNL     1       2.859   5.796  18.901  0.00  0.00    +0.000 A 
ATOM     18  C   UNL     1       4.176   6.186  18.582  0.00  0.00    +0.000 A 
ATOM     19  C   UNL     1       4.886   5.415  17.655  0.00  0.00    +0.000 A 
BRANCH  10  21
ATOM     20  C   UNL     1       7.871   6.391  18.657  0.00  0.00    +0.000 C 
ATOM     21  C   UNL     1       7.111   6.586  17.358  0.00  0.00    +0.000 C 
ENDBRANCH  10  21
ENDBRANCH   1  17
BRANCH   7  22
ATOM     22  C   UNL     1      -0.937  11.938  21.219  0.00  0.00    +0.000 C 
ATOM     23  C   UNL     1      -1.856  12.323  20.060  0.00  0.00    +0.000 C 
ATOM     24  C   UNL     1      -1.640  11.988  22.620  0.00  0.00    +0.000 C 
ATOM     25  N   UNL     1      -1.117  13.332  22.734  0.00  0.00    +0.000 N 
ATOM     26  C   UNL     1      -1.329  14.402  23.546  0.00  0.00    +0.000 C 
ATOM     27  C   UNL     1      -2.429  14.277  24.565  0.00  0.00    +0.000 C 
ATOM     28  O   UNL     1      -0.671  15.436  23.452  0.00  0.00    +0.000 OA
ATOM     29  C   UNL     1      -0.058  13.107  21.772  0.00  0.00    +0.000 C 
ENDBRANCH   7  22
TORSDOF 3
ENDMDL
MODEL 4
REMARK VINA RESULT:      -8.3      2.330      3.129
REMARK  Name = 
REMARK  6 active torsions:
REMARK  status: ('A' for Active; 'I' for Inactive)
REMARK    1  A    between atoms: C_1  and  C_2
REMARK    2  A    between atoms: C_2  and  N_3
REMARK    3  A    between atoms: C_10  and  C_11
REMARK    4  A    between atoms: C_17  and  C_18
REMARK    5  A    between atoms: C_18  and  C_19
REMARK    6  A    between atoms: C_22  and  C_23
REMARK                            x       y       z     vdW  Elec       q    Type
REMARK                         _______ _______ _______ _____ _____    ______ ____
ROOT
ATOM      1  C   UNL     1       2.098   6.532  19.925  0.00  0.00    +0.000 C 
ATOM      2  O   UNL     1       1.554   5.931  20.847  0.00  0.00    +0.000 OA
ATOM      3  N   UNL     1       2.041   7.885  19.685  0.00  0.00    +0.000 N 
ATOM      4  C   UNL     1       1.313   8.699  20.517  0.00  0.00    +0.000 A 
ATOM      5  N   UNL     1       0.792   8.449  21.694  0.00  0.00    +0.000 NA
ATOM      6  N   UNL     1       0.066   9.519  22.179  0.00  0.00    +0.000 NA
ATOM      7  C   UNL     1       0.056  10.534  21.341  0.00  0.00    +0.000 A 
ATOM      8  S   UNL     1       1.002  10.266  19.923  0.00  0.00    +0.000 S 
ATOM      9  H   UNL     1       2.374   8.287  18.821  0.00  0.00    +0.000 HD
ENDROOT
BRANCH   1  17
ATOM     10  N   UNL     1       6.049   5.553  17.014  0.00  0.00    +0.000 N 
ATOM     11  N   UNL     1       6.345   4.597  16.109  0.00  0.00    +0.000 NA
ATOM     12  C   UNL     1       5.244   3.841  16.075  0.00  0.00    +0.000 A 
ATOM     13  C   UNL     1       4.249   4.289  16.969  0.00  0.00    +0.000 A 
ATOM     14  C   UNL     1       2.947   3.899  17.319  0.00  0.00    +0.000 A 
ATOM     15  F   UNL     1       2.368   2.851  16.719  0.00  0.00    +0.000 F 
ATOM     16  C   UNL     1       2.232   4.607  18.290  0.00  0.00    +0.000 A 
ATOM     17  C   UNL     1       2.819   5.711  18.913  0.00  0.00    +0.000 A 
ATOM     18  C   UNL     1       4.118   6.132  18.564  0.00  0.00    +0.000 A 
ATOM     19  C   UNL     1       4.808   5.403  17.589  0.00  0.00    +0.000 A 
BRANCH  10  21
ATOM     20  C   UNL     1       7.759   6.431  18.561  0.00  0.00    +0.000 C 
ATOM     21  C   UNL     1       7.004   6.619  17.258  0.00  0.00    +0.000 C 
ENDBRANCH  10  21
ENDBRANCH   1  17
BRANCH   7  22
ATOM     22  C   UNL     1      -0.726  11.830  21.651  0.00  0.00    +0.000 C 
ATOM     23  C   UNL     1       0.092  13.118  21.572  0.00  0.00    +0.000 C 
ATOM     24  C   UNL     1      -2.108  11.919  20.915  0.00  0.00    +0.000 C 
ATOM     25  N   UNL     1      -2.667  12.278  22.199  0.00  0.00    +0.000 N 
ATOM     26  C   UNL     1      -3.843  12.793  22.648  0.00  0.00    +0.000 C 
ATOM     27  C   UNL     1      -4.851  13.200  21.607  0.00  0.00    +0.000 C 
ATOM     28  O   UNL     1      -4.080  12.941  23.845  0.00  0.00    +0.000 OA
ATOM     29  C   UNL     1      -1.583  11.679  22.951  0.00  0.00    +0.000 C 
ENDBRANCH   7  22
TORSDOF 3
ENDMDL
MODEL 5
REMARK VINA RESULT:      -8.3      1.585      1.787
REMARK  Name = 
REMARK  6 active torsions:
REMARK  status: ('A' for Active; 'I' for Inactive)
REMARK    1  A    between atoms: C_1  and  C_2
REMARK    2  A    between atoms: C_2  and  N_3
REMARK    3  A    between atoms: C_10  and  C_11
REMARK    4  A    between atoms: C_17  and  C_18
REMARK    5  A    between atoms: C_18  and  C_19
REMARK    6  A    between atoms: C_22  and  C_23
REMARK                            x       y       z     vdW  Elec       q    Type
REMARK                         _______ _______ _______ _____ _____    ______ ____
ROOT
ATOM      1  C   UNL     1       2.088   8.469  18.238  0.00  0.00    +0.000 C 
ATOM      2  O   UNL     1       2.153   9.069  17.169  0.00  0.00    +0.000 OA
ATOM      3  N   UNL     1       1.443   8.894  19.376  0.00  0.00    +0.000 N 
ATOM      4  C   UNL     1       0.795  10.105  19.385  0.00  0.00    +0.000 A 
ATOM      5  N   UNL     1       0.478  10.897  18.390  0.00  0.00    +0.000 NA
ATOM      6  N   UNL     1      -0.111  12.068  18.825  0.00  0.00    +0.000 NA
ATOM      7  C   UNL     1      -0.205  12.120  20.136  0.00  0.00    +0.000 A 
ATOM      8  S   UNL     1       0.365  10.695  20.926  0.00  0.00    +0.000 S 
ATOM      9  H   UNL     1       1.568   8.431  20.263  0.00  0.00    +0.000 HD
ENDROOT
BRANCH   1  17
ATOM     10  N   UNL     1       3.031   4.035  20.356  0.00  0.00    +0.000 N 
ATOM     11  N   UNL     1       3.941   3.061  20.149  0.00  0.00    +0.000 NA
ATOM     12  C   UNL     1       4.694   3.537  19.154  0.00  0.00    +0.000 A 
ATOM     13  C   UNL     1       4.263   4.802  18.702  0.00  0.00    +0.000 A 
ATOM     14  C   UNL     1       4.675   5.730  17.735  0.00  0.00    +0.000 A 
ATOM     15  F   UNL     1       5.755   5.490  16.979  0.00  0.00    +0.000 F 
ATOM     16  C   UNL     1       3.973   6.927  17.557  0.00  0.00    +0.000 A 
ATOM     17  C   UNL     1       2.855   7.198  18.349  0.00  0.00    +0.000 A 
ATOM     18  C   UNL     1       2.434   6.288  19.340  0.00  0.00    +0.000 A 
ATOM     19  C   UNL     1       3.156   5.099  19.494  0.00  0.00    +0.000 A 
BRANCH  10  21
ATOM     20  C   UNL     1       1.372   2.550  21.420  0.00  0.00    +0.000 C 
ATOM     21  C   UNL     1       2.075   3.894  21.440  0.00  0.00    +0.000 C 
ENDBRANCH  10  21
ENDBRANCH   1  17
BRANCH   7  22
ATOM     22  C   UNL     1      -0.796  13.354  20.856  0.00  0.00    +0.000 C 
ATOM     23  C   UNL     1      -1.019  14.579  19.971  0.00  0.00    +0.000 C 
ATOM     24  C   UNL     1      -2.019  13.014  21.777  0.00  0.00    +0.000 C 
ATOM     25  N   UNL     1      -1.353  13.794  22.797  0.00  0.00    +0.000 N 
ATOM     26  C   UNL     1      -1.692  14.330  24.000  0.00  0.00    +0.000 C 
ATOM     27  C   UNL     1      -3.128  14.197  24.425  0.00  0.00    +0.000 C 
ATOM     28  O   UNL     1      -0.875  14.913  24.711  0.00  0.00    +0.000 OA
ATOM     29  C   UNL     1      -0.043  13.644  22.196  0.00  0.00    +0.000 C 
ENDBRANCH   7  22
TORSDOF 3
ENDMDL
MODEL 6
REMARK VINA RESULT:      -8.2      3.252     10.162
REMARK  Name = 
REMARK  6 active torsions:
REMARK  status: ('A' for Active; 'I' for Inactive)
REMARK    1  A    between atoms: C_1  and  C_2
REMARK    2  A    between atoms: C_2  and  N_3
REMARK    3  A    between atoms: C_10  and  C_11
REMARK    4  A    between atoms: C_17  and  C_18
REMARK    5  A    between atoms: C_18  and  C_19
REMARK    6  A    between atoms: C_22  and  C_23
REMARK                            x       y       z     vdW  Elec       q    Type
REMARK                         _______ _______ _______ _____ _____    ______ ____
ROOT
ATOM      1  C   UNL     1       0.855   9.248  20.131  0.00  0.00    +0.000 C 
ATOM      2  O   UNL     1       0.876   8.625  21.189  0.00  0.00    +0.000 OA
ATOM      3  N   UNL     1       1.510   8.910  18.970  0.00  0.00    +0.000 N 
ATOM      4  C   UNL     1       2.289   7.779  18.927  0.00  0.00    +0.000 A 
ATOM      5  N   UNL     1       2.372   6.782  19.773  0.00  0.00    +0.000 NA
ATOM      6  N   UNL     1       3.334   5.863  19.401  0.00  0.00    +0.000 NA
ATOM      7  C   UNL     1       3.950   6.210  18.292  0.00  0.00    +0.000 A 
ATOM      8  S   UNL     1       3.338   7.662  17.588  0.00  0.00    +0.000 S 
ATOM      9  H   UNL     1       1.582   9.550  18.193  0.00  0.00    +0.000 HD
ENDROOT
BRANCH   1  17
ATOM     10  N   UNL     1      -2.218  12.615  22.196  0.00  0.00    +0.000 N 
ATOM     11  N   UNL     1      -2.707  13.812  21.812  0.00  0.00    +0.000 NA
ATOM     12  C   UNL     1      -2.192  13.987  20.592  0.00  0.00    +0.000 A 
ATOM     13  C   UNL     1      -1.356  12.923  20.195  0.00  0.00    +0.000 A 
ATOM     14  C   UNL     1      -0.600  12.592  19.061  0.00  0.00    +0.000 A 
ATOM     15  F   UNL     1      -0.588  13.401  17.993  0.00  0.00    +0.000 F 
ATOM     16  C   UNL     1       0.139  11.405  19.022  0.00  0.00    +0.000 A 
ATOM     17  C   UNL     1       0.123  10.544  20.122  0.00  0.00    +0.000 A 
ATOM     18  C   UNL     1      -0.643  10.848  21.266  0.00  0.00    +0.000 A 
ATOM     19  C   UNL     1      -1.372  12.042  21.274  0.00  0.00    +0.000 A 
BRANCH  10  21
ATOM     20  C   UNL     1      -3.965  12.615  23.939  0.00  0.00    +0.000 C 
ATOM     21  C   UNL     1      -2.637  12.052  23.467  0.00  0.00    +0.000 C 
ENDBRANCH  10  21
ENDBRANCH   1  17
BRANCH   7  22
ATOM     22  C   UNL     1       5.094   5.355  17.701  0.00  0.00    +0.000 C 
ATOM     23  C   UNL     1       5.815   4.452  18.701  0.00  0.00    +0.000 C 
ATOM     24  C   UNL     1       4.706   4.628  16.366  0.00  0.00    +0.000 C 
ATOM     25  N   UNL     1       5.951   5.137  15.833  0.00  0.00    +0.000 N 
ATOM     26  C   UNL     1       6.717   4.902  14.735  0.00  0.00    +0.000 C 
ATOM     27  C   UNL     1       6.280   3.786  13.825  0.00  0.00    +0.000 C 
ATOM     28  O   UNL     1       7.732   5.552  14.493  0.00  0.00    +0.000 OA
ATOM     29  C   UNL     1       6.038   6.214  16.798  0.00  0.00    +0.000 C 
ENDBRANCH   7  22
TORSDOF 3
ENDMDL
MODEL 7
REMARK VINA RESULT:      -8.1      2.395      3.244
REMARK  Name = 
REMARK  6 active torsions:
REMARK  status: ('A' for Active; 'I' for Inactive)
REMARK    1  A    between atoms: C_1  and  C_2
REMARK    2  A    between atoms: C_2  and  N_3
REMARK    3  A    between atoms: C_10  and  C_11
REMARK    4  A    between atoms: C_17  and  C_18
REMARK    5  A    between atoms: C_18  and  C_19
REMARK    6  A    between atoms: C_22  and  C_23
REMARK                            x       y       z     vdW  Elec       q    Type
REMARK                         _______ _______ _______ _____ _____    ______ ____
ROOT
ATOM      1  C   UNL     1       2.184   7.082  19.481  0.00  0.00    +0.000 C 
ATOM      2  O   UNL     1       1.796   6.689  20.577  0.00  0.00    +0.000 OA
ATOM      3  N   UNL     1       1.931   8.311  18.917  0.00  0.00    +0.000 N 
ATOM      4  C   UNL     1       1.169   9.232  19.592  0.00  0.00    +0.000 A 
ATOM      5  N   UNL     1       0.778   9.245  20.843  0.00  0.00    +0.000 NA
ATOM      6  N   UNL     1      -0.042  10.320  21.120  0.00  0.00    +0.000 NA
ATOM      7  C   UNL     1      -0.250  11.073  20.061  0.00  0.00    +0.000 A 
ATOM      8  S   UNL     1       0.610  10.546  18.661  0.00  0.00    +0.000 S 
ATOM      9  H   UNL     1       2.140   8.505  17.949  0.00  0.00    +0.000 HD
ENDROOT
BRANCH   1  17
ATOM     10  N   UNL     1       6.260   5.563  17.006  0.00  0.00    +0.000 N 
ATOM     11  N   UNL     1       6.563   4.486  16.253  0.00  0.00    +0.000 NA
ATOM     12  C   UNL     1       5.429   3.781  16.237  0.00  0.00    +0.000 A 
ATOM     13  C   UNL     1       4.402   4.383  16.993  0.00  0.00    +0.000 A 
ATOM     14  C   UNL     1       3.062   4.099  17.296  0.00  0.00    +0.000 A 
ATOM     15  F   UNL     1       2.469   3.008  16.793  0.00  0.00    +0.000 F 
ATOM     16  C   UNL     1       2.323   4.958  18.116  0.00  0.00    +0.000 A 
ATOM     17  C   UNL     1       2.925   6.106  18.635  0.00  0.00    +0.000 A 
ATOM     18  C   UNL     1       4.264   6.422  18.329  0.00  0.00    +0.000 A 
ATOM     19  C   UNL     1       4.977   5.543  17.506  0.00  0.00    +0.000 A 
BRANCH  10  21
ATOM     20  C   UNL     1       7.914   6.554  18.545  0.00  0.00    +0.000 C 
ATOM     21  C   UNL     1       7.251   6.609  17.182  0.00  0.00    +0.000 C 
ENDBRANCH  10  21
ENDBRANCH   1  17
BRANCH   7  22
ATOM     22  C   UNL     1      -1.169  12.314  20.119  0.00  0.00    +0.000 C 
ATOM     23  C   UNL     1      -0.492  13.642  19.781  0.00  0.00    +0.000 C 
ATOM     24  C   UNL     1      -2.544  12.110  19.394  0.00  0.00    +0.000 C 
ATOM     25  N   UNL     1      -3.153  12.652  20.589  0.00  0.00    +0.000 N 
ATOM     26  C   UNL     1      -4.382  13.117  20.939  0.00  0.00    +0.000 C 
ATOM     27  C   UNL     1      -5.415  13.202  19.849  0.00  0.00    +0.000 C 
ATOM     28  O   UNL     1      -4.646  13.470  22.087  0.00  0.00    +0.000 OA
ATOM     29  C   UNL     1      -2.020  12.330  21.432  0.00  0.00    +0.000 C 
ENDBRANCH   7  22
TORSDOF 3
ENDMDL
MODEL 8
REMARK VINA RESULT:      -8.1      1.677      2.086
REMARK  Name = 
REMARK  6 active torsions:
REMARK  status: ('A' for Active; 'I' for Inactive)
REMARK    1  A    between atoms: C_1  and  C_2
REMARK    2  A    between atoms: C_2  and  N_3
REMARK    3  A    between atoms: C_10  and  C_11
REMARK    4  A    between atoms: C_17  and  C_18
REMARK    5  A    between atoms: C_18  and  C_19
REMARK    6  A    between atoms: C_22  and  C_23
REMARK                            x       y       z     vdW  Elec       q    Type
REMARK                         _______ _______ _______ _____ _____    ______ ____
ROOT
ATOM      1  C   UNL     1       2.991   7.595  17.823  0.00  0.00    +0.000 C 
ATOM      2  O   UNL     1       3.903   8.337  17.470  0.00  0.00    +0.000 OA
ATOM      3  N   UNL     1       1.780   7.982  18.348  0.00  0.00    +0.000 N 
ATOM      4  C   UNL     1       1.505   9.315  18.529  0.00  0.00    +0.000 A 
ATOM      5  N   UNL     1       2.135  10.372  18.078  0.00  0.00    +0.000 NA
ATOM      6  N   UNL     1       1.580  11.547  18.545  0.00  0.00    +0.000 NA
ATOM      7  C   UNL     1       0.556  11.330  19.343  0.00  0.00    +0.000 A 
ATOM      8  S   UNL     1       0.161   9.659  19.519  0.00  0.00    +0.000 S 
ATOM      9  H   UNL     1       1.146   7.319  18.768  0.00  0.00    +0.000 HD
ENDROOT
BRANCH   1  17
ATOM     10  N   UNL     1       2.085   2.878  19.227  0.00  0.00    +0.000 N 
ATOM     11  N   UNL     1       2.614   1.677  18.910  0.00  0.00    +0.000 NA
ATOM     12  C   UNL     1       3.590   1.978  18.049  0.00  0.00    +0.000 A 
ATOM     13  C   UNL     1       3.680   3.362  17.790  0.00  0.00    +0.000 A 
ATOM     14  C   UNL     1       4.494   4.199  17.013  0.00  0.00    +0.000 A 
ATOM     15  F   UNL     1       5.497   3.688  16.286  0.00  0.00    +0.000 F 
ATOM     16  C   UNL     1       4.280   5.582  16.998  0.00  0.00    +0.000 A 
ATOM     17  C   UNL     1       3.247   6.130  17.763  0.00  0.00    +0.000 A 
ATOM     18  C   UNL     1       2.429   5.309  18.566  0.00  0.00    +0.000 A 
ATOM     19  C   UNL     1       2.668   3.931  18.560  0.00  0.00    +0.000 A 
BRANCH  10  21
ATOM     20  C   UNL     1       1.562   2.871  21.638  0.00  0.00    +0.000 C 
ATOM     21  C   UNL     1       1.029   2.948  20.220  0.00  0.00    +0.000 C 
ENDBRANCH  10  21
ENDBRANCH   1  17
BRANCH   7  22
ATOM     22  C   UNL     1      -0.203  12.494  20.018  0.00  0.00    +0.000 C 
ATOM     23  C   UNL     1      -0.462  13.708  19.126  0.00  0.00    +0.000 C 
ATOM     24  C   UNL     1      -1.464  12.032  20.830  0.00  0.00    +0.000 C 
ATOM     25  N   UNL     1      -0.959  12.854  21.908  0.00  0.00    +0.000 N 
ATOM     26  C   UNL     1      -1.445  13.339  23.082  0.00  0.00    +0.000 C 
ATOM     27  C   UNL     1      -2.895  13.071  23.382  0.00  0.00    +0.000 C 
ATOM     28  O   UNL     1      -0.748  13.983  23.863  0.00  0.00    +0.000 OA
ATOM     29  C   UNL     1       0.404  12.832  21.419  0.00  0.00    +0.000 C 
ENDBRANCH   7  22
TORSDOF 3
ENDMDL
MODEL 9
REMARK VINA RESULT:      -8.1      2.110      2.928
REMARK  Name = 
REMARK  6 active torsions:
REMARK  status: ('A' for Active; 'I' for Inactive)
REMARK    1  A    between atoms: C_1  and  C_2
REMARK    2  A    between atoms: C_2  and  N_3
REMARK    3  A    between atoms: C_10  and  C_11
REMARK    4  A    between atoms: C_17  and  C_18
REMARK    5  A    between atoms: C_18  and  C_19
REMARK    6  A    between atoms: C_22  and  C_23
REMARK                            x       y       z     vdW  Elec       q    Type
REMARK                         _______ _______ _______ _____ _____    ______ ____
ROOT
ATOM      1  C   UNL     1       1.932   8.737  18.486  0.00  0.00    +0.000 C 
ATOM      2  O   UNL     1       2.096   9.368  17.446  0.00  0.00    +0.000 OA
ATOM      3  N   UNL     1       1.231   9.153  19.593  0.00  0.00    +0.000 N 
ATOM      4  C   UNL     1       0.637  10.391  19.603  0.00  0.00    +0.000 A 
ATOM      5  N   UNL     1       0.422  11.229  18.619  0.00  0.00    +0.000 NA
ATOM      6  N   UNL     1      -0.144  12.411  19.056  0.00  0.00    +0.000 NA
ATOM      7  C   UNL     1      -0.324  12.424  20.359  0.00  0.00    +0.000 A 
ATOM      8  S   UNL     1       0.129  10.949  21.132  0.00  0.00    +0.000 S 
ATOM      9  H   UNL     1       1.275   8.655  20.470  0.00  0.00    +0.000 HD
ENDROOT
BRANCH   1  17
ATOM     10  N   UNL     1       4.998   5.185  16.747  0.00  0.00    +0.000 N 
ATOM     11  N   UNL     1       5.417   3.987  17.206  0.00  0.00    +0.000 NA
ATOM     12  C   UNL     1       4.771   3.850  18.367  0.00  0.00    +0.000 A 
ATOM     13  C   UNL     1       3.956   4.960  18.672  0.00  0.00    +0.000 A 
ATOM     14  C   UNL     1       3.085   5.328  19.708  0.00  0.00    +0.000 A 
ATOM     15  F   UNL     1       2.864   4.497  20.736  0.00  0.00    +0.000 F 
ATOM     16  C   UNL     1       2.424   6.560  19.675  0.00  0.00    +0.000 A 
ATOM     17  C   UNL     1       2.634   7.429  18.602  0.00  0.00    +0.000 A 
ATOM     18  C   UNL     1       3.491   7.073  17.540  0.00  0.00    +0.000 A 
ATOM     19  C   UNL     1       4.137   5.833  17.602  0.00  0.00    +0.000 A 
BRANCH  10  21
ATOM     20  C   UNL     1       5.667   4.491  14.475  0.00  0.00    +0.000 C 
ATOM     21  C   UNL     1       5.443   5.639  15.442  0.00  0.00    +0.000 C 
ENDBRANCH  10  21
ENDBRANCH   1  17
BRANCH   7  22
ATOM     22  C   UNL     1      -0.908  13.658  21.082  0.00  0.00    +0.000 C 
ATOM     23  C   UNL     1      -1.298  14.822  20.172  0.00  0.00    +0.000 C 
ATOM     24  C   UNL     1      -2.004  13.300  22.146  0.00  0.00    +0.000 C 
ATOM     25  N   UNL     1      -1.281  14.167  23.050  0.00  0.00    +0.000 N 
ATOM     26  C   UNL     1      -1.522  14.745  24.257  0.00  0.00    +0.000 C 
ATOM     27  C   UNL     1      -2.894  14.555  24.843  0.00  0.00    +0.000 C 
ATOM     28  O   UNL     1      -0.671  15.408  24.847  0.00  0.00    +0.000 OA
ATOM     29  C   UNL     1      -0.036  14.059  22.317  0.00  0.00    +0.000 C 
ENDBRANCH   7  22
TORSDOF 3
ENDMDL
