MODEL 1
REMARK VINA RESULT:      -7.4      0.000      0.000
REMARK  Name = 
REMARK  11 active torsions:
REMARK  status: ('A' for Active; 'I' for Inactive)
REMARK    1  A    between atoms: C_1  and  N_2
REMARK    2  A    between atoms: N_2  and  C_3
REMARK    3  A    between atoms: C_4  and  O_6
REMARK    4  A    between atoms: O_6  and  C_7
REMARK    5  A    between atoms: C_10  and  C_11
REMARK    6  A    between atoms: C_11  and  CA_12
REMARK    7  A    between atoms: CA_12  and  N_13
REMARK    8  A    between atoms: CA_12  and  C_26
REMARK    9  A    between atoms: N_13  and  C_14
REMARK   10  A    between atoms: C_19  and  C_20
REMARK   11  A    between atoms: C_26  and  OXT_28
REMARK                            x       y       z     vdW  Elec       q    Type
REMARK                         _______ _______ _______ _____ _____    ______ ____
ROOT
ATOM      1  CA  UNL     1      -0.030   9.607  21.437  0.00  0.00    +0.000 C 
ENDROOT
BRANCH   1   2
ATOM      2  N   UNL     1      -0.811  10.848  21.309  0.00  0.00    +0.000 N 
ATOM      3  H   UNL     1      -1.788  10.696  21.053  0.00  0.00    +0.000 HD
BRANCH   2   4
ATOM      4  C   UNL     1      -0.315  11.999  20.710  0.00  0.00    +0.000 A 
ATOM      5  N   UNL     1       0.500  12.779  21.455  0.00  0.00    +0.000 NA
ATOM      6  C   UNL     1       1.087  13.801  20.804  0.00  0.00    +0.000 A 
ATOM      7  N   UNL     1       0.934  14.115  19.512  0.00  0.00    +0.000 NA
ATOM      8  C   UNL     1       0.071  13.340  18.828  0.00  0.00    +0.000 A 
ATOM      9  C   UNL     1      -0.625  12.262  19.356  0.00  0.00    +0.000 A 
BRANCH   9  10
ATOM     10  C   UNL     1      -1.669  11.543  18.560  0.00  0.00    +0.000 A 
ATOM     11  C   UNL     1      -3.036  11.851  18.644  0.00  0.00    +0.000 A 
ATOM     12  C   UNL     1      -3.960  11.098  17.922  0.00  0.00    +0.000 A 
ATOM     13  N   UNL     1      -3.632  10.085  17.100  0.00  0.00    +0.000 NA
ATOM     14  C   UNL     1      -2.324   9.788  17.018  0.00  0.00    +0.000 A 
ATOM     15  C   UNL     1      -1.343  10.455  17.732  0.00  0.00    +0.000 A 
ENDBRANCH   9  10
ENDBRANCH   2   4
ENDBRANCH   1   2
BRANCH   1  16
ATOM     16  C   UNL     1       0.511   9.443  22.858  0.00  0.00    +0.000 C 
ATOM     17  O   UNL     1       1.696   9.432  23.167  0.00  0.00    +0.000 OA
BRANCH  16  18
ATOM     18  OXT UNL     1      -0.474   9.350  23.794  0.00  0.00    +0.000 OA
ATOM     19  HXT UNL     1      -1.291   8.976  23.391  0.00  0.00    +0.000 HD
ENDBRANCH  16  18
ENDBRANCH   1  16
BRANCH   1  20
ATOM     20  C   UNL     1       1.116   9.738  20.415  0.00  0.00    +0.000 C 
BRANCH  20  24
ATOM     21  C   UNL     1       2.832   6.395  18.364  0.00  0.00    +0.000 A 
ATOM     22  C   UNL     1       2.523   7.539  17.628  0.00  0.00    +0.000 A 
ATOM     23  C   UNL     1       1.875   8.610  18.257  0.00  0.00    +0.000 A 
ATOM     24  C   UNL     1       1.534   8.531  19.616  0.00  0.00    +0.000 A 
ATOM     25  C   UNL     1       1.760   7.330  20.304  0.00  0.00    +0.000 A 
ATOM     26  C   UNL     1       2.387   6.260  19.676  0.00  0.00    +0.000 A 
BRANCH  21  27
ATOM     27  O   UNL     1       3.574   5.376  17.738  0.00  0.00    +0.000 OA
BRANCH  27  31
ATOM     28  C   UNL     1       3.278   1.766  18.266  0.00  0.00    +0.000 C 
ATOM     29  N   UNL     1       3.742   3.136  18.344  0.00  0.00    +0.000 N 
ATOM     30  C   UNL     1       4.807   3.475  19.266  0.00  0.00    +0.000 C 
ATOM     31  C   UNL     1       2.978   4.109  17.714  0.00  0.00    +0.000 C 
ATOM     32  O   UNL     1       1.910   3.846  17.165  0.00  0.00    +0.000 OA
ENDBRANCH  27  31
ENDBRANCH  21  27
ENDBRANCH  20  24
ENDBRANCH   1  20
TORSDOF 9
ENDMDL
MODEL 2
REMARK VINA RESULT:      -7.3      0.764      1.533
REMARK  Name = 
REMARK  11 active torsions:
REMARK  status: ('A' for Active; 'I' for Inactive)
REMARK    1  A    between atoms: C_1  and  N_2
REMARK    2  A    between atoms: N_2  and  C_3
REMARK    3  A    between atoms: C_4  and  O_6
REMARK    4  A    between atoms: O_6  and  C_7
REMARK    5  A    between atoms: C_10  and  C_11
REMARK    6  A    between atoms: C_11  and  CA_12
REMARK    7  A    between atoms: CA_12  and  N_13
REMARK    8  A    between atoms: CA_12  and  C_26
REMARK    9  A    between atoms: N_13  and  C_14
REMARK   10  A    between atoms: C_19  and  C_20
REMARK   11  A    between atoms: C_26  and  OXT_28
REMARK                            x       y       z     vdW  Elec       q    Type
REMARK                         _______ _______ _______ _____ _____    ______ ____
ROOT
ATOM      1  CA  UNL     1       0.186   9.270  21.488  0.00  0.00    +0.000 C 
ENDROOT
BRANCH   1   2
ATOM      2  N   UNL     1      -0.827  10.312  21.260  0.00  0.00    +0.000 N 
ATOM      3  H   UNL     1      -1.652   9.983  20.754  0.00  0.00    +0.000 HD
BRANCH   2   4
ATOM      4  C   UNL     1      -0.509  11.615  20.896  0.00  0.00    +0.000 A 
ATOM      5  N   UNL     1       0.155  12.364  21.803  0.00  0.00    +0.000 NA
ATOM      6  C   UNL     1       0.585  13.564  21.369  0.00  0.00    +0.000 A 
ATOM      7  N   UNL     1       0.410  14.077  20.145  0.00  0.00    +0.000 NA
ATOM      8  C   UNL     1      -0.303  13.314  19.295  0.00  0.00    +0.000 A 
ATOM      9  C   UNL     1      -0.829  12.065  19.594  0.00  0.00    +0.000 A 
BRANCH   9  10
ATOM     10  C   UNL     1      -1.728  11.349  18.636  0.00  0.00    +0.000 A 
ATOM     11  C   UNL     1      -1.268  10.356  17.755  0.00  0.00    +0.000 A 
ATOM     12  C   UNL     1      -2.148   9.776  16.846  0.00  0.00    +0.000 A 
ATOM     13  N   UNL     1      -3.457  10.079  16.762  0.00  0.00    +0.000 NA
ATOM     14  C   UNL     1      -3.901  11.028  17.602  0.00  0.00    +0.000 A 
ATOM     15  C   UNL     1      -3.086  11.688  18.509  0.00  0.00    +0.000 A 
ENDBRANCH   9  10
ENDBRANCH   2   4
ENDBRANCH   1   2
BRANCH   1  16
ATOM     16  C   UNL     1       0.830   9.422  22.867  0.00  0.00    +0.000 C 
ATOM     17  O   UNL     1       0.224   9.602  23.916  0.00  0.00    +0.000 OA
BRANCH  16  18
ATOM     18  OXT UNL     1       2.186   9.293  22.836  0.00  0.00    +0.000 OA
ATOM     19  HXT UNL     1       2.470   8.567  23.437  0.00  0.00    +0.000 HD
ENDBRANCH  16  18
ENDBRANCH   1  16
BRANCH   1  20
ATOM     20  C   UNL     1       1.224   9.457  20.364  0.00  0.00    +0.000 C 
BRANCH  20  24
ATOM     21  C   UNL     1       3.100   6.114  18.458  0.00  0.00    +0.000 A 
ATOM     22  C   UNL     1       2.877   7.268  17.707  0.00  0.00    +0.000 A 
ATOM     23  C   UNL     1       2.181   8.340  18.280  0.00  0.00    +0.000 A 
ATOM     24  C   UNL     1       1.707   8.252  19.597  0.00  0.00    +0.000 A 
ATOM     25  C   UNL     1       1.851   7.042  20.292  0.00  0.00    +0.000 A 
ATOM     26  C   UNL     1       2.526   5.971  19.718  0.00  0.00    +0.000 A 
BRANCH  21  27
ATOM     27  O   UNL     1       3.889   5.092  17.897  0.00  0.00    +0.000 OA
BRANCH  27  31
ATOM     28  C   UNL     1       4.439   2.154  20.010  0.00  0.00    +0.000 C 
ATOM     29  N   UNL     1       3.908   3.041  18.994  0.00  0.00    +0.000 N 
ATOM     30  C   UNL     1       2.921   2.541  18.059  0.00  0.00    +0.000 C 
ATOM     31  C   UNL     1       4.550   4.257  18.807  0.00  0.00    +0.000 C 
ATOM     32  O   UNL     1       5.572   4.557  19.419  0.00  0.00    +0.000 OA
ENDBRANCH  27  31
ENDBRANCH  21  27
ENDBRANCH  20  24
ENDBRANCH   1  20
TORSDOF 9
ENDMDL
MODEL 3
REMARK VINA RESULT:      -7.3      1.187      1.898
REMARK  Name = 
REMARK  11 active torsions:
REMARK  status: ('A' for Active; 'I' for Inactive)
REMARK    1  A    between atoms: C_1  and  N_2
REMARK    2  A    between atoms: N_2  and  C_3
REMARK    3  A    between atoms: C_4  and  O_6
REMARK    4  A    between atoms: O_6  and  C_7
REMARK    5  A    between atoms: C_10  and  C_11
REMARK    6  A    between atoms: C_11  and  CA_12
REMARK    7  A    between atoms: CA_12  and  N_13
REMARK    8  A    between atoms: CA_12  and  C_26
REMARK    9  A    between atoms: N_13  and  C_14
REMARK   10  A    between atoms: C_19  and  C_20
REMARK   11  A    between atoms: C_26  and  OXT_28
REMARK                            x       y       z     vdW  Elec       q    Type
REMARK                         _______ _______ _______ _____ _____    ______ ____
ROOT
ATOM      1  CA  UNL     1       0.199   9.501  21.538  0.00  0.00    +0.000 C 
ENDROOT
BRANCH   1   2
ATOM      2  N   UNL     1      -0.675  10.667  21.335  0.00  0.00    +0.000 N 
ATOM      3  H   UNL     1      -1.608  10.430  20.994  0.00  0.00    +0.000 HD
BRANCH   2   4
ATOM      4  C   UNL     1      -0.232  11.861  20.780  0.00  0.00    +0.000 A 
ATOM      5  N   UNL     1       0.527  12.661  21.561  0.00  0.00    +0.000 NA
ATOM      6  C   UNL     1       1.069  13.732  20.951  0.00  0.00    +0.000 A 
ATOM      7  N   UNL     1       0.920  14.076  19.666  0.00  0.00    +0.000 NA
ATOM      8  C   UNL     1       0.112  13.277  18.944  0.00  0.00    +0.000 A 
ATOM      9  C   UNL     1      -0.533  12.148  19.428  0.00  0.00    +0.000 A 
BRANCH   9  10
ATOM     10  C   UNL     1      -1.524  11.399  18.594  0.00  0.00    +0.000 A 
ATOM     11  C   UNL     1      -1.151  10.396  17.685  0.00  0.00    +0.000 A 
ATOM     12  C   UNL     1      -2.120   9.784  16.894  0.00  0.00    +0.000 A 
ATOM     13  N   UNL     1      -3.435  10.065  16.955  0.00  0.00    +0.000 NA
ATOM     14  C   UNL     1      -3.796  11.024  17.823  0.00  0.00    +0.000 A 
ATOM     15  C   UNL     1      -2.894  11.715  18.618  0.00  0.00    +0.000 A 
ENDBRANCH   9  10
ENDBRANCH   2   4
ENDBRANCH   1   2
BRANCH   1  16
ATOM     16  C   UNL     1       0.827   9.520  22.932  0.00  0.00    +0.000 C 
ATOM     17  O   UNL     1       0.212   9.649  23.984  0.00  0.00    +0.000 OA
BRANCH  16  18
ATOM     18  OXT UNL     1       2.175   9.331  22.910  0.00  0.00    +0.000 OA
ATOM     19  HXT UNL     1       2.585   9.716  23.718  0.00  0.00    +0.000 HD
ENDBRANCH  16  18
ENDBRANCH   1  16
BRANCH   1  20
ATOM     20  C   UNL     1       1.276   9.603  20.440  0.00  0.00    +0.000 C 
BRANCH  20  24
ATOM     21  C   UNL     1       2.970   6.131  18.594  0.00  0.00    +0.000 A 
ATOM     22  C   UNL     1       2.797   7.277  17.819  0.00  0.00    +0.000 A 
ATOM     23  C   UNL     1       2.159   8.395  18.374  0.00  0.00    +0.000 A 
ATOM     24  C   UNL     1       1.693   8.359  19.697  0.00  0.00    +0.000 A 
ATOM     25  C   UNL     1       1.784   7.160  20.417  0.00  0.00    +0.000 A 
ATOM     26  C   UNL     1       2.401   6.045  19.862  0.00  0.00    +0.000 A 
BRANCH  21  27
ATOM     27  O   UNL     1       3.703   5.059  18.051  0.00  0.00    +0.000 OA
BRANCH  27  31
ATOM     28  C   UNL     1       7.281   4.669  17.385  0.00  0.00    +0.000 C 
ATOM     29  N   UNL     1       5.853   4.820  17.195  0.00  0.00    +0.000 N 
ATOM     30  C   UNL     1       5.328   4.981  15.854  0.00  0.00    +0.000 C 
ATOM     31  C   UNL     1       5.077   5.054  18.322  0.00  0.00    +0.000 C 
ATOM     32  O   UNL     1       5.572   5.200  19.437  0.00  0.00    +0.000 OA
ENDBRANCH  27  31
ENDBRANCH  21  27
ENDBRANCH  20  24
ENDBRANCH   1  20
TORSDOF 9
ENDMDL
MODEL 4
REMARK VINA RESULT:      -7.3      2.895      8.813
REMARK  Name = 
REMARK  11 active torsions:
REMARK  status: ('A' for Active; 'I' for Inactive)
REMARK    1  A    between atoms: C_1  and  N_2
REMARK    2  A    between atoms: N_2  and  C_3
REMARK    3  A    between atoms: C_4  and  O_6
REMARK    4  A    between atoms: O_6  and  C_7
REMARK    5  A    between atoms: C_10  and  C_11
REMARK    6  A    between atoms: C_11  and  CA_12
REMARK    7  A    between atoms: CA_12  and  N_13
REMARK    8  A    between atoms: CA_12  and  C_26
REMARK    9  A    between atoms: N_13  and  C_14
REMARK   10  A    between atoms: C_19  and  C_20
REMARK   11  A    between atoms: C_26  and  OXT_28
REMARK                            x       y       z     vdW  Elec       q    Type
REMARK                         _______ _______ _______ _____ _____    ______ ____
ROOT
ATOM      1  CA  UNL     1       6.381   5.479  18.522  0.00  0.00    +0.000 C 
ENDROOT
BRANCH   1   2
ATOM      2  N   UNL     1       6.742   4.368  17.628  0.00  0.00    +0.000 N 
ATOM      3  H   UNL     1       7.669   3.978  17.808  0.00  0.00    +0.000 HD
BRANCH   2   4
ATOM      4  C   UNL     1       6.459   4.363  16.268  0.00  0.00    +0.000 A 
ATOM      5  N   UNL     1       7.384   4.902  15.443  0.00  0.00    +0.000 NA
ATOM      6  C   UNL     1       7.155   4.744  14.126  0.00  0.00    +0.000 A 
ATOM      7  N   UNL     1       6.109   4.122  13.567  0.00  0.00    +0.000 NA
ATOM      8  C   UNL     1       5.190   3.651  14.431  0.00  0.00    +0.000 A 
ATOM      9  C   UNL     1       5.270   3.747  15.813  0.00  0.00    +0.000 A 
BRANCH   9  10
ATOM     10  C   UNL     1       4.135   3.320  16.691  0.00  0.00    +0.000 A 
ATOM     11  C   UNL     1       4.187   2.173  17.499  0.00  0.00    +0.000 A 
ATOM     12  C   UNL     1       3.070   1.800  18.243  0.00  0.00    +0.000 A 
ATOM     13  N   UNL     1       1.916   2.492  18.273  0.00  0.00    +0.000 NA
ATOM     14  C   UNL     1       1.863   3.590  17.501  0.00  0.00    +0.000 A 
ATOM     15  C   UNL     1       2.911   4.011  16.697  0.00  0.00    +0.000 A 
ENDBRANCH   9  10
ENDBRANCH   2   4
ENDBRANCH   1   2
BRANCH   1  16
ATOM     16  C   UNL     1       7.611   6.026  19.246  0.00  0.00    +0.000 C 
ATOM     17  O   UNL     1       8.315   6.947  18.852  0.00  0.00    +0.000 OA
BRANCH  16  18
ATOM     18  OXT UNL     1       7.846   5.406  20.436  0.00  0.00    +0.000 OA
ATOM     19  HXT UNL     1       7.389   4.533  20.459  0.00  0.00    +0.000 HD
ENDBRANCH  16  18
ENDBRANCH   1  16
BRANCH   1  20
ATOM     20  C   UNL     1       5.364   4.887  19.518  0.00  0.00    +0.000 C 
BRANCH  20  24
ATOM     21  C   UNL     1       1.749   7.070  20.221  0.00  0.00    +0.000 A 
ATOM     22  C   UNL     1       1.912   5.836  20.849  0.00  0.00    +0.000 A 
ATOM     23  C   UNL     1       3.043   5.060  20.562  0.00  0.00    +0.000 A 
ATOM     24  C   UNL     1       4.001   5.518  19.645  0.00  0.00    +0.000 A 
ATOM     25  C   UNL     1       3.759   6.712  18.950  0.00  0.00    +0.000 A 
ATOM     26  C   UNL     1       2.629   7.474  19.221  0.00  0.00    +0.000 A 
BRANCH  21  27
ATOM     27  O   UNL     1       0.660   7.876  20.602  0.00  0.00    +0.000 OA
BRANCH  27  31
ATOM     28  C   UNL     1       1.029  11.513  20.794  0.00  0.00    +0.000 C 
ATOM     29  N   UNL     1       0.627  10.190  20.361  0.00  0.00    +0.000 N 
ATOM     30  C   UNL     1      -0.324  10.055  19.277  0.00  0.00    +0.000 C 
ATOM     31  C   UNL     1       0.981   9.117  21.167  0.00  0.00    +0.000 C 
ATOM     32  O   UNL     1       1.552   9.269  22.245  0.00  0.00    +0.000 OA
ENDBRANCH  27  31
ENDBRANCH  21  27
ENDBRANCH  20  24
ENDBRANCH   1  20
TORSDOF 9
ENDMDL
MODEL 5
REMARK VINA RESULT:      -7.2      0.821      1.202
REMARK  Name = 
REMARK  11 active torsions:
REMARK  status: ('A' for Active; 'I' for Inactive)
REMARK    1  A    between atoms: C_1  and  N_2
REMARK    2  A    between atoms: N_2  and  C_3
REMARK    3  A    between atoms: C_4  and  O_6
REMARK    4  A    between atoms: O_6  and  C_7
REMARK    5  A    between atoms: C_10  and  C_11
REMARK    6  A    between atoms: C_11  and  CA_12
REMARK    7  A    between atoms: CA_12  and  N_13
REMARK    8  A    between atoms: CA_12  and  C_26
REMARK    9  A    between atoms: N_13  and  C_14
REMARK   10  A    between atoms: C_19  and  C_20
REMARK   11  A    between atoms: C_26  and  OXT_28
REMARK                            x       y       z     vdW  Elec       q    Type
REMARK                         _______ _______ _______ _____ _____    ______ ____
ROOT
ATOM      1  CA  UNL     1       0.263   9.135  21.443  0.00  0.00    +0.000 C 
ENDROOT
BRANCH   1   2
ATOM      2  N   UNL     1      -0.753  10.150  21.127  0.00  0.00    +0.000 N 
ATOM      3  H   UNL     1      -1.502   9.811  20.520  0.00  0.00    +0.000 HD
BRANCH   2   4
ATOM      4  C   UNL     1      -0.443  11.473  20.837  0.00  0.00    +0.000 A 
ATOM      5  N   UNL     1       0.247  12.164  21.773  0.00  0.00    +0.000 NA
ATOM      6  C   UNL     1       0.668  13.388  21.404  0.00  0.00    +0.000 A 
ATOM      7  N   UNL     1       0.463  13.978  20.221  0.00  0.00    +0.000 NA
ATOM      8  C   UNL     1      -0.275  13.271  19.343  0.00  0.00    +0.000 A 
ATOM      9  C   UNL     1      -0.795  12.005  19.576  0.00  0.00    +0.000 A 
BRANCH   9  10
ATOM     10  C   UNL     1      -1.721  11.352  18.598  0.00  0.00    +0.000 A 
ATOM     11  C   UNL     1      -3.094  11.638  18.541  0.00  0.00    +0.000 A 
ATOM     12  C   UNL     1      -3.908  10.945  17.648  0.00  0.00    +0.000 A 
ATOM     13  N   UNL     1      -3.463  10.013  16.786  0.00  0.00    +0.000 NA
ATOM     14  C   UNL     1      -2.150   9.736  16.838  0.00  0.00    +0.000 A 
ATOM     15  C   UNL     1      -1.275  10.346  17.723  0.00  0.00    +0.000 A 
ENDBRANCH   9  10
ENDBRANCH   2   4
ENDBRANCH   1   2
BRANCH   1  16
ATOM     16  C   UNL     1       0.870   9.376  22.825  0.00  0.00    +0.000 C 
ATOM     17  O   UNL     1       2.068   9.443  23.072  0.00  0.00    +0.000 OA
BRANCH  16  18
ATOM     18  OXT UNL     1      -0.071   9.561  23.793  0.00  0.00    +0.000 OA
ATOM     19  HXT UNL     1      -0.950   9.252  23.475  0.00  0.00    +0.000 HD
ENDBRANCH  16  18
ENDBRANCH   1  16
BRANCH   1  20
ATOM     20  C   UNL     1       1.328   9.265  20.336  0.00  0.00    +0.000 C 
BRANCH  20  24
ATOM     21  C   UNL     1       3.057   5.807  18.498  0.00  0.00    +0.000 A 
ATOM     22  C   UNL     1       2.972   6.982  17.753  0.00  0.00    +0.000 A 
ATOM     23  C   UNL     1       2.326   8.100  18.298  0.00  0.00    +0.000 A 
ATOM     24  C   UNL     1       1.764   8.035  19.582  0.00  0.00    +0.000 A 
ATOM     25  C   UNL     1       1.770   6.810  20.265  0.00  0.00    +0.000 A 
ATOM     26  C   UNL     1       2.395   5.696  19.717  0.00  0.00    +0.000 A 
BRANCH  21  27
ATOM     27  O   UNL     1       3.799   4.732  17.972  0.00  0.00    +0.000 OA
BRANCH  27  31
ATOM     28  C   UNL     1       4.711   2.001  20.231  0.00  0.00    +0.000 C 
ATOM     29  N   UNL     1       4.050   2.771  19.197  0.00  0.00    +0.000 N 
ATOM     30  C   UNL     1       3.052   2.132  18.363  0.00  0.00    +0.000 C 
ATOM     31  C   UNL     1       4.579   4.017  18.889  0.00  0.00    +0.000 C 
ATOM     32  O   UNL     1       5.608   4.437  19.412  0.00  0.00    +0.000 OA
ENDBRANCH  27  31
ENDBRANCH  21  27
ENDBRANCH  20  24
ENDBRANCH   1  20
TORSDOF 9
ENDMDL
MODEL 6
REMARK VINA RESULT:      -7.1      3.033      8.818
REMARK  Name = 
REMARK  11 active torsions:
REMARK  status: ('A' for Active; 'I' for Inactive)
REMARK    1  A    between atoms: C_1  and  N_2
REMARK    2  A    between atoms: N_2  and  C_3
REMARK    3  A    between atoms: C_4  and  O_6
REMARK    4  A    between atoms: O_6  and  C_7
REMARK    5  A    between atoms: C_10  and  C_11
REMARK    6  A    between atoms: C_11  and  CA_12
REMARK    7  A    between atoms: CA_12  and  N_13
REMARK    8  A    between atoms: CA_12  and  C_26
REMARK    9  A    between atoms: N_13  and  C_14
REMARK   10  A    between atoms: C_19  and  C_20
REMARK   11  A    between atoms: C_26  and  OXT_28
REMARK                            x       y       z     vdW  Elec       q    Type
REMARK                         _______ _______ _______ _____ _____    ______ ____
ROOT
ATOM      1  CA  UNL     1       6.524   5.797  18.415  0.00  0.00    +0.000 C 
ENDROOT
BRANCH   1   2
ATOM      2  N   UNL     1       6.711   4.541  17.673  0.00  0.00    +0.000 N 
ATOM      3  H   UNL     1       7.571   4.044  17.913  0.00  0.00    +0.000 HD
BRANCH   2   4
ATOM      4  C   UNL     1       6.421   4.405  16.322  0.00  0.00    +0.000 A 
ATOM      5  N   UNL     1       7.313   4.916  15.444  0.00  0.00    +0.000 NA
ATOM      6  C   UNL     1       7.085   4.635  14.148  0.00  0.00    +0.000 A 
ATOM      7  N   UNL     1       6.069   3.917  13.655  0.00  0.00    +0.000 NA
ATOM      8  C   UNL     1       5.179   3.476  14.565  0.00  0.00    +0.000 A 
ATOM      9  C   UNL     1       5.262   3.694  15.933  0.00  0.00    +0.000 A 
BRANCH   9  10
ATOM     10  C   UNL     1       4.155   3.288  16.855  0.00  0.00    +0.000 A 
ATOM     11  C   UNL     1       4.267   2.214  17.753  0.00  0.00    +0.000 A 
ATOM     12  C   UNL     1       3.174   1.852  18.537  0.00  0.00    +0.000 A 
ATOM     13  N   UNL     1       1.989   2.491  18.524  0.00  0.00    +0.000 NA
ATOM     14  C   UNL     1       1.879   3.518  17.666  0.00  0.00    +0.000 A 
ATOM     15  C   UNL     1       2.900   3.919  16.819  0.00  0.00    +0.000 A 
ENDBRANCH   9  10
ENDBRANCH   2   4
ENDBRANCH   1   2
BRANCH   1  16
ATOM     16  C   UNL     1       7.745   6.113  19.279  0.00  0.00    +0.000 C 
ATOM     17  O   UNL     1       8.564   6.995  19.054  0.00  0.00    +0.000 OA
BRANCH  16  18
ATOM     18  OXT UNL     1       7.827   5.328  20.390  0.00  0.00    +0.000 OA
ATOM     19  HXT UNL     1       7.868   4.379  20.131  0.00  0.00    +0.000 HD
ENDBRANCH  16  18
ENDBRANCH   1  16
BRANCH   1  20
ATOM     20  C   UNL     1       5.269   5.576  19.282  0.00  0.00    +0.000 C 
BRANCH  20  24
ATOM     21  C   UNL     1       1.960   8.187  18.532  0.00  0.00    +0.000 A 
ATOM     22  C   UNL     1       1.898   7.336  19.635  0.00  0.00    +0.000 A 
ATOM     23  C   UNL     1       2.925   6.407  19.849  0.00  0.00    +0.000 A 
ATOM     24  C   UNL     1       4.004   6.329  18.956  0.00  0.00    +0.000 A 
ATOM     25  C   UNL     1       3.987   7.121  17.799  0.00  0.00    +0.000 A 
ATOM     26  C   UNL     1       2.960   8.031  17.577  0.00  0.00    +0.000 A 
BRANCH  21  27
ATOM     27  O   UNL     1       0.971   9.180  18.395  0.00  0.00    +0.000 OA
BRANCH  27  31
ATOM     28  C   UNL     1       1.077  11.880  20.864  0.00  0.00    +0.000 C 
ATOM     29  N   UNL     1       1.252  11.124  19.640  0.00  0.00    +0.000 N 
ATOM     30  C   UNL     1       1.820  11.777  18.478  0.00  0.00    +0.000 C 
ATOM     31  C   UNL     1       0.639   9.882  19.561  0.00  0.00    +0.000 C 
ATOM     32  O   UNL     1      -0.084   9.452  20.456  0.00  0.00    +0.000 OA
ENDBRANCH  27  31
ENDBRANCH  21  27
ENDBRANCH  20  24
ENDBRANCH   1  20
TORSDOF 9
ENDMDL
MODEL 7
REMARK VINA RESULT:      -7.1      3.226      9.175
REMARK  Name = 
REMARK  11 active torsions:
REMARK  status: ('A' for Active; 'I' for Inactive)
REMARK    1  A    between atoms: C_1  and  N_2
REMARK    2  A    between atoms: N_2  and  C_3
REMARK    3  A    between atoms: C_4  and  O_6
REMARK    4  A    between atoms: O_6  and  C_7
REMARK    5  A    between atoms: C_10  and  C_11
REMARK    6  A    between atoms: C_11  and  CA_12
REMARK    7  A    between atoms: CA_12  and  N_13
REMARK    8  A    between atoms: CA_12  and  C_26
REMARK    9  A    between atoms: N_13  and  C_14
REMARK   10  A    between atoms: C_19  and  C_20
REMARK   11  A    between atoms: C_26  and  OXT_28
REMARK                            x       y       z     vdW  Elec       q    Type
REMARK                         _______ _______ _______ _____ _____    ______ ____
ROOT
ATOM      1  CA  UNL     1       4.086   3.392  17.461  0.00  0.00    +0.000 C 
ENDROOT
BRANCH   1   2
ATOM      2  N   UNL     1       4.385   4.489  16.527  0.00  0.00    +0.000 N 
ATOM      3  H   UNL     1       3.563   5.022  16.239  0.00  0.00    +0.000 HD
BRANCH   2   4
ATOM      4  C   UNL     1       5.292   4.370  15.481  0.00  0.00    +0.000 A 
ATOM      5  N   UNL     1       4.893   3.670  14.396  0.00  0.00    +0.000 NA
ATOM      6  C   UNL     1       5.726   3.702  13.340  0.00  0.00    +0.000 A 
ATOM      7  N   UNL     1       6.898   4.345  13.270  0.00  0.00    +0.000 NA
ATOM      8  C   UNL     1       7.276   4.982  14.395  0.00  0.00    +0.000 A 
ATOM      9  C   UNL     1       6.539   5.030  15.569  0.00  0.00    +0.000 A 
BRANCH   9  10
ATOM     10  C   UNL     1       7.098   5.643  16.815  0.00  0.00    +0.000 A 
ATOM     11  C   UNL     1       7.240   7.029  16.985  0.00  0.00    +0.000 A 
ATOM     12  C   UNL     1       7.827   7.527  18.145  0.00  0.00    +0.000 A 
ATOM     13  N   UNL     1       8.257   6.760  19.165  0.00  0.00    +0.000 NA
ATOM     14  C   UNL     1       8.122   5.434  19.006  0.00  0.00    +0.000 A 
ATOM     15  C   UNL     1       7.589   4.850  17.868  0.00  0.00    +0.000 A 
ENDBRANCH   9  10
ENDBRANCH   2   4
ENDBRANCH   1   2
BRANCH   1  16
ATOM     16  C   UNL     1       2.606   3.011  17.406  0.00  0.00    +0.000 C 
ATOM     17  O   UNL     1       1.703   3.735  17.007  0.00  0.00    +0.000 OA
BRANCH  16  18
ATOM     18  OXT UNL     1       2.372   1.732  17.811  0.00  0.00    +0.000 OA
ATOM     19  HXT UNL     1       1.414   1.520  17.728  0.00  0.00    +0.000 HD
ENDBRANCH  16  18
ENDBRANCH   1  16
BRANCH   1  20
ATOM     20  C   UNL     1       4.472   3.926  18.855  0.00  0.00    +0.000 C 
BRANCH  20  24
ATOM     21  C   UNL     1       1.666   6.798  20.343  0.00  0.00    +0.000 A 
ATOM     22  C   UNL     1       2.607   7.215  19.402  0.00  0.00    +0.000 A 
ATOM     23  C   UNL     1       3.595   6.319  18.970  0.00  0.00    +0.000 A 
ATOM     24  C   UNL     1       3.641   5.014  19.485  0.00  0.00    +0.000 A 
ATOM     25  C   UNL     1       2.750   4.656  20.507  0.00  0.00    +0.000 A 
ATOM     26  C   UNL     1       1.781   5.550  20.949  0.00  0.00    +0.000 A 
BRANCH  21  27
ATOM     27  O   UNL     1       0.624   7.680  20.684  0.00  0.00    +0.000 OA
BRANCH  27  31
ATOM     28  C   UNL     1       1.083  11.304  20.923  0.00  0.00    +0.000 C 
ATOM     29  N   UNL     1       0.623   9.998  20.494  0.00  0.00    +0.000 N 
ATOM     30  C   UNL     1      -0.410   9.906  19.483  0.00  0.00    +0.000 C 
ATOM     31  C   UNL     1       1.013   8.901  21.249  0.00  0.00    +0.000 C 
ATOM     32  O   UNL     1       1.666   9.019  22.284  0.00  0.00    +0.000 OA
ENDBRANCH  27  31
ENDBRANCH  21  27
ENDBRANCH  20  24
ENDBRANCH   1  20
TORSDOF 9
ENDMDL
MODEL 8
REMARK VINA RESULT:      -7.1      2.066      2.866
REMARK  Name = 
REMARK  11 active torsions:
REMARK  status: ('A' for Active; 'I' for Inactive)
REMARK    1  A    between atoms: C_1  and  N_2
REMARK    2  A    between atoms: N_2  and  C_3
REMARK    3  A    between atoms: C_4  and  O_6
REMARK    4  A    between atoms: O_6  and  C_7
REMARK    5  A    between atoms: C_10  and  C_11
REMARK    6  A    between atoms: C_11  and  CA_12
REMARK    7  A    between atoms: CA_12  and  N_13
REMARK    8  A    between atoms: CA_12  and  C_26
REMARK    9  A    between atoms: N_13  and  C_14
REMARK   10  A    between atoms: C_19  and  C_20
REMARK   11  A    between atoms: C_26  and  OXT_28
REMARK                            x       y       z     vdW  Elec       q    Type
REMARK                         _______ _______ _______ _____ _____    ______ ____
ROOT
ATOM      1  CA  UNL     1      -0.492  11.606  20.477  0.00  0.00    +0.000 C 
ENDROOT
BRANCH   1   2
ATOM      2  N   UNL     1      -1.498  12.438  19.799  0.00  0.00    +0.000 N 
ATOM      3  H   UNL     1      -1.185  13.391  19.608  0.00  0.00    +0.000 HD
BRANCH   2   4
ATOM      4  C   UNL     1      -2.848  12.415  20.124  0.00  0.00    +0.000 A 
ATOM      5  N   UNL     1      -3.196  12.873  21.347  0.00  0.00    +0.000 NA
ATOM      6  C   UNL     1      -4.517  12.985  21.577  0.00  0.00    +0.000 A 
ATOM      7  N   UNL     1      -5.502  12.681  20.723  0.00  0.00    +0.000 NA
ATOM      8  C   UNL     1      -5.105  12.179  19.538  0.00  0.00    +0.000 A 
ATOM      9  C   UNL     1      -3.785  11.986  19.156  0.00  0.00    +0.000 A 
BRANCH   9  10
ATOM     10  C   UNL     1      -3.438  11.292  17.876  0.00  0.00    +0.000 A 
ATOM     11  C   UNL     1      -4.089  11.563  16.662  0.00  0.00    +0.000 A 
ATOM     12  C   UNL     1      -3.759  10.833  15.523  0.00  0.00    +0.000 A 
ATOM     13  N   UNL     1      -2.811   9.878  15.484  0.00  0.00    +0.000 NA
ATOM     14  C   UNL     1      -2.186   9.617  16.644  0.00  0.00    +0.000 A 
ATOM     15  C   UNL     1      -2.481  10.263  17.834  0.00  0.00    +0.000 A 
ENDBRANCH   9  10
ENDBRANCH   2   4
ENDBRANCH   1   2
BRANCH   1  16
ATOM     16  C   UNL     1       0.159  12.365  21.634  0.00  0.00    +0.000 C 
ATOM     17  O   UNL     1       1.133  13.102  21.538  0.00  0.00    +0.000 OA
BRANCH  16  18
ATOM     18  OXT UNL     1      -0.484  12.180  22.820  0.00  0.00    +0.000 OA
ATOM     19  HXT UNL     1      -0.354  11.256  23.136  0.00  0.00    +0.000 HD
ENDBRANCH  16  18
ENDBRANCH   1  16
BRANCH   1  20
ATOM     20  C   UNL     1       0.542  11.249  19.392  0.00  0.00    +0.000 C 
BRANCH  20  24
ATOM     21  C   UNL     1       2.277   7.339  19.206  0.00  0.00    +0.000 A 
ATOM     22  C   UNL     1       2.203   8.089  18.033  0.00  0.00    +0.000 A 
ATOM     23  C   UNL     1       1.556   9.332  18.048  0.00  0.00    +0.000 A 
ATOM     24  C   UNL     1       0.980   9.815  19.233  0.00  0.00    +0.000 A 
ATOM     25  C   UNL     1       0.976   8.994  20.369  0.00  0.00    +0.000 A 
ATOM     26  C   UNL     1       1.602   7.753  20.351  0.00  0.00    +0.000 A 
BRANCH  21  27
ATOM     27  O   UNL     1       3.020   6.143  19.191  0.00  0.00    +0.000 OA
BRANCH  27  31
ATOM     28  C   UNL     1       1.576   2.793  19.490  0.00  0.00    +0.000 C 
ATOM     29  N   UNL     1       2.169   4.073  19.823  0.00  0.00    +0.000 N 
ATOM     30  C   UNL     1       2.331   4.440  21.215  0.00  0.00    +0.000 C 
ATOM     31  C   UNL     1       2.326   4.993  18.795  0.00  0.00    +0.000 C 
ATOM     32  O   UNL     1       1.920   4.776  17.656  0.00  0.00    +0.000 OA
ENDBRANCH  27  31
ENDBRANCH  21  27
ENDBRANCH  20  24
ENDBRANCH   1  20
TORSDOF 9
ENDMDL
MODEL 9
REMARK VINA RESULT:      -7.0      0.610      1.073
REMARK  Name = 
REMARK  11 active torsions:
REMARK  status: ('A' for Active; 'I' for Inactive)
REMARK    1  A    between atoms: C_1  and  N_2
REMARK    2  A    between atoms: N_2  and  C_3
REMARK    3  A    between atoms: C_4  and  O_6
REMARK    4  A    between atoms: O_6  and  C_7
REMARK    5  A    between atoms: C_10  and  C_11
REMARK    6  A    between atoms: C_11  and  CA_12
REMARK    7  A    between atoms: CA_12  and  N_13
REMARK    8  A    between atoms: CA_12  and  C_26
REMARK    9  A    between atoms: N_13  and  C_14
REMARK   10  A    between atoms: C_19  and  C_20
REMARK   11  A    between atoms: C_26  and  OXT_28
REMARK                            x       y       z     vdW  Elec       q    Type
REMARK                         _______ _______ _______ _____ _____    ______ ____
ROOT
ATOM      1  CA  UNL     1      -0.355   9.698  20.970  0.00  0.00    +0.000 C 
ENDROOT
BRANCH   1   2
ATOM      2  N   UNL     1      -1.178  10.916  20.914  0.00  0.00    +0.000 N 
ATOM      3  H   UNL     1      -2.160  10.741  20.693  0.00  0.00    +0.000 HD
BRANCH   2   4
ATOM      4  C   UNL     1      -0.744  12.102  20.336  0.00  0.00    +0.000 A 
ATOM      5  N   UNL     1      -0.018  12.937  21.112  0.00  0.00    +0.000 NA
ATOM      6  C   UNL     1       0.520  13.999  20.486  0.00  0.00    +0.000 A 
ATOM      7  N   UNL     1       0.396  14.306  19.188  0.00  0.00    +0.000 NA
ATOM      8  C   UNL     1      -0.381  13.473  18.470  0.00  0.00    +0.000 A 
ATOM      9  C   UNL     1      -1.018  12.346  18.970  0.00  0.00    +0.000 A 
BRANCH   9  10
ATOM     10  C   UNL     1      -1.975  11.556  18.134  0.00  0.00    +0.000 A 
ATOM     11  C   UNL     1      -3.364  11.756  18.171  0.00  0.00    +0.000 A 
ATOM     12  C   UNL     1      -4.201  10.941  17.413  0.00  0.00    +0.000 A 
ATOM     13  N   UNL     1      -3.767   9.963  16.596  0.00  0.00    +0.000 NA
ATOM     14  C   UNL     1      -2.439   9.769  16.558  0.00  0.00    +0.000 A 
ATOM     15  C   UNL     1      -1.537  10.504  17.311  0.00  0.00    +0.000 A 
ENDBRANCH   9  10
ENDBRANCH   2   4
ENDBRANCH   1   2
BRANCH   1  16
ATOM     16  C   UNL     1       0.043   9.368  22.409  0.00  0.00    +0.000 C 
ATOM     17  O   UNL     1       1.069   9.743  22.964  0.00  0.00    +0.000 OA
BRANCH  16  18
ATOM     18  OXT UNL     1      -0.895   8.630  23.063  0.00  0.00    +0.000 OA
ATOM     19  HXT UNL     1      -1.681   9.187  23.271  0.00  0.00    +0.000 HD
ENDBRANCH  16  18
ENDBRANCH   1  16
BRANCH   1  20
ATOM     20  C   UNL     1       0.884  10.004  20.105  0.00  0.00    +0.000 C 
BRANCH  20  24
ATOM     21  C   UNL     1       2.728   6.609  18.258  0.00  0.00    +0.000 A 
ATOM     22  C   UNL     1       2.405   6.534  19.613  0.00  0.00    +0.000 A 
ATOM     23  C   UNL     1       1.888   7.664  20.262  0.00  0.00    +0.000 A 
ATOM     24  C   UNL     1       1.702   8.862  19.556  0.00  0.00    +0.000 A 
ATOM     25  C   UNL     1       2.134   8.940  18.225  0.00  0.00    +0.000 A 
ATOM     26  C   UNL     1       2.663   7.825  17.584  0.00  0.00    +0.000 A 
BRANCH  21  27
ATOM     27  O   UNL     1       3.148   5.435  17.605  0.00  0.00    +0.000 OA
BRANCH  27  31
ATOM     28  C   UNL     1       2.283   1.977  18.436  0.00  0.00    +0.000 C 
ATOM     29  N   UNL     1       3.002   3.231  18.334  0.00  0.00    +0.000 N 
ATOM     30  C   UNL     1       4.261   3.388  19.033  0.00  0.00    +0.000 C 
ATOM     31  C   UNL     1       2.331   4.311  17.775  0.00  0.00    +0.000 C 
ATOM     32  O   UNL     1       1.151   4.243  17.438  0.00  0.00    +0.000 OA
ENDBRANCH  27  31
ENDBRANCH  21  27
ENDBRANCH  20  24
ENDBRANCH   1  20
TORSDOF 9
ENDMDL
