MODEL 1
REMARK VINA RESULT:      -6.8      0.000      0.000
REMARK  Name = 
REMARK  7 active torsions:
REMARK  status: ('A' for Active; 'I' for Inactive)
REMARK    1  A    between atoms: C_4  and  O_5
REMARK    2  A    between atoms: N_9  and  C_10
REMARK    3  A    between atoms: C_10  and  O_11
REMARK    4  A    between atoms: O_11  and  C_12
REMARK    5  A    between atoms: C_12  and  C_13
REMARK    6  A    between atoms: C_12  and  C_15
REMARK    7  A    between atoms: C_13  and  O_14
REMARK                            x       y       z     vdW  Elec       q    Type
REMARK                         _______ _______ _______ _____ _____    ______ ____
ROOT
ATOM      1  N   UNL     1       8.417   5.509  20.093  0.00  0.00    +0.000 N 
ATOM      2  C   UNL     1       7.448   5.234  19.151  0.00  0.00    +0.000 A 
ATOM      3  N   UNL     1       7.881   5.046  17.891  0.00  0.00    +0.000 NA
ATOM      4  C   UNL     1       6.961   4.768  16.949  0.00  0.00    +0.000 A 
ATOM      5  C   UNL     1       5.610   4.686  17.265  0.00  0.00    +0.000 A 
ATOM      6  N   UNL     1       4.464   4.427  16.543  0.00  0.00    +0.000 NA
ATOM      7  C   UNL     1       3.485   4.521  17.417  0.00  0.00    +0.000 A 
ATOM      8  N   UNL     1       3.946   4.828  18.670  0.00  0.00    +0.000 N 
ATOM      9  C   UNL     1       5.308   4.928  18.596  0.00  0.00    +0.000 A 
ATOM     10  N   UNL     1       6.174   5.224  19.581  0.00  0.00    +0.000 NA
ATOM     11  H   UNL     1       9.244   5.884  19.648  0.00  0.00    +0.000 HD
ATOM     12  H   UNL     1       8.026   6.033  20.863  0.00  0.00    +0.000 HD
ENDROOT
BRANCH   4  13
ATOM     13  O   UNL     1       7.462   4.591  15.690  0.00  0.00    +0.000 OA
ATOM     14  H   UNL     1       7.153   3.691  15.493  0.00  0.00    +0.000 HD
ENDBRANCH   4  13
BRANCH   8  15
ATOM     15  C   UNL     1       3.120   5.162  19.812  0.00  0.00    +0.000 C 
BRANCH  15  16
ATOM     16  O   UNL     1       1.761   4.792  19.538  0.00  0.00    +0.000 OA
BRANCH  16  17
ATOM     17  C   UNL     1       1.321   3.699  20.372  0.00  0.00    +0.000 C 
BRANCH  17  18
ATOM     18  C   UNL     1       1.465   2.345  19.671  0.00  0.00    +0.000 C 
ATOM     19  F   UNL     1       0.451   2.209  18.767  0.00  0.00    +0.000 F 
ENDBRANCH  17  18
BRANCH  17  20
ATOM     20  C   UNL     1       2.152   3.709  21.664  0.00  0.00    +0.000 C 
BRANCH  20  21
ATOM     21  O   UNL     1       2.695   2.424  21.958  0.00  0.00    +0.000 OA
ATOM     22  H   UNL     1       2.543   1.869  21.172  0.00  0.00    +0.000 HD
ENDBRANCH  20  21
ENDBRANCH  17  20
ENDBRANCH  16  17
ENDBRANCH  15  16
ENDBRANCH   8  15
TORSDOF 7
ENDMDL
MODEL 2
REMARK VINA RESULT:      -6.7      2.006      2.334
REMARK  Name = 
REMARK  7 active torsions:
REMARK  status: ('A' for Active; 'I' for Inactive)
REMARK    1  A    between atoms: C_4  and  O_5
REMARK    2  A    between atoms: N_9  and  C_10
REMARK    3  A    between atoms: C_10  and  O_11
REMARK    4  A    between atoms: O_11  and  C_12
REMARK    5  A    between atoms: C_12  and  C_13
REMARK    6  A    between atoms: C_12  and  C_15
REMARK    7  A    between atoms: C_13  and  O_14
REMARK                            x       y       z     vdW  Elec       q    Type
REMARK                         _______ _______ _______ _____ _____    ______ ____
ROOT
ATOM      1  N   UNL     1       8.381   5.258  20.453  0.00  0.00    +0.000 N 
ATOM      2  C   UNL     1       7.739   5.660  19.301  0.00  0.00    +0.000 A 
ATOM      3  N   UNL     1       8.138   6.834  18.779  0.00  0.00    +0.000 NA
ATOM      4  C   UNL     1       7.538   7.252  17.649  0.00  0.00    +0.000 A 
ATOM      5  C   UNL     1       6.535   6.502  17.047  0.00  0.00    +0.000 A 
ATOM      6  N   UNL     1       5.755   6.660  15.921  0.00  0.00    +0.000 NA
ATOM      7  C   UNL     1       4.964   5.607  15.907  0.00  0.00    +0.000 A 
ATOM      8  N   UNL     1       5.199   4.778  16.971  0.00  0.00    +0.000 N 
ATOM      9  C   UNL     1       6.210   5.328  17.709  0.00  0.00    +0.000 A 
ATOM     10  N   UNL     1       6.758   4.862  18.845  0.00  0.00    +0.000 NA
ATOM     11  H   UNL     1       8.784   6.055  20.928  0.00  0.00    +0.000 HD
ATOM     12  H   UNL     1       7.787   4.646  20.995  0.00  0.00    +0.000 HD
ENDROOT
BRANCH   4  13
ATOM     13  O   UNL     1       7.983   8.452  17.170  0.00  0.00    +0.000 OA
ATOM     14  H   UNL     1       7.230   9.028  17.385  0.00  0.00    +0.000 HD
ENDBRANCH   4  13
BRANCH   8  15
ATOM     15  C   UNL     1       4.394   3.630  17.336  0.00  0.00    +0.000 C 
BRANCH  15  16
ATOM     16  O   UNL     1       3.394   4.034  18.282  0.00  0.00    +0.000 OA
BRANCH  16  17
ATOM     17  C   UNL     1       3.067   2.976  19.209  0.00  0.00    +0.000 C 
BRANCH  17  18
ATOM     18  C   UNL     1       1.675   2.393  18.948  0.00  0.00    +0.000 C 
ATOM     19  F   UNL     1       0.934   3.315  18.267  0.00  0.00    +0.000 F 
ENDBRANCH  17  18
BRANCH  17  20
ATOM     20  C   UNL     1       4.129   1.873  19.080  0.00  0.00    +0.000 C 
BRANCH  20  21
ATOM     21  O   UNL     1       5.036   1.876  20.180  0.00  0.00    +0.000 OA
ATOM     22  H   UNL     1       4.714   1.206  20.810  0.00  0.00    +0.000 HD
ENDBRANCH  20  21
ENDBRANCH  17  20
ENDBRANCH  16  17
ENDBRANCH  15  16
ENDBRANCH   8  15
TORSDOF 7
ENDMDL
MODEL 3
REMARK VINA RESULT:      -6.6      1.744      2.065
REMARK  Name = 
REMARK  7 active torsions:
REMARK  status: ('A' for Active; 'I' for Inactive)
REMARK    1  A    between atoms: C_4  and  O_5
REMARK    2  A    between atoms: N_9  and  C_10
REMARK    3  A    between atoms: C_10  and  O_11
REMARK    4  A    between atoms: O_11  and  C_12
REMARK    5  A    between atoms: C_12  and  C_13
REMARK    6  A    between atoms: C_12  and  C_15
REMARK    7  A    between atoms: C_13  and  O_14
REMARK                            x       y       z     vdW  Elec       q    Type
REMARK                         _______ _______ _______ _____ _____    ______ ____
ROOT
ATOM      1  N   UNL     1       8.589   5.195  20.491  0.00  0.00    +0.000 N 
ATOM      2  C   UNL     1       7.613   5.561  19.588  0.00  0.00    +0.000 A 
ATOM      3  N   UNL     1       8.004   6.375  18.591  0.00  0.00    +0.000 NA
ATOM      4  C   UNL     1       7.079   6.745  17.687  0.00  0.00    +0.000 A 
ATOM      5  C   UNL     1       5.763   6.308  17.784  0.00  0.00    +0.000 A 
ATOM      6  N   UNL     1       4.621   6.509  17.038  0.00  0.00    +0.000 NA
ATOM      7  C   UNL     1       3.681   5.840  17.671  0.00  0.00    +0.000 A 
ATOM      8  N   UNL     1       4.163   5.216  18.791  0.00  0.00    +0.000 N 
ATOM      9  C   UNL     1       5.499   5.496  18.877  0.00  0.00    +0.000 A 
ATOM     10  N   UNL     1       6.371   5.102  19.821  0.00  0.00    +0.000 NA
ATOM     11  H   UNL     1       9.344   5.867  20.486  0.00  0.00    +0.000 HD
ATOM     12  H   UNL     1       8.178   4.966  21.386  0.00  0.00    +0.000 HD
ENDROOT
BRANCH   4  13
ATOM     13  O   UNL     1       7.535   7.575  16.702  0.00  0.00    +0.000 OA
ATOM     14  H   UNL     1       6.723   7.710  16.184  0.00  0.00    +0.000 HD
ENDBRANCH   4  13
BRANCH   8  15
ATOM     15  C   UNL     1       3.360   4.542  19.790  0.00  0.00    +0.000 C 
BRANCH  15  16
ATOM     16  O   UNL     1       3.536   3.124  19.661  0.00  0.00    +0.000 OA
BRANCH  16  17
ATOM     17  C   UNL     1       2.289   2.410  19.809  0.00  0.00    +0.000 C 
BRANCH  17  18
ATOM     18  C   UNL     1       1.455   2.944  20.977  0.00  0.00    +0.000 C 
ATOM     19  F   UNL     1       0.389   3.633  20.475  0.00  0.00    +0.000 F 
ENDBRANCH  17  18
BRANCH  17  20
ATOM     20  C   UNL     1       1.497   2.539  18.499  0.00  0.00    +0.000 C 
BRANCH  20  21
ATOM     21  O   UNL     1       2.154   1.888  17.414  0.00  0.00    +0.000 OA
ATOM     22  H   UNL     1       1.923   0.943  17.473  0.00  0.00    +0.000 HD
ENDBRANCH  20  21
ENDBRANCH  17  20
ENDBRANCH  16  17
ENDBRANCH  15  16
ENDBRANCH   8  15
TORSDOF 7
ENDMDL
MODEL 4
REMARK VINA RESULT:      -6.6      1.905      2.130
REMARK  Name = 
REMARK  7 active torsions:
REMARK  status: ('A' for Active; 'I' for Inactive)
REMARK    1  A    between atoms: C_4  and  O_5
REMARK    2  A    between atoms: N_9  and  C_10
REMARK    3  A    between atoms: C_10  and  O_11
REMARK    4  A    between atoms: O_11  and  C_12
REMARK    5  A    between atoms: C_12  and  C_13
REMARK    6  A    between atoms: C_12  and  C_15
REMARK    7  A    between atoms: C_13  and  O_14
REMARK                            x       y       z     vdW  Elec       q    Type
REMARK                         _______ _______ _______ _____ _____    ______ ____
ROOT
ATOM      1  N   UNL     1       8.502   5.217  20.490  0.00  0.00    +0.000 N 
ATOM      2  C   UNL     1       7.764   5.591  19.386  0.00  0.00    +0.000 A 
ATOM      3  N   UNL     1       8.147   6.726  18.774  0.00  0.00    +0.000 NA
ATOM      4  C   UNL     1       7.454   7.115  17.689  0.00  0.00    +0.000 A 
ATOM      5  C   UNL     1       6.374   6.375  17.221  0.00  0.00    +0.000 A 
ATOM      6  N   UNL     1       5.494   6.511  16.168  0.00  0.00    +0.000 NA
ATOM      7  C   UNL     1       4.673   5.488  16.279  0.00  0.00    +0.000 A 
ATOM      8  N   UNL     1       4.984   4.698  17.354  0.00  0.00    +0.000 N 
ATOM      9  C   UNL     1       6.078   5.244  17.965  0.00  0.00    +0.000 A 
ATOM     10  N   UNL     1       6.720   4.808  19.064  0.00  0.00    +0.000 NA
ATOM     11  H   UNL     1       8.973   6.018  20.887  0.00  0.00    +0.000 HD
ATOM     12  H   UNL     1       7.945   4.650  21.114  0.00  0.00    +0.000 HD
ENDROOT
BRANCH   4  13
ATOM     13  O   UNL     1       7.887   8.276  17.114  0.00  0.00    +0.000 OA
ATOM     14  H   UNL     1       8.702   7.974  16.677  0.00  0.00    +0.000 HD
ENDBRANCH   4  13
BRANCH   8  15
ATOM     15  C   UNL     1       4.183   3.596  17.847  0.00  0.00    +0.000 C 
BRANCH  15  16
ATOM     16  O   UNL     1       3.728   3.899  19.173  0.00  0.00    +0.000 OA
BRANCH  16  17
ATOM     17  C   UNL     1       2.327   4.247  19.197  0.00  0.00    +0.000 C 
BRANCH  17  18
ATOM     18  C   UNL     1       1.562   3.637  18.019  0.00  0.00    +0.000 C 
ATOM     19  F   UNL     1       1.063   4.648  17.249  0.00  0.00    +0.000 F 
ENDBRANCH  17  18
BRANCH  17  20
ATOM     20  C   UNL     1       1.727   3.753  20.522  0.00  0.00    +0.000 C 
BRANCH  20  21
ATOM     21  O   UNL     1       0.390   3.285  20.360  0.00  0.00    +0.000 OA
ATOM     22  H   UNL     1       0.106   2.942  21.227  0.00  0.00    +0.000 HD
ENDBRANCH  20  21
ENDBRANCH  17  20
ENDBRANCH  16  17
ENDBRANCH  15  16
ENDBRANCH   8  15
TORSDOF 7
ENDMDL
MODEL 5
REMARK VINA RESULT:      -6.6      2.743      5.584
REMARK  Name = 
REMARK  7 active torsions:
REMARK  status: ('A' for Active; 'I' for Inactive)
REMARK    1  A    between atoms: C_4  and  O_5
REMARK    2  A    between atoms: N_9  and  C_10
REMARK    3  A    between atoms: C_10  and  O_11
REMARK    4  A    between atoms: O_11  and  C_12
REMARK    5  A    between atoms: C_12  and  C_13
REMARK    6  A    between atoms: C_12  and  C_15
REMARK    7  A    between atoms: C_13  and  O_14
REMARK                            x       y       z     vdW  Elec       q    Type
REMARK                         _______ _______ _______ _____ _____    ______ ____
ROOT
ATOM      1  N   UNL     1       3.962   0.815  18.291  0.00  0.00    +0.000 N 
ATOM      2  C   UNL     1       3.438   2.069  18.525  0.00  0.00    +0.000 A 
ATOM      3  N   UNL     1       2.324   2.116  19.277  0.00  0.00    +0.000 NA
ATOM      4  C   UNL     1       1.792   3.325  19.532  0.00  0.00    +0.000 A 
ATOM      5  C   UNL     1       2.368   4.485  19.028  0.00  0.00    +0.000 A 
ATOM      6  N   UNL     1       2.066   5.828  19.112  0.00  0.00    +0.000 NA
ATOM      7  C   UNL     1       2.987   6.428  18.388  0.00  0.00    +0.000 A 
ATOM      8  N   UNL     1       3.870   5.534  17.842  0.00  0.00    +0.000 N 
ATOM      9  C   UNL     1       3.497   4.283  18.249  0.00  0.00    +0.000 A 
ATOM     10  N   UNL     1       4.069   3.105  17.945  0.00  0.00    +0.000 NA
ATOM     11  H   UNL     1       3.247   0.109  18.403  0.00  0.00    +0.000 HD
ATOM     12  H   UNL     1       4.492   0.806  17.431  0.00  0.00    +0.000 HD
ENDROOT
BRANCH   4  13
ATOM     13  O   UNL     1       0.660   3.307  20.297  0.00  0.00    +0.000 OA
ATOM     14  H   UNL     1       0.441   2.360  20.282  0.00  0.00    +0.000 HD
ENDBRANCH   4  13
BRANCH   8  15
ATOM     15  C   UNL     1       4.894   5.852  16.867  0.00  0.00    +0.000 C 
BRANCH  15  16
ATOM     16  O   UNL     1       5.820   6.785  17.441  0.00  0.00    +0.000 OA
BRANCH  16  17
ATOM     17  C   UNL     1       7.161   6.253  17.492  0.00  0.00    +0.000 C 
BRANCH  17  18
ATOM     18  C   UNL     1       7.626   6.001  18.929  0.00  0.00    +0.000 C 
ATOM     19  F   UNL     1       6.549   5.625  19.679  0.00  0.00    +0.000 F 
ENDBRANCH  17  18
BRANCH  17  20
ATOM     20  C   UNL     1       7.193   4.940  16.694  0.00  0.00    +0.000 C 
BRANCH  20  21
ATOM     21  O   UNL     1       8.157   4.027  17.212  0.00  0.00    +0.000 OA
ATOM     22  H   UNL     1       7.737   3.147  17.215  0.00  0.00    +0.000 HD
ENDBRANCH  20  21
ENDBRANCH  17  20
ENDBRANCH  16  17
ENDBRANCH  15  16
ENDBRANCH   8  15
TORSDOF 7
ENDMDL
MODEL 6
REMARK VINA RESULT:      -6.5      1.250      1.250
REMARK  Name = 
REMARK  7 active torsions:
REMARK  status: ('A' for Active; 'I' for Inactive)
REMARK    1  A    between atoms: C_4  and  O_5
REMARK    2  A    between atoms: N_9  and  C_10
REMARK    3  A    between atoms: C_10  and  O_11
REMARK    4  A    between atoms: O_11  and  C_12
REMARK    5  A    between atoms: C_12  and  C_13
REMARK    6  A    between atoms: C_12  and  C_15
REMARK    7  A    between atoms: C_13  and  O_14
REMARK                            x       y       z     vdW  Elec       q    Type
REMARK                         _______ _______ _______ _____ _____    ______ ____
ROOT
ATOM      1  N   UNL     1       8.493   5.212  20.513  0.00  0.00    +0.000 N 
ATOM      2  C   UNL     1       7.567   5.556  19.551  0.00  0.00    +0.000 A 
ATOM      3  N   UNL     1       8.051   6.160  18.450  0.00  0.00    +0.000 NA
ATOM      4  C   UNL     1       7.175   6.501  17.488  0.00  0.00    +0.000 A 
ATOM      5  C   UNL     1       5.816   6.245  17.628  0.00  0.00    +0.000 A 
ATOM      6  N   UNL     1       4.706   6.469  16.842  0.00  0.00    +0.000 NA
ATOM      7  C   UNL     1       3.692   6.020  17.553  0.00  0.00    +0.000 A 
ATOM      8  N   UNL     1       4.098   5.515  18.759  0.00  0.00    +0.000 N 
ATOM      9  C   UNL     1       5.458   5.641  18.824  0.00  0.00    +0.000 A 
ATOM     10  N   UNL     1       6.279   5.289  19.829  0.00  0.00    +0.000 NA
ATOM     11  H   UNL     1       9.324   5.780  20.420  0.00  0.00    +0.000 HD
ATOM     12  H   UNL     1       8.059   5.170  21.424  0.00  0.00    +0.000 HD
ENDROOT
BRANCH   4  13
ATOM     13  O   UNL     1       7.726   7.114  16.398  0.00  0.00    +0.000 OA
ATOM     14  H   UNL     1       7.017   7.001  15.743  0.00  0.00    +0.000 HD
ENDBRANCH   4  13
BRANCH   8  15
ATOM     15  C   UNL     1       3.222   5.099  19.835  0.00  0.00    +0.000 C 
BRANCH  15  16
ATOM     16  O   UNL     1       3.113   3.668  19.829  0.00  0.00    +0.000 OA
BRANCH  16  17
ATOM     17  C   UNL     1       1.747   3.230  19.993  0.00  0.00    +0.000 C 
BRANCH  17  18
ATOM     18  C   UNL     1       1.435   1.989  19.151  0.00  0.00    +0.000 C 
ATOM     19  F   UNL     1       0.233   2.171  18.531  0.00  0.00    +0.000 F 
ENDBRANCH  17  18
BRANCH  17  20
ATOM     20  C   UNL     1       1.512   2.924  21.481  0.00  0.00    +0.000 C 
BRANCH  20  21
ATOM     21  O   UNL     1       2.685   2.417  22.112  0.00  0.00    +0.000 OA
ATOM     22  H   UNL     1       2.475   2.325  23.060  0.00  0.00    +0.000 HD
ENDBRANCH  20  21
ENDBRANCH  17  20
ENDBRANCH  16  17
ENDBRANCH  15  16
ENDBRANCH   8  15
TORSDOF 7
ENDMDL
MODEL 7
REMARK VINA RESULT:      -6.5      1.601      1.788
REMARK  Name = 
REMARK  7 active torsions:
REMARK  status: ('A' for Active; 'I' for Inactive)
REMARK    1  A    between atoms: C_4  and  O_5
REMARK    2  A    between atoms: N_9  and  C_10
REMARK    3  A    between atoms: C_10  and  O_11
REMARK    4  A    between atoms: O_11  and  C_12
REMARK    5  A    between atoms: C_12  and  C_13
REMARK    6  A    between atoms: C_12  and  C_15
REMARK    7  A    between atoms: C_13  and  O_14
REMARK                            x       y       z     vdW  Elec       q    Type
REMARK                         _______ _______ _______ _____ _____    ______ ____
ROOT
ATOM      1  N   UNL     1       8.542   5.226  20.488  0.00  0.00    +0.000 N 
ATOM      2  C   UNL     1       7.720   5.513  19.418  0.00  0.00    +0.000 A 
ATOM      3  N   UNL     1       8.033   6.612  18.708  0.00  0.00    +0.000 NA
ATOM      4  C   UNL     1       7.256   6.916  17.652  0.00  0.00    +0.000 A 
ATOM      5  C   UNL     1       6.164   6.126  17.312  0.00  0.00    +0.000 A 
ATOM      6  N   UNL     1       5.209   6.176  16.319  0.00  0.00    +0.000 NA
ATOM      7  C   UNL     1       4.422   5.148  16.554  0.00  0.00    +0.000 A 
ATOM      8  N   UNL     1       4.826   4.436  17.652  0.00  0.00    +0.000 N 
ATOM      9  C   UNL     1       5.947   5.041  18.147  0.00  0.00    +0.000 A 
ATOM     10  N   UNL     1       6.674   4.691  19.222  0.00  0.00    +0.000 NA
ATOM     11  H   UNL     1       9.022   6.061  20.797  0.00  0.00    +0.000 HD
ATOM     12  H   UNL     1       8.044   4.692  21.186  0.00  0.00    +0.000 HD
ENDROOT
BRANCH   4  13
ATOM     13  O   UNL     1       7.621   8.045  16.974  0.00  0.00    +0.000 OA
ATOM     14  H   UNL     1       8.536   7.826  16.730  0.00  0.00    +0.000 HD
ENDBRANCH   4  13
BRANCH   8  15
ATOM     15  C   UNL     1       4.088   3.354  18.271  0.00  0.00    +0.000 C 
BRANCH  15  16
ATOM     16  O   UNL     1       3.418   3.848  19.440  0.00  0.00    +0.000 OA
BRANCH  16  17
ATOM     17  C   UNL     1       1.983   3.730  19.331  0.00  0.00    +0.000 C 
BRANCH  17  18
ATOM     18  C   UNL     1       1.529   2.269  19.256  0.00  0.00    +0.000 C 
ATOM     19  F   UNL     1       0.317   2.218  18.629  0.00  0.00    +0.000 F 
ENDBRANCH  17  18
BRANCH  17  20
ATOM     20  C   UNL     1       1.346   4.413  20.550  0.00  0.00    +0.000 C 
BRANCH  20  21
ATOM     21  O   UNL     1       2.228   5.356  21.154  0.00  0.00    +0.000 OA
ATOM     22  H   UNL     1       2.970   4.845  21.529  0.00  0.00    +0.000 HD
ENDBRANCH  20  21
ENDBRANCH  17  20
ENDBRANCH  16  17
ENDBRANCH  15  16
ENDBRANCH   8  15
TORSDOF 7
ENDMDL
MODEL 8
REMARK VINA RESULT:      -6.5      1.463      1.805
REMARK  Name = 
REMARK  7 active torsions:
REMARK  status: ('A' for Active; 'I' for Inactive)
REMARK    1  A    between atoms: C_4  and  O_5
REMARK    2  A    between atoms: N_9  and  C_10
REMARK    3  A    between atoms: C_10  and  O_11
REMARK    4  A    between atoms: O_11  and  C_12
REMARK    5  A    between atoms: C_12  and  C_13
REMARK    6  A    between atoms: C_12  and  C_15
REMARK    7  A    between atoms: C_13  and  O_14
REMARK                            x       y       z     vdW  Elec       q    Type
REMARK                         _______ _______ _______ _____ _____    ______ ____
ROOT
ATOM      1  N   UNL     1       8.352   5.628  20.016  0.00  0.00    +0.000 N 
ATOM      2  C   UNL     1       7.442   5.418  19.001  0.00  0.00    +0.000 A 
ATOM      3  N   UNL     1       7.879   5.668  17.753  0.00  0.00    +0.000 NA
ATOM      4  C   UNL     1       7.019   5.465  16.738  0.00  0.00    +0.000 A 
ATOM      5  C   UNL     1       5.723   5.020  16.971  0.00  0.00    +0.000 A 
ATOM      6  N   UNL     1       4.643   4.729  16.165  0.00  0.00    +0.000 NA
ATOM      7  C   UNL     1       3.685   4.379  16.996  0.00  0.00    +0.000 A 
ATOM      8  N   UNL     1       4.097   4.430  18.301  0.00  0.00    +0.000 N 
ATOM      9  C   UNL     1       5.405   4.829  18.306  0.00  0.00    +0.000 A 
ATOM     10  N   UNL     1       6.209   5.027  19.365  0.00  0.00    +0.000 NA
ATOM     11  H   UNL     1       9.071   6.273  19.717  0.00  0.00    +0.000 HD
ATOM     12  H   UNL     1       7.875   5.833  20.883  0.00  0.00    +0.000 HD
ENDROOT
BRANCH   4  13
ATOM     13  O   UNL     1       7.519   5.740  15.496  0.00  0.00    +0.000 OA
ATOM     14  H   UNL     1       6.818   6.309  15.136  0.00  0.00    +0.000 HD
ENDBRANCH   4  13
BRANCH   8  15
ATOM     15  C   UNL     1       3.243   4.267  19.460  0.00  0.00    +0.000 C 
BRANCH  15  16
ATOM     16  O   UNL     1       3.324   2.911  19.920  0.00  0.00    +0.000 OA
BRANCH  16  17
ATOM     17  C   UNL     1       2.017   2.339  20.147  0.00  0.00    +0.000 C 
BRANCH  17  18
ATOM     18  C   UNL     1       1.202   3.149  21.159  0.00  0.00    +0.000 C 
ATOM     19  F   UNL     1       1.161   2.464  22.339  0.00  0.00    +0.000 F 
ENDBRANCH  17  18
BRANCH  17  20
ATOM     20  C   UNL     1       1.273   2.279  18.804  0.00  0.00    +0.000 C 
BRANCH  20  21
ATOM     21  O   UNL     1       1.997   1.535  17.827  0.00  0.00    +0.000 OA
ATOM     22  H   UNL     1       1.591   0.650  17.791  0.00  0.00    +0.000 HD
ENDBRANCH  20  21
ENDBRANCH  17  20
ENDBRANCH  16  17
ENDBRANCH  15  16
ENDBRANCH   8  15
TORSDOF 7
ENDMDL
MODEL 9
REMARK VINA RESULT:      -6.5      2.907      5.832
REMARK  Name = 
REMARK  7 active torsions:
REMARK  status: ('A' for Active; 'I' for Inactive)
REMARK    1  A    between atoms: C_4  and  O_5
REMARK    2  A    between atoms: N_9  and  C_10
REMARK    3  A    between atoms: C_10  and  O_11
REMARK    4  A    between atoms: O_11  and  C_12
REMARK    5  A    between atoms: C_12  and  C_13
REMARK    6  A    between atoms: C_12  and  C_15
REMARK    7  A    between atoms: C_13  and  O_14
REMARK                            x       y       z     vdW  Elec       q    Type
REMARK                         _______ _______ _______ _____ _____    ______ ____
ROOT
ATOM      1  N   UNL     1       3.859   0.919  18.239  0.00  0.00    +0.000 N 
ATOM      2  C   UNL     1       3.382   2.172  18.561  0.00  0.00    +0.000 A 
ATOM      3  N   UNL     1       2.371   2.212  19.449  0.00  0.00    +0.000 NA
ATOM      4  C   UNL     1       1.888   3.420  19.791  0.00  0.00    +0.000 A 
ATOM      5  C   UNL     1       2.408   4.586  19.242  0.00  0.00    +0.000 A 
ATOM      6  N   UNL     1       2.133   5.928  19.388  0.00  0.00    +0.000 NA
ATOM      7  C   UNL     1       2.962   6.536  18.565  0.00  0.00    +0.000 A 
ATOM      8  N   UNL     1       3.760   5.647  17.896  0.00  0.00    +0.000 N 
ATOM      9  C   UNL     1       3.428   4.391  18.323  0.00  0.00    +0.000 A 
ATOM     10  N   UNL     1       3.946   3.215  17.927  0.00  0.00    +0.000 NA
ATOM     11  H   UNL     1       3.157   0.216  18.427  0.00  0.00    +0.000 HD
ATOM     12  H   UNL     1       4.277   0.923  17.319  0.00  0.00    +0.000 HD
ENDROOT
BRANCH   4  13
ATOM     13  O   UNL     1       0.861   3.395  20.693  0.00  0.00    +0.000 OA
ATOM     14  H   UNL     1       1.073   2.588  21.192  0.00  0.00    +0.000 HD
ENDBRANCH   4  13
BRANCH   8  15
ATOM     15  C   UNL     1       4.657   5.976  16.807  0.00  0.00    +0.000 C 
BRANCH  15  16
ATOM     16  O   UNL     1       5.798   6.671  17.327  0.00  0.00    +0.000 OA
BRANCH  16  17
ATOM     17  C   UNL     1       7.032   5.982  17.031  0.00  0.00    +0.000 C 
BRANCH  17  18
ATOM     18  C   UNL     1       7.536   5.165  18.224  0.00  0.00    +0.000 C 
ATOM     19  F   UNL     1       8.294   4.129  17.758  0.00  0.00    +0.000 F 
ENDBRANCH  17  18
BRANCH  17  20
ATOM     20  C   UNL     1       6.794   5.057  15.827  0.00  0.00    +0.000 C 
BRANCH  20  21
ATOM     21  O   UNL     1       7.666   5.361  14.741  0.00  0.00    +0.000 OA
ATOM     22  H   UNL     1       8.177   4.552  14.557  0.00  0.00    +0.000 HD
ENDBRANCH  20  21
ENDBRANCH  17  20
ENDBRANCH  16  17
ENDBRANCH  15  16
ENDBRANCH   8  15
TORSDOF 7
ENDMDL
