MODEL 1
REMARK VINA RESULT:      -8.4      0.000      0.000
REMARK  Name = 
REMARK  8 active torsions:
REMARK  status: ('A' for Active; 'I' for Inactive)
REMARK    1  A    between atoms: C_1  and  O_2
REMARK    2  A    between atoms: O_2  and  C_3
REMARK    3  A    between atoms: C_6  and  C_7
REMARK    4  A    between atoms: C_12  and  C_14
REMARK    5  A    between atoms: C_19  and  S_20
REMARK    6  A    between atoms: S_20  and  C_21
REMARK    7  A    between atoms: C_23  and  O_24
REMARK    8  A    between atoms: O_24  and  C_25
REMARK                            x       y       z     vdW  Elec       q    Type
REMARK                         _______ _______ _______ _____ _____    ______ ____
ROOT
ATOM      1  C   UNL     1       3.829   4.843  18.989  0.00  0.00    +0.000 A 
ATOM      2  C   UNL     1       3.394   3.788  19.775  0.00  0.00    +0.000 A 
ATOM      3  S   UNL     1       2.231   4.344  20.916  0.00  0.00    +0.000 S 
ATOM      4  C   UNL     1       2.346   5.904  20.238  0.00  0.00    +0.000 A 
ATOM      5  N   UNL     1       1.551   6.851  20.820  0.00  0.00    +0.000 N 
ATOM      6  C   UNL     1       1.443   8.112  20.291  0.00  0.00    +0.000 C 
ATOM      7  O   UNL     1       1.928   8.463  19.216  0.00  0.00    +0.000 OA
ATOM      8  N   UNL     1       3.183   6.038  19.243  0.00  0.00    +0.000 NA
ATOM      9  H   UNL     1       1.061   6.594  21.666  0.00  0.00    +0.000 HD
ENDROOT
BRANCH   1  13
ATOM     10  C   UNL     1       6.726   4.616  15.833  0.00  0.00    +0.000 A 
ATOM     11  C   UNL     1       5.372   4.406  15.581  0.00  0.00    +0.000 A 
ATOM     12  C   UNL     1       4.437   4.466  16.617  0.00  0.00    +0.000 A 
ATOM     13  C   UNL     1       4.839   4.731  17.936  0.00  0.00    +0.000 A 
ATOM     14  C   UNL     1       6.213   4.928  18.192  0.00  0.00    +0.000 A 
ATOM     15  C   UNL     1       7.145   4.865  17.141  0.00  0.00    +0.000 A 
BRANCH  10  17
ATOM     16  C   UNL     1       6.889   4.374  13.473  0.00  0.00    +0.000 C 
ATOM     17  O   UNL     1       7.533   4.539  14.731  0.00  0.00    +0.000 OA
ENDBRANCH  10  17
BRANCH  14  18
ATOM     18  O   UNL     1       6.624   5.069  19.497  0.00  0.00    +0.000 OA
ATOM     19  C   UNL     1       7.898   5.678  19.679  0.00  0.00    +0.000 C 
ENDBRANCH  14  18
ENDBRANCH   1  13
BRANCH   6  20
ATOM     20  C   UNL     1       0.651   9.142  21.055  0.00  0.00    +0.000 A 
ATOM     21  C   UNL     1       0.629   8.922  22.453  0.00  0.00    +0.000 A 
ATOM     22  C   UNL     1      -0.097   9.734  23.323  0.00  0.00    +0.000 A 
ATOM     23  C   UNL     1      -0.832  10.783  22.810  0.00  0.00    +0.000 A 
ATOM     24  C   UNL     1      -0.824  11.031  21.437  0.00  0.00    +0.000 A 
ATOM     25  C   UNL     1      -0.070  10.245  20.538  0.00  0.00    +0.000 A 
BRANCH  25  26
ATOM     26  S   UNL     1      -0.183  10.672  18.793  0.00  0.00    +0.000 S 
ATOM     27  C   UNL     1      -1.447  11.983  18.801  0.00  0.00    +0.000 C 
ENDBRANCH  25  26
ENDBRANCH   6  20
TORSDOF 5
ENDMDL
MODEL 2
REMARK VINA RESULT:      -7.4      1.181      1.854
REMARK  Name = 
REMARK  8 active torsions:
REMARK  status: ('A' for Active; 'I' for Inactive)
REMARK    1  A    between atoms: C_1  and  O_2
REMARK    2  A    between atoms: O_2  and  C_3
REMARK    3  A    between atoms: C_6  and  C_7
REMARK    4  A    between atoms: C_12  and  C_14
REMARK    5  A    between atoms: C_19  and  S_20
REMARK    6  A    between atoms: S_20  and  C_21
REMARK    7  A    between atoms: C_23  and  O_24
REMARK    8  A    between atoms: O_24  and  C_25
REMARK                            x       y       z     vdW  Elec       q    Type
REMARK                         _______ _______ _______ _____ _____    ______ ____
ROOT
ATOM      1  C   UNL     1       3.609   5.271  19.114  0.00  0.00    +0.000 A 
ATOM      2  C   UNL     1       3.234   4.241  19.963  0.00  0.00    +0.000 A 
ATOM      3  S   UNL     1       2.103   4.818  21.125  0.00  0.00    +0.000 S 
ATOM      4  C   UNL     1       2.150   6.349  20.375  0.00  0.00    +0.000 A 
ATOM      5  N   UNL     1       1.353   7.300  20.947  0.00  0.00    +0.000 N 
ATOM      6  C   UNL     1       1.190   8.533  20.369  0.00  0.00    +0.000 C 
ATOM      7  O   UNL     1       1.622   8.849  19.261  0.00  0.00    +0.000 OA
ATOM      8  N   UNL     1       2.942   6.459  19.342  0.00  0.00    +0.000 NA
ATOM      9  H   UNL     1       0.904   7.069  21.823  0.00  0.00    +0.000 HD
ENDROOT
BRANCH   1  13
ATOM     10  C   UNL     1       6.547   4.841  16.018  0.00  0.00    +0.000 A 
ATOM     11  C   UNL     1       6.742   5.729  17.073  0.00  0.00    +0.000 A 
ATOM     12  C   UNL     1       5.774   5.875  18.069  0.00  0.00    +0.000 A 
ATOM     13  C   UNL     1       4.579   5.138  18.026  0.00  0.00    +0.000 A 
ATOM     14  C   UNL     1       4.377   4.250  16.948  0.00  0.00    +0.000 A 
ATOM     15  C   UNL     1       5.360   4.111  15.952  0.00  0.00    +0.000 A 
BRANCH  10  17
ATOM     16  C   UNL     1       7.226   4.799  13.739  0.00  0.00    +0.000 C 
ATOM     17  O   UNL     1       7.576   4.786  15.118  0.00  0.00    +0.000 OA
ENDBRANCH  10  17
BRANCH  14  18
ATOM     18  O   UNL     1       3.161   3.615  16.839  0.00  0.00    +0.000 OA
ATOM     19  C   UNL     1       3.133   2.259  17.270  0.00  0.00    +0.000 C 
ENDBRANCH  14  18
ENDBRANCH   1  13
BRANCH   6  20
ATOM     20  C   UNL     1       0.401   9.577  21.119  0.00  0.00    +0.000 A 
ATOM     21  C   UNL     1       0.177   9.253  22.479  0.00  0.00    +0.000 A 
ATOM     22  C   UNL     1      -0.580  10.064  23.323  0.00  0.00    +0.000 A 
ATOM     23  C   UNL     1      -1.143  11.218  22.819  0.00  0.00    +0.000 A 
ATOM     24  C   UNL     1      -0.934  11.570  21.485  0.00  0.00    +0.000 A 
ATOM     25  C   UNL     1      -0.144  10.783  20.619  0.00  0.00    +0.000 A 
BRANCH  25  26
ATOM     26  S   UNL     1       0.011  11.352  18.917  0.00  0.00    +0.000 S 
ATOM     27  C   UNL     1      -1.729  11.584  18.432  0.00  0.00    +0.000 C 
ENDBRANCH  25  26
ENDBRANCH   6  20
TORSDOF 5
ENDMDL
MODEL 3
REMARK VINA RESULT:      -7.2      1.456      1.582
REMARK  Name = 
REMARK  8 active torsions:
REMARK  status: ('A' for Active; 'I' for Inactive)
REMARK    1  A    between atoms: C_1  and  O_2
REMARK    2  A    between atoms: O_2  and  C_3
REMARK    3  A    between atoms: C_6  and  C_7
REMARK    4  A    between atoms: C_12  and  C_14
REMARK    5  A    between atoms: C_19  and  S_20
REMARK    6  A    between atoms: S_20  and  C_21
REMARK    7  A    between atoms: C_23  and  O_24
REMARK    8  A    between atoms: O_24  and  C_25
REMARK                            x       y       z     vdW  Elec       q    Type
REMARK                         _______ _______ _______ _____ _____    ______ ____
ROOT
ATOM      1  C   UNL     1       3.822   5.953  18.648  0.00  0.00    +0.000 A 
ATOM      2  C   UNL     1       3.395   5.057  19.615  0.00  0.00    +0.000 A 
ATOM      3  S   UNL     1       2.149   5.768  20.567  0.00  0.00    +0.000 S 
ATOM      4  C   UNL     1       2.230   7.162  19.588  0.00  0.00    +0.000 A 
ATOM      5  N   UNL     1       1.362   8.162  19.929  0.00  0.00    +0.000 N 
ATOM      6  C   UNL     1       1.226   9.281  19.148  0.00  0.00    +0.000 C 
ATOM      7  O   UNL     1       1.751   9.434  18.046  0.00  0.00    +0.000 OA
ATOM      8  N   UNL     1       3.111   7.137  18.624  0.00  0.00    +0.000 NA
ATOM      9  H   UNL     1       0.841   8.055  20.788  0.00  0.00    +0.000 HD
ENDROOT
BRANCH   1  13
ATOM     10  C   UNL     1       6.930   5.291  15.765  0.00  0.00    +0.000 A 
ATOM     11  C   UNL     1       5.613   5.506  15.364  0.00  0.00    +0.000 A 
ATOM     12  C   UNL     1       4.604   5.706  16.309  0.00  0.00    +0.000 A 
ATOM     13  C   UNL     1       4.891   5.685  17.684  0.00  0.00    +0.000 A 
ATOM     14  C   UNL     1       6.223   5.451  18.089  0.00  0.00    +0.000 A 
ATOM     15  C   UNL     1       7.230   5.253  17.127  0.00  0.00    +0.000 A 
BRANCH  10  17
ATOM     16  C   UNL     1       7.277   4.816  13.461  0.00  0.00    +0.000 C 
ATOM     17  O   UNL     1       7.820   5.121  14.740  0.00  0.00    +0.000 OA
ENDBRANCH  10  17
BRANCH  14  18
ATOM     18  O   UNL     1       6.486   5.312  19.431  0.00  0.00    +0.000 OA
ATOM     19  C   UNL     1       7.825   5.590  19.828  0.00  0.00    +0.000 C 
ENDBRANCH  14  18
ENDBRANCH   1  13
BRANCH   6  20
ATOM     20  C   UNL     1       0.348  10.401  19.651  0.00  0.00    +0.000 A 
ATOM     21  C   UNL     1       0.899  11.108  20.746  0.00  0.00    +0.000 A 
ATOM     22  C   UNL     1       0.213  12.139  21.386  0.00  0.00    +0.000 A 
ATOM     23  C   UNL     1      -1.050  12.480  20.950  0.00  0.00    +0.000 A 
ATOM     24  C   UNL     1      -1.617  11.807  19.867  0.00  0.00    +0.000 A 
ATOM     25  C   UNL     1      -0.930  10.782  19.180  0.00  0.00    +0.000 A 
BRANCH  25  26
ATOM     26  S   UNL     1      -1.803   9.989  17.819  0.00  0.00    +0.000 S 
ATOM     27  C   UNL     1      -2.615  11.404  17.010  0.00  0.00    +0.000 C 
ENDBRANCH  25  26
ENDBRANCH   6  20
TORSDOF 5
ENDMDL
MODEL 4
REMARK VINA RESULT:      -7.0      1.869      1.982
REMARK  Name = 
REMARK  8 active torsions:
REMARK  status: ('A' for Active; 'I' for Inactive)
REMARK    1  A    between atoms: C_1  and  O_2
REMARK    2  A    between atoms: O_2  and  C_3
REMARK    3  A    between atoms: C_6  and  C_7
REMARK    4  A    between atoms: C_12  and  C_14
REMARK    5  A    between atoms: C_19  and  S_20
REMARK    6  A    between atoms: S_20  and  C_21
REMARK    7  A    between atoms: C_23  and  O_24
REMARK    8  A    between atoms: O_24  and  C_25
REMARK                            x       y       z     vdW  Elec       q    Type
REMARK                         _______ _______ _______ _____ _____    ______ ____
ROOT
ATOM      1  C   UNL     1       3.868   5.815  18.067  0.00  0.00    +0.000 A 
ATOM      2  C   UNL     1       3.549   5.014  19.152  0.00  0.00    +0.000 A 
ATOM      3  S   UNL     1       2.452   5.839  20.190  0.00  0.00    +0.000 S 
ATOM      4  C   UNL     1       2.435   7.145  19.095  0.00  0.00    +0.000 A 
ATOM      5  N   UNL     1       1.641   8.197  19.457  0.00  0.00    +0.000 N 
ATOM      6  C   UNL     1       1.428   9.253  18.608  0.00  0.00    +0.000 C 
ATOM      7  O   UNL     1       1.810   9.299  17.440  0.00  0.00    +0.000 OA
ATOM      8  N   UNL     1       3.184   7.015  18.033  0.00  0.00    +0.000 NA
ATOM      9  H   UNL     1       1.232   8.177  20.382  0.00  0.00    +0.000 HD
ENDROOT
BRANCH   1  13
ATOM     10  C   UNL     1       6.495   4.735  14.851  0.00  0.00    +0.000 A 
ATOM     11  C   UNL     1       5.271   4.093  15.024  0.00  0.00    +0.000 A 
ATOM     12  C   UNL     1       4.428   4.439  16.083  0.00  0.00    +0.000 A 
ATOM     13  C   UNL     1       4.797   5.435  17.001  0.00  0.00    +0.000 A 
ATOM     14  C   UNL     1       6.045   6.074  16.833  0.00  0.00    +0.000 A 
ATOM     15  C   UNL     1       6.884   5.718  15.763  0.00  0.00    +0.000 A 
BRANCH  10  17
ATOM     16  C   UNL     1       6.491   3.701  12.710  0.00  0.00    +0.000 C 
ATOM     17  O   UNL     1       7.218   4.310  13.771  0.00  0.00    +0.000 OA
ENDBRANCH  10  17
BRANCH  14  18
ATOM     18  O   UNL     1       6.461   6.964  17.796  0.00  0.00    +0.000 OA
ATOM     19  C   UNL     1       7.801   6.800  18.247  0.00  0.00    +0.000 C 
ENDBRANCH  14  18
ENDBRANCH   1  13
BRANCH   6  20
ATOM     20  C   UNL     1       0.647  10.437  19.121  0.00  0.00    +0.000 A 
ATOM     21  C   UNL     1       1.302  11.146  20.157  0.00  0.00    +0.000 A 
ATOM     22  C   UNL     1       0.715  12.235  20.799  0.00  0.00    +0.000 A 
ATOM     23  C   UNL     1      -0.552  12.635  20.426  0.00  0.00    +0.000 A 
ATOM     24  C   UNL     1      -1.220  11.961  19.402  0.00  0.00    +0.000 A 
ATOM     25  C   UNL     1      -0.634  10.876  18.713  0.00  0.00    +0.000 A 
BRANCH  25  26
ATOM     26  S   UNL     1      -1.631  10.091  17.435  0.00  0.00    +0.000 S 
ATOM     27  C   UNL     1      -3.185  11.037  17.529  0.00  0.00    +0.000 C 
ENDBRANCH  25  26
ENDBRANCH   6  20
TORSDOF 5
ENDMDL
MODEL 5
REMARK VINA RESULT:      -7.0      2.062      2.437
REMARK  Name = 
REMARK  8 active torsions:
REMARK  status: ('A' for Active; 'I' for Inactive)
REMARK    1  A    between atoms: C_1  and  O_2
REMARK    2  A    between atoms: O_2  and  C_3
REMARK    3  A    between atoms: C_6  and  C_7
REMARK    4  A    between atoms: C_12  and  C_14
REMARK    5  A    between atoms: C_19  and  S_20
REMARK    6  A    between atoms: S_20  and  C_21
REMARK    7  A    between atoms: C_23  and  O_24
REMARK    8  A    between atoms: O_24  and  C_25
REMARK                            x       y       z     vdW  Elec       q    Type
REMARK                         _______ _______ _______ _____ _____    ______ ____
ROOT
ATOM      1  C   UNL     1       3.795   5.946  18.258  0.00  0.00    +0.000 A 
ATOM      2  C   UNL     1       3.466   5.245  19.407  0.00  0.00    +0.000 A 
ATOM      3  S   UNL     1       2.379   6.170  20.370  0.00  0.00    +0.000 S 
ATOM      4  C   UNL     1       2.381   7.378  19.168  0.00  0.00    +0.000 A 
ATOM      5  N   UNL     1       1.600   8.468  19.438  0.00  0.00    +0.000 N 
ATOM      6  C   UNL     1       1.402   9.450  18.502  0.00  0.00    +0.000 C 
ATOM      7  O   UNL     1       1.784   9.391  17.334  0.00  0.00    +0.000 OA
ATOM      8  N   UNL     1       3.127   7.148  18.121  0.00  0.00    +0.000 NA
ATOM      9  H   UNL     1       1.191   8.532  20.360  0.00  0.00    +0.000 HD
ENDROOT
BRANCH   1  13
ATOM     10  C   UNL     1       6.407   4.560  15.149  0.00  0.00    +0.000 A 
ATOM     11  C   UNL     1       5.176   3.948  15.378  0.00  0.00    +0.000 A 
ATOM     12  C   UNL     1       4.338   4.395  16.403  0.00  0.00    +0.000 A 
ATOM     13  C   UNL     1       4.719   5.464  17.230  0.00  0.00    +0.000 A 
ATOM     14  C   UNL     1       5.973   6.073  17.006  0.00  0.00    +0.000 A 
ATOM     15  C   UNL     1       6.807   5.615  15.971  0.00  0.00    +0.000 A 
BRANCH  10  17
ATOM     16  C   UNL     1       6.404   3.731  12.920  0.00  0.00    +0.000 C 
ATOM     17  O   UNL     1       7.124   4.034  14.110  0.00  0.00    +0.000 OA
ENDBRANCH  10  17
BRANCH  14  18
ATOM     18  O   UNL     1       6.400   7.040  17.886  0.00  0.00    +0.000 OA
ATOM     19  C   UNL     1       7.595   7.721  17.520  0.00  0.00    +0.000 C 
ENDBRANCH  14  18
ENDBRANCH   1  13
BRANCH   6  20
ATOM     20  C   UNL     1       0.637  10.684  18.911  0.00  0.00    +0.000 A 
ATOM     21  C   UNL     1      -0.659  10.411  19.411  0.00  0.00    +0.000 A 
ATOM     22  C   UNL     1      -1.541  11.423  19.786  0.00  0.00    +0.000 A 
ATOM     23  C   UNL     1      -1.148  12.739  19.660  0.00  0.00    +0.000 A 
ATOM     24  C   UNL     1       0.127  13.041  19.178  0.00  0.00    +0.000 A 
ATOM     25  C   UNL     1       1.051  12.034  18.822  0.00  0.00    +0.000 A 
BRANCH  25  26
ATOM     26  S   UNL     1       2.647  12.580  18.192  0.00  0.00    +0.000 S 
ATOM     27  C   UNL     1       2.604  14.367  18.541  0.00  0.00    +0.000 C 
ENDBRANCH  25  26
ENDBRANCH   6  20
TORSDOF 5
ENDMDL
MODEL 6
REMARK VINA RESULT:      -7.0      1.935      2.343
REMARK  Name = 
REMARK  8 active torsions:
REMARK  status: ('A' for Active; 'I' for Inactive)
REMARK    1  A    between atoms: C_1  and  O_2
REMARK    2  A    between atoms: O_2  and  C_3
REMARK    3  A    between atoms: C_6  and  C_7
REMARK    4  A    between atoms: C_12  and  C_14
REMARK    5  A    between atoms: C_19  and  S_20
REMARK    6  A    between atoms: S_20  and  C_21
REMARK    7  A    between atoms: C_23  and  O_24
REMARK    8  A    between atoms: O_24  and  C_25
REMARK                            x       y       z     vdW  Elec       q    Type
REMARK                         _______ _______ _______ _____ _____    ______ ____
ROOT
ATOM      1  C   UNL     1       3.908   6.112  18.372  0.00  0.00    +0.000 A 
ATOM      2  C   UNL     1       3.465   5.346  19.439  0.00  0.00    +0.000 A 
ATOM      3  S   UNL     1       2.254   6.201  20.315  0.00  0.00    +0.000 S 
ATOM      4  C   UNL     1       2.365   7.470  19.182  0.00  0.00    +0.000 A 
ATOM      5  N   UNL     1       1.534   8.530  19.414  0.00  0.00    +0.000 N 
ATOM      6  C   UNL     1       1.422   9.557  18.511  0.00  0.00    +0.000 C 
ATOM      7  O   UNL     1       1.937   9.565  17.394  0.00  0.00    +0.000 OA
ATOM      8  N   UNL     1       3.233   7.307  18.219  0.00  0.00    +0.000 NA
ATOM      9  H   UNL     1       1.020   8.539  20.285  0.00  0.00    +0.000 HD
ENDROOT
BRANCH   1  13
ATOM     10  C   UNL     1       6.977   5.036  15.574  0.00  0.00    +0.000 A 
ATOM     11  C   UNL     1       5.730   5.479  15.137  0.00  0.00    +0.000 A 
ATOM     12  C   UNL     1       4.731   5.812  16.054  0.00  0.00    +0.000 A 
ATOM     13  C   UNL     1       4.956   5.701  17.436  0.00  0.00    +0.000 A 
ATOM     14  C   UNL     1       6.214   5.237  17.876  0.00  0.00    +0.000 A 
ATOM     15  C   UNL     1       7.212   4.906  16.943  0.00  0.00    +0.000 A 
BRANCH  10  17
ATOM     16  C   UNL     1       7.379   4.826  13.239  0.00  0.00    +0.000 C 
ATOM     17  O   UNL     1       7.867   4.753  14.574  0.00  0.00    +0.000 OA
ENDBRANCH  10  17
BRANCH  14  18
ATOM     18  O   UNL     1       6.398   5.015  19.221  0.00  0.00    +0.000 OA
ATOM     19  C   UNL     1       7.584   5.568  19.780  0.00  0.00    +0.000 C 
ENDBRANCH  14  18
ENDBRANCH   1  13
BRANCH   6  20
ATOM     20  C   UNL     1       0.586  10.753  18.890  0.00  0.00    +0.000 A 
ATOM     21  C   UNL     1      -0.721  10.422  19.321  0.00  0.00    +0.000 A 
ATOM     22  C   UNL     1      -1.662  11.393  19.658  0.00  0.00    +0.000 A 
ATOM     23  C   UNL     1      -1.319  12.726  19.561  0.00  0.00    +0.000 A 
ATOM     24  C   UNL     1      -0.035  13.085  19.148  0.00  0.00    +0.000 A 
ATOM     25  C   UNL     1       0.947  12.120  18.832  0.00  0.00    +0.000 A 
BRANCH  25  26
ATOM     26  S   UNL     1       2.549  12.738  18.289  0.00  0.00    +0.000 S 
ATOM     27  C   UNL     1       2.834  14.122  19.438  0.00  0.00    +0.000 C 
ENDBRANCH  25  26
ENDBRANCH   6  20
TORSDOF 5
ENDMDL
MODEL 7
REMARK VINA RESULT:      -7.0      2.021      2.528
REMARK  Name = 
REMARK  8 active torsions:
REMARK  status: ('A' for Active; 'I' for Inactive)
REMARK    1  A    between atoms: C_1  and  O_2
REMARK    2  A    between atoms: O_2  and  C_3
REMARK    3  A    between atoms: C_6  and  C_7
REMARK    4  A    between atoms: C_12  and  C_14
REMARK    5  A    between atoms: C_19  and  S_20
REMARK    6  A    between atoms: S_20  and  C_21
REMARK    7  A    between atoms: C_23  and  O_24
REMARK    8  A    between atoms: O_24  and  C_25
REMARK                            x       y       z     vdW  Elec       q    Type
REMARK                         _______ _______ _______ _____ _____    ______ ____
ROOT
ATOM      1  C   UNL     1       3.435   6.183  18.717  0.00  0.00    +0.000 A 
ATOM      2  C   UNL     1       3.032   5.406  19.792  0.00  0.00    +0.000 A 
ATOM      3  S   UNL     1       1.897   6.273  20.753  0.00  0.00    +0.000 S 
ATOM      4  C   UNL     1       1.979   7.564  19.642  0.00  0.00    +0.000 A 
ATOM      5  N   UNL     1       1.192   8.640  19.943  0.00  0.00    +0.000 N 
ATOM      6  C   UNL     1       1.057   9.689  19.069  0.00  0.00    +0.000 C 
ATOM      7  O   UNL     1       1.508   9.709  17.925  0.00  0.00    +0.000 OA
ATOM      8  N   UNL     1       2.786   7.399  18.627  0.00  0.00    +0.000 NA
ATOM      9  H   UNL     1       0.729   8.643  20.842  0.00  0.00    +0.000 HD
ENDROOT
BRANCH   1  13
ATOM     10  C   UNL     1       6.405   4.959  15.873  0.00  0.00    +0.000 A 
ATOM     11  C   UNL     1       6.535   6.155  16.577  0.00  0.00    +0.000 A 
ATOM     12  C   UNL     1       5.556   6.554  17.490  0.00  0.00    +0.000 A 
ATOM     13  C   UNL     1       4.415   5.765  17.713  0.00  0.00    +0.000 A 
ATOM     14  C   UNL     1       4.278   4.562  16.988  0.00  0.00    +0.000 A 
ATOM     15  C   UNL     1       5.272   4.171  16.073  0.00  0.00    +0.000 A 
BRANCH  10  17
ATOM     16  C   UNL     1       7.117   4.557  13.640  0.00  0.00    +0.000 C 
ATOM     17  O   UNL     1       7.438   4.682  15.021  0.00  0.00    +0.000 OA
ENDBRANCH  10  17
BRANCH  14  18
ATOM     18  O   UNL     1       3.110   3.848  17.116  0.00  0.00    +0.000 OA
ATOM     19  C   UNL     1       3.248   2.530  17.636  0.00  0.00    +0.000 C 
ENDBRANCH  14  18
ENDBRANCH   1  13
BRANCH   6  20
ATOM     20  C   UNL     1       0.278  10.899  19.520  0.00  0.00    +0.000 A 
ATOM     21  C   UNL     1       0.937  11.664  20.511  0.00  0.00    +0.000 A 
ATOM     22  C   UNL     1       0.353  12.787  21.096  0.00  0.00    +0.000 A 
ATOM     23  C   UNL     1      -0.916  13.165  20.707  0.00  0.00    +0.000 A 
ATOM     24  C   UNL     1      -1.589  12.436  19.726  0.00  0.00    +0.000 A 
ATOM     25  C   UNL     1      -1.006  11.315  19.094  0.00  0.00    +0.000 A 
BRANCH  25  26
ATOM     26  S   UNL     1      -2.008  10.461  17.866  0.00  0.00    +0.000 S 
ATOM     27  C   UNL     1      -3.578  11.380  17.949  0.00  0.00    +0.000 C 
ENDBRANCH  25  26
ENDBRANCH   6  20
TORSDOF 5
ENDMDL
MODEL 8
REMARK VINA RESULT:      -7.0      2.330      3.023
REMARK  Name = 
REMARK  8 active torsions:
REMARK  status: ('A' for Active; 'I' for Inactive)
REMARK    1  A    between atoms: C_1  and  O_2
REMARK    2  A    between atoms: O_2  and  C_3
REMARK    3  A    between atoms: C_6  and  C_7
REMARK    4  A    between atoms: C_12  and  C_14
REMARK    5  A    between atoms: C_19  and  S_20
REMARK    6  A    between atoms: S_20  and  C_21
REMARK    7  A    between atoms: C_23  and  O_24
REMARK    8  A    between atoms: O_24  and  C_25
REMARK                            x       y       z     vdW  Elec       q    Type
REMARK                         _______ _______ _______ _____ _____    ______ ____
ROOT
ATOM      1  C   UNL     1       3.249   6.256  18.552  0.00  0.00    +0.000 A 
ATOM      2  C   UNL     1       2.915   5.639  19.748  0.00  0.00    +0.000 A 
ATOM      3  S   UNL     1       1.917   6.680  20.688  0.00  0.00    +0.000 S 
ATOM      4  C   UNL     1       1.952   7.820  19.422  0.00  0.00    +0.000 A 
ATOM      5  N   UNL     1       1.247   8.968  19.653  0.00  0.00    +0.000 N 
ATOM      6  C   UNL     1       1.078   9.909  18.670  0.00  0.00    +0.000 C 
ATOM      7  O   UNL     1       1.419   9.765  17.496  0.00  0.00    +0.000 OA
ATOM      8  N   UNL     1       2.650   7.488  18.368  0.00  0.00    +0.000 NA
ATOM      9  H   UNL     1       0.872   9.106  20.582  0.00  0.00    +0.000 HD
ENDROOT
BRANCH   1  13
ATOM     10  C   UNL     1       5.880   4.549  15.625  0.00  0.00    +0.000 A 
ATOM     11  C   UNL     1       6.016   5.877  16.025  0.00  0.00    +0.000 A 
ATOM     12  C   UNL     1       5.146   6.430  16.967  0.00  0.00    +0.000 A 
ATOM     13  C   UNL     1       4.109   5.665  17.527  0.00  0.00    +0.000 A 
ATOM     14  C   UNL     1       3.963   4.325  17.108  0.00  0.00    +0.000 A 
ATOM     15  C   UNL     1       4.847   3.779  16.160  0.00  0.00    +0.000 A 
BRANCH  10  17
ATOM     16  C   UNL     1       6.326   3.856  13.394  0.00  0.00    +0.000 C 
ATOM     17  O   UNL     1       6.803   4.131  14.707  0.00  0.00    +0.000 OA
ENDBRANCH  10  17
BRANCH  14  18
ATOM     18  O   UNL     1       2.880   3.609  17.563  0.00  0.00    +0.000 OA
ATOM     19  C   UNL     1       3.137   2.251  17.901  0.00  0.00    +0.000 C 
ENDBRANCH  14  18
ENDBRANCH   1  13
BRANCH   6  20
ATOM     20  C   UNL     1       0.401  11.208  19.032  0.00  0.00    +0.000 A 
ATOM     21  C   UNL     1      -0.912  11.045  19.535  0.00  0.00    +0.000 A 
ATOM     22  C   UNL     1      -1.720  12.129  19.871  0.00  0.00    +0.000 A 
ATOM     23  C   UNL     1      -1.234  13.410  19.699  0.00  0.00    +0.000 A 
ATOM     24  C   UNL     1       0.060  13.603  19.213  0.00  0.00    +0.000 A 
ATOM     25  C   UNL     1       0.910  12.521  18.897  0.00  0.00    +0.000 A 
BRANCH  25  26
ATOM     26  S   UNL     1       2.542  12.930  18.255  0.00  0.00    +0.000 S 
ATOM     27  C   UNL     1       2.614  14.732  18.514  0.00  0.00    +0.000 C 
ENDBRANCH  25  26
ENDBRANCH   6  20
TORSDOF 5
ENDMDL
MODEL 9
REMARK VINA RESULT:      -7.0      1.561      2.328
REMARK  Name = 
REMARK  8 active torsions:
REMARK  status: ('A' for Active; 'I' for Inactive)
REMARK    1  A    between atoms: C_1  and  O_2
REMARK    2  A    between atoms: O_2  and  C_3
REMARK    3  A    between atoms: C_6  and  C_7
REMARK    4  A    between atoms: C_12  and  C_14
REMARK    5  A    between atoms: C_19  and  S_20
REMARK    6  A    between atoms: S_20  and  C_21
REMARK    7  A    between atoms: C_23  and  O_24
REMARK    8  A    between atoms: O_24  and  C_25
REMARK                            x       y       z     vdW  Elec       q    Type
REMARK                         _______ _______ _______ _____ _____    ______ ____
ROOT
ATOM      1  C   UNL     1       3.999   5.597  17.981  0.00  0.00    +0.000 A 
ATOM      2  C   UNL     1       3.670   4.746  19.024  0.00  0.00    +0.000 A 
ATOM      3  S   UNL     1       2.609   5.543  20.122  0.00  0.00    +0.000 S 
ATOM      4  C   UNL     1       2.619   6.909  19.102  0.00  0.00    +0.000 A 
ATOM      5  N   UNL     1       1.860   7.961  19.533  0.00  0.00    +0.000 N 
ATOM      6  C   UNL     1       1.669   9.069  18.747  0.00  0.00    +0.000 C 
ATOM      7  O   UNL     1       2.038   9.169  17.578  0.00  0.00    +0.000 OA
ATOM      8  N   UNL     1       3.351   6.817  18.023  0.00  0.00    +0.000 NA
ATOM      9  H   UNL     1       1.462   7.901  20.460  0.00  0.00    +0.000 HD
ENDROOT
BRANCH   1  13
ATOM     10  C   UNL     1       6.557   4.630  14.675  0.00  0.00    +0.000 A 
ATOM     11  C   UNL     1       5.300   4.044  14.806  0.00  0.00    +0.000 A 
ATOM     12  C   UNL     1       4.479   4.352  15.893  0.00  0.00    +0.000 A 
ATOM     13  C   UNL     1       4.904   5.252  16.884  0.00  0.00    +0.000 A 
ATOM     14  C   UNL     1       6.185   5.833  16.758  0.00  0.00    +0.000 A 
ATOM     15  C   UNL     1       7.001   5.515  15.658  0.00  0.00    +0.000 A 
BRANCH  10  17
ATOM     16  C   UNL     1       6.505   3.660  12.505  0.00  0.00    +0.000 C 
ATOM     17  O   UNL     1       7.253   4.251  13.561  0.00  0.00    +0.000 OA
ENDBRANCH  10  17
BRANCH  14  18
ATOM     18  O   UNL     1       6.651   6.621  17.784  0.00  0.00    +0.000 OA
ATOM     19  C   UNL     1       7.686   6.050  18.578  0.00  0.00    +0.000 C 
ENDBRANCH  14  18
ENDBRANCH   1  13
BRANCH   6  20
ATOM     20  C   UNL     1       0.929  10.244  19.336  0.00  0.00    +0.000 A 
ATOM     21  C   UNL     1       1.113  11.450  18.619  0.00  0.00    +0.000 A 
ATOM     22  C   UNL     1       0.557  12.657  19.039  0.00  0.00    +0.000 A 
ATOM     23  C   UNL     1      -0.190  12.688  20.199  0.00  0.00    +0.000 A 
ATOM     24  C   UNL     1      -0.397  11.513  20.923  0.00  0.00    +0.000 A 
ATOM     25  C   UNL     1       0.127  10.271  20.501  0.00  0.00    +0.000 A 
BRANCH  25  26
ATOM     26  S   UNL     1      -0.202   8.849  21.556  0.00  0.00    +0.000 S 
ATOM     27  C   UNL     1      -0.219   9.601  23.215  0.00  0.00    +0.000 C 
ENDBRANCH  25  26
ENDBRANCH   6  20
TORSDOF 5
ENDMDL
