MODEL 1
REMARK VINA RESULT:      -7.5      0.000      0.000
REMARK  Name = 
REMARK  6 active torsions:
REMARK  status: ('A' for Active; 'I' for Inactive)
REMARK    1  A    between atoms: C_2  and  N_3
REMARK    2  A    between atoms: C_2  and  N_12
REMARK    3  A    between atoms: N_3  and  C_4
REMARK    4  A    between atoms: N_12  and  N_13
REMARK    5  A    between atoms: C_14  and  S_15
REMARK    6  A    between atoms: C_18  and  C_19
REMARK                            x       y       z     vdW  Elec       q    Type
REMARK                         _______ _______ _______ _____ _____    ______ ____
ROOT
ATOM      1  N   UNL     1       2.781   5.185  18.613  0.00  0.00    +0.000 N 
ATOM      2  H   UNL     1       2.078   4.863  17.950  0.00  0.00    +0.000 HD
ENDROOT
BRANCH   1   3
ATOM      3  N   UNL     1       3.460   4.192  19.249  0.00  0.00    +0.000 N 
ATOM      4  C   UNL     1       3.002   3.393  20.268  0.00  0.00    +0.000 A 
ATOM      5  N   UNL     1       3.873   2.436  20.488  0.00  0.00    +0.000 NA
ATOM      6  N   UNL     1       4.889   2.571  19.571  0.00  0.00    +0.000 NA
ATOM      7  C   UNL     1       4.634   3.616  18.799  0.00  0.00    +0.000 A 
BRANCH   7   8
ATOM      8  C   UNL     1       5.463   4.058  17.684  0.00  0.00    +0.000 A 
ATOM      9  C   UNL     1       6.739   4.580  17.885  0.00  0.00    +0.000 A 
ATOM     10  N   UNL     1       7.507   5.054  16.870  0.00  0.00    +0.000 NA
ATOM     11  C   UNL     1       6.958   4.985  15.643  0.00  0.00    +0.000 A 
ATOM     12  C   UNL     1       5.695   4.444  15.428  0.00  0.00    +0.000 A 
ATOM     13  N   UNL     1       4.927   3.965  16.440  0.00  0.00    +0.000 NA
ENDBRANCH   7   8
BRANCH   4  14
ATOM     14  S   UNL     1       1.526   3.582  21.150  0.00  0.00    +0.000 S 
ATOM     15  H   UNL     1       0.674   3.777  20.135  0.00  0.00    +0.000 HD
ENDBRANCH   4  14
ENDBRANCH   1   3
BRANCH   1  17
ATOM     16  S   UNL     1       3.727   7.308  17.505  0.00  0.00    +0.000 S 
ATOM     17  C   UNL     1       2.948   6.533  18.764  0.00  0.00    +0.000 C 
BRANCH  17  18
ATOM     18  N   UNL     1       2.459   7.075  19.932  0.00  0.00    +0.000 N 
ATOM     19  H   UNL     1       2.961   6.784  20.765  0.00  0.00    +0.000 HD
BRANCH  18  20
ATOM     20  C   UNL     1       1.612   8.191  20.138  0.00  0.00    +0.000 A 
ATOM     21  C   UNL     1       1.259   9.106  19.146  0.00  0.00    +0.000 A 
ATOM     22  C   UNL     1       0.458  10.214  19.450  0.00  0.00    +0.000 A 
ATOM     23  C   UNL     1      -0.014  10.407  20.749  0.00  0.00    +0.000 A 
ATOM     24 CL   UNL     1      -0.953  11.820  21.065  0.00  0.00    +0.000 Cl
ATOM     25  C   UNL     1       0.285   9.464  21.735  0.00  0.00    +0.000 A 
ATOM     26 CL   UNL     1      -0.265   9.624  23.366  0.00  0.00    +0.000 Cl
ATOM     27  C   UNL     1       1.074   8.351  21.423  0.00  0.00    +0.000 A 
ENDBRANCH  18  20
ENDBRANCH  17  18
ENDBRANCH   1  17
TORSDOF 6
ENDMDL
MODEL 2
REMARK VINA RESULT:      -7.3      0.623      1.011
REMARK  Name = 
REMARK  6 active torsions:
REMARK  status: ('A' for Active; 'I' for Inactive)
REMARK    1  A    between atoms: C_2  and  N_3
REMARK    2  A    between atoms: C_2  and  N_12
REMARK    3  A    between atoms: N_3  and  C_4
REMARK    4  A    between atoms: N_12  and  N_13
REMARK    5  A    between atoms: C_14  and  S_15
REMARK    6  A    between atoms: C_18  and  C_19
REMARK                            x       y       z     vdW  Elec       q    Type
REMARK                         _______ _______ _______ _____ _____    ______ ____
ROOT
ATOM      1  N   UNL     1       2.734   5.041  18.760  0.00  0.00    +0.000 N 
ATOM      2  H   UNL     1       2.033   4.717  18.098  0.00  0.00    +0.000 HD
ENDROOT
BRANCH   1   3
ATOM      3  N   UNL     1       3.383   4.052  19.433  0.00  0.00    +0.000 N 
ATOM      4  C   UNL     1       2.869   3.239  20.414  0.00  0.00    +0.000 A 
ATOM      5  N   UNL     1       3.736   2.292  20.684  0.00  0.00    +0.000 NA
ATOM      6  N   UNL     1       4.808   2.446  19.837  0.00  0.00    +0.000 NA
ATOM      7  C   UNL     1       4.591   3.494  19.057  0.00  0.00    +0.000 A 
BRANCH   7   8
ATOM      8  C   UNL     1       5.487   3.955  18.002  0.00  0.00    +0.000 A 
ATOM      9  C   UNL     1       5.170   3.798  16.655  0.00  0.00    +0.000 A 
ATOM     10  N   UNL     1       6.014   4.163  15.655  0.00  0.00    +0.000 NA
ATOM     11  C   UNL     1       7.185   4.696  16.047  0.00  0.00    +0.000 A 
ATOM     12  C   UNL     1       7.502   4.879  17.388  0.00  0.00    +0.000 A 
ATOM     13  N   UNL     1       6.659   4.519  18.390  0.00  0.00    +0.000 NA
ENDBRANCH   7   8
BRANCH   4  14
ATOM     14  S   UNL     1       1.335   3.403  21.198  0.00  0.00    +0.000 S 
ATOM     15  H   UNL     1       1.285   4.735  21.329  0.00  0.00    +0.000 HD
ENDBRANCH   4  14
ENDBRANCH   1   3
BRANCH   1  17
ATOM     16  S   UNL     1       3.724   7.113  17.594  0.00  0.00    +0.000 S 
ATOM     17  C   UNL     1       2.930   6.389  18.874  0.00  0.00    +0.000 C 
BRANCH  17  18
ATOM     18  N   UNL     1       2.455   6.973  20.028  0.00  0.00    +0.000 N 
ATOM     19  H   UNL     1       2.953   6.694  20.868  0.00  0.00    +0.000 HD
BRANCH  18  20
ATOM     20  C   UNL     1       1.632   8.111  20.205  0.00  0.00    +0.000 A 
ATOM     21  C   UNL     1       1.315   9.019  19.195  0.00  0.00    +0.000 A 
ATOM     22  C   UNL     1       0.536  10.149  19.470  0.00  0.00    +0.000 A 
ATOM     23  C   UNL     1       0.050  10.372  20.759  0.00  0.00    +0.000 A 
ATOM     24 CL   UNL     1      -0.861  11.812  21.041  0.00  0.00    +0.000 Cl
ATOM     25  C   UNL     1       0.311   9.438  21.763  0.00  0.00    +0.000 A 
ATOM     26 CL   UNL     1      -0.259   9.634  23.384  0.00  0.00    +0.000 Cl
ATOM     27  C   UNL     1       1.079   8.302  21.479  0.00  0.00    +0.000 A 
ENDBRANCH  18  20
ENDBRANCH  17  18
ENDBRANCH   1  17
TORSDOF 6
ENDMDL
MODEL 3
REMARK VINA RESULT:      -7.1      2.514      4.422
REMARK  Name = 
REMARK  6 active torsions:
REMARK  status: ('A' for Active; 'I' for Inactive)
REMARK    1  A    between atoms: C_2  and  N_3
REMARK    2  A    between atoms: C_2  and  N_12
REMARK    3  A    between atoms: N_3  and  C_4
REMARK    4  A    between atoms: N_12  and  N_13
REMARK    5  A    between atoms: C_14  and  S_15
REMARK    6  A    between atoms: C_18  and  C_19
REMARK                            x       y       z     vdW  Elec       q    Type
REMARK                         _______ _______ _______ _____ _____    ______ ____
ROOT
ATOM      1  N   UNL     1       5.407   3.560  16.932  0.00  0.00    +0.000 N 
ATOM      2  H   UNL     1       5.870   2.678  16.726  0.00  0.00    +0.000 HD
ENDROOT
BRANCH   1   3
ATOM      3  N   UNL     1       6.161   4.668  16.699  0.00  0.00    +0.000 N 
ATOM      4  C   UNL     1       6.768   5.472  17.634  0.00  0.00    +0.000 A 
ATOM      5  N   UNL     1       7.556   6.324  17.021  0.00  0.00    +0.000 NA
ATOM      6  N   UNL     1       7.513   6.045  15.675  0.00  0.00    +0.000 NA
ATOM      7  C   UNL     1       6.692   5.027  15.473  0.00  0.00    +0.000 A 
BRANCH   7   8
ATOM      8  C   UNL     1       6.413   4.417  14.178  0.00  0.00    +0.000 A 
ATOM      9  C   UNL     1       7.366   4.392  13.162  0.00  0.00    +0.000 A 
ATOM     10  N   UNL     1       7.111   3.886  11.928  0.00  0.00    +0.000 NA
ATOM     11  C   UNL     1       5.871   3.398  11.744  0.00  0.00    +0.000 A 
ATOM     12  C   UNL     1       4.919   3.396  12.758  0.00  0.00    +0.000 A 
ATOM     13  N   UNL     1       5.172   3.898  13.994  0.00  0.00    +0.000 NA
ENDBRANCH   7   8
BRANCH   4  14
ATOM     14  S   UNL     1       6.553   5.411  19.349  0.00  0.00    +0.000 S 
ATOM     15  H   UNL     1       5.867   4.266  19.455  0.00  0.00    +0.000 HD
ENDBRANCH   4  14
ENDBRANCH   1   3
BRANCH   1  17
ATOM     16  S   UNL     1       3.650   2.061  18.072  0.00  0.00    +0.000 S 
ATOM     17  C   UNL     1       4.121   3.514  17.393  0.00  0.00    +0.000 C 
BRANCH  17  18
ATOM     18  N   UNL     1       3.380   4.664  17.234  0.00  0.00    +0.000 N 
ATOM     19  H   UNL     1       2.902   4.729  16.340  0.00  0.00    +0.000 HD
BRANCH  18  20
ATOM     20  C   UNL     1       2.917   5.594  18.196  0.00  0.00    +0.000 A 
ATOM     21  C   UNL     1       2.606   5.272  19.518  0.00  0.00    +0.000 A 
ATOM     22  C   UNL     1       2.102   6.245  20.389  0.00  0.00    +0.000 A 
ATOM     23  C   UNL     1       1.920   7.557  19.951  0.00  0.00    +0.000 A 
ATOM     24 CL   UNL     1       1.246   8.694  21.062  0.00  0.00    +0.000 Cl
ATOM     25  C   UNL     1       2.284   7.903  18.648  0.00  0.00    +0.000 A 
ATOM     26 CL   UNL     1       2.098   9.506  18.027  0.00  0.00    +0.000 Cl
ATOM     27  C   UNL     1       2.801   6.929  17.784  0.00  0.00    +0.000 A 
ENDBRANCH  18  20
ENDBRANCH  17  18
ENDBRANCH   1  17
TORSDOF 6
ENDMDL
MODEL 4
REMARK VINA RESULT:      -7.1      1.253      1.594
REMARK  Name = 
REMARK  6 active torsions:
REMARK  status: ('A' for Active; 'I' for Inactive)
REMARK    1  A    between atoms: C_2  and  N_3
REMARK    2  A    between atoms: C_2  and  N_12
REMARK    3  A    between atoms: N_3  and  C_4
REMARK    4  A    between atoms: N_12  and  N_13
REMARK    5  A    between atoms: C_14  and  S_15
REMARK    6  A    between atoms: C_18  and  C_19
REMARK                            x       y       z     vdW  Elec       q    Type
REMARK                         _______ _______ _______ _____ _____    ______ ____
ROOT
ATOM      1  N   UNL     1       3.036   5.380  20.158  0.00  0.00    +0.000 N 
ATOM      2  H   UNL     1       3.022   5.880  21.045  0.00  0.00    +0.000 HD
ENDROOT
BRANCH   1   3
ATOM      3  N   UNL     1       3.611   4.147  20.208  0.00  0.00    +0.000 N 
ATOM      4  C   UNL     1       3.041   2.982  20.660  0.00  0.00    +0.000 A 
ATOM      5  N   UNL     1       3.835   1.977  20.376  0.00  0.00    +0.000 NA
ATOM      6  N   UNL     1       4.913   2.474  19.683  0.00  0.00    +0.000 NA
ATOM      7  C   UNL     1       4.773   3.784  19.552  0.00  0.00    +0.000 A 
BRANCH   7   8
ATOM      8  C   UNL     1       5.697   4.661  18.842  0.00  0.00    +0.000 A 
ATOM      9  C   UNL     1       5.647   4.808  17.458  0.00  0.00    +0.000 A 
ATOM     10  N   UNL     1       6.534   5.570  16.768  0.00  0.00    +0.000 NA
ATOM     11  C   UNL     1       7.473   6.187  17.509  0.00  0.00    +0.000 A 
ATOM     12  C   UNL     1       7.518   6.065  18.893  0.00  0.00    +0.000 A 
ATOM     13  N   UNL     1       6.630   5.308  19.587  0.00  0.00    +0.000 NA
ENDBRANCH   7   8
BRANCH   4  14
ATOM     14  S   UNL     1       1.526   2.819  21.481  0.00  0.00    +0.000 S 
ATOM     15  H   UNL     1       1.034   1.749  20.845  0.00  0.00    +0.000 HD
ENDBRANCH   4  14
ENDBRANCH   1   3
BRANCH   1  17
ATOM     16  S   UNL     1       1.747   4.977  17.965  0.00  0.00    +0.000 S 
ATOM     17  C   UNL     1       2.482   5.994  19.070  0.00  0.00    +0.000 C 
BRANCH  17  18
ATOM     18  N   UNL     1       2.606   7.365  19.022  0.00  0.00    +0.000 N 
ATOM     19  H   UNL     1       3.337   7.693  18.398  0.00  0.00    +0.000 HD
BRANCH  18  20
ATOM     20  C   UNL     1       1.704   8.379  19.426  0.00  0.00    +0.000 A 
ATOM     21  C   UNL     1       1.241   9.398  18.593  0.00  0.00    +0.000 A 
ATOM     22  C   UNL     1       0.391  10.394  19.090  0.00  0.00    +0.000 A 
ATOM     23  C   UNL     1      -0.018  10.370  20.423  0.00  0.00    +0.000 A 
ATOM     24 CL   UNL     1      -1.024  11.657  20.983  0.00  0.00    +0.000 Cl
ATOM     25  C   UNL     1       0.393   9.322  21.249  0.00  0.00    +0.000 A 
ATOM     26 CL   UNL     1      -0.074   9.212  22.910  0.00  0.00    +0.000 Cl
ATOM     27  C   UNL     1       1.231   8.320  20.744  0.00  0.00    +0.000 A 
ENDBRANCH  18  20
ENDBRANCH  17  18
ENDBRANCH   1  17
TORSDOF 6
ENDMDL
MODEL 5
REMARK VINA RESULT:      -7.0      0.684      1.459
REMARK  Name = 
REMARK  6 active torsions:
REMARK  status: ('A' for Active; 'I' for Inactive)
REMARK    1  A    between atoms: C_2  and  N_3
REMARK    2  A    between atoms: C_2  and  N_12
REMARK    3  A    between atoms: N_3  and  C_4
REMARK    4  A    between atoms: N_12  and  N_13
REMARK    5  A    between atoms: C_14  and  S_15
REMARK    6  A    between atoms: C_18  and  C_19
REMARK                            x       y       z     vdW  Elec       q    Type
REMARK                         _______ _______ _______ _____ _____    ______ ____
ROOT
ATOM      1  N   UNL     1       2.674   5.243  18.741  0.00  0.00    +0.000 N 
ATOM      2  H   UNL     1       1.994   4.931  18.051  0.00  0.00    +0.000 HD
ENDROOT
BRANCH   1   3
ATOM      3  N   UNL     1       3.389   4.245  19.328  0.00  0.00    +0.000 N 
ATOM      4  C   UNL     1       2.965   3.388  20.315  0.00  0.00    +0.000 A 
ATOM      5  N   UNL     1       3.866   2.450  20.486  0.00  0.00    +0.000 NA
ATOM      6  N   UNL     1       4.869   2.656  19.568  0.00  0.00    +0.000 NA
ATOM      7  C   UNL     1       4.575   3.725  18.844  0.00  0.00    +0.000 A 
BRANCH   7   8
ATOM      8  C   UNL     1       5.381   4.240  17.742  0.00  0.00    +0.000 A 
ATOM      9  C   UNL     1       6.684   4.692  17.940  0.00  0.00    +0.000 A 
ATOM     10  N   UNL     1       7.432   5.232  16.943  0.00  0.00    +0.000 NA
ATOM     11  C   UNL     1       6.836   5.301  15.739  0.00  0.00    +0.000 A 
ATOM     12  C   UNL     1       5.545   4.832  15.526  0.00  0.00    +0.000 A 
ATOM     13  N   UNL     1       4.795   4.287  16.518  0.00  0.00    +0.000 NA
ENDBRANCH   7   8
BRANCH   4  14
ATOM     14  S   UNL     1       1.491   3.494  21.216  0.00  0.00    +0.000 S 
ATOM     15  H   UNL     1       0.775   4.273  20.396  0.00  0.00    +0.000 HD
ENDBRANCH   4  14
ENDBRANCH   1   3
BRANCH   1  17
ATOM     16  S   UNL     1       3.440   7.482  17.726  0.00  0.00    +0.000 S 
ATOM     17  C   UNL     1       2.779   6.586  18.972  0.00  0.00    +0.000 C 
BRANCH  17  18
ATOM     18  N   UNL     1       2.334   7.024  20.200  0.00  0.00    +0.000 N 
ATOM     19  H   UNL     1       2.833   6.622  20.989  0.00  0.00    +0.000 HD
BRANCH  18  20
ATOM     20  C   UNL     1       1.546   8.151  20.539  0.00  0.00    +0.000 A 
ATOM     21  C   UNL     1       1.321   8.591  21.844  0.00  0.00    +0.000 A 
ATOM     22  C   UNL     1       0.483   9.684  22.092  0.00  0.00    +0.000 A 
ATOM     23  C   UNL     1      -0.126  10.360  21.034  0.00  0.00    +0.000 A 
ATOM     24 CL   UNL     1      -1.188  11.667  21.415  0.00  0.00    +0.000 Cl
ATOM     25  C   UNL     1       0.140   9.964  19.722  0.00  0.00    +0.000 A 
ATOM     26 CL   UNL     1      -0.566  10.751  18.355  0.00  0.00    +0.000 Cl
ATOM     27  C   UNL     1       0.991   8.879  19.478  0.00  0.00    +0.000 A 
ENDBRANCH  18  20
ENDBRANCH  17  18
ENDBRANCH   1  17
TORSDOF 6
ENDMDL
MODEL 6
REMARK VINA RESULT:      -7.0      1.475      2.189
REMARK  Name = 
REMARK  6 active torsions:
REMARK  status: ('A' for Active; 'I' for Inactive)
REMARK    1  A    between atoms: C_2  and  N_3
REMARK    2  A    between atoms: C_2  and  N_12
REMARK    3  A    between atoms: N_3  and  C_4
REMARK    4  A    between atoms: N_12  and  N_13
REMARK    5  A    between atoms: C_14  and  S_15
REMARK    6  A    between atoms: C_18  and  C_19
REMARK                            x       y       z     vdW  Elec       q    Type
REMARK                         _______ _______ _______ _____ _____    ______ ____
ROOT
ATOM      1  N   UNL     1       3.127   5.817  20.124  0.00  0.00    +0.000 N 
ATOM      2  H   UNL     1       3.280   6.326  20.992  0.00  0.00    +0.000 HD
ENDROOT
BRANCH   1   3
ATOM      3  N   UNL     1       3.694   4.581  20.081  0.00  0.00    +0.000 N 
ATOM      4  C   UNL     1       3.102   3.383  20.404  0.00  0.00    +0.000 A 
ATOM      5  N   UNL     1       3.901   2.402  20.057  0.00  0.00    +0.000 NA
ATOM      6  N   UNL     1       5.006   2.952  19.450  0.00  0.00    +0.000 NA
ATOM      7  C   UNL     1       4.876   4.270  19.436  0.00  0.00    +0.000 A 
BRANCH   7   8
ATOM      8  C   UNL     1       5.830   5.200  18.843  0.00  0.00    +0.000 A 
ATOM      9  C   UNL     1       5.607   5.779  17.595  0.00  0.00    +0.000 A 
ATOM     10  N   UNL     1       6.507   6.600  16.995  0.00  0.00    +0.000 NA
ATOM     11  C   UNL     1       7.638   6.829  17.686  0.00  0.00    +0.000 A 
ATOM     12  C   UNL     1       7.861   6.275  18.942  0.00  0.00    +0.000 A 
ATOM     13  N   UNL     1       6.962   5.458  19.547  0.00  0.00    +0.000 NA
ENDBRANCH   7   8
BRANCH   4  14
ATOM     14  S   UNL     1       1.558   3.159  21.151  0.00  0.00    +0.000 S 
ATOM     15  H   UNL     1       1.119   2.099  20.460  0.00  0.00    +0.000 HD
ENDBRANCH   4  14
ENDBRANCH   1   3
BRANCH   1  17
ATOM     16  S   UNL     1       1.780   5.410  17.967  0.00  0.00    +0.000 S 
ATOM     17  C   UNL     1       2.385   6.424  19.150  0.00  0.00    +0.000 C 
BRANCH  17  18
ATOM     18  N   UNL     1       2.237   7.789  19.266  0.00  0.00    +0.000 N 
ATOM     19  H   UNL     1       2.526   8.308  18.442  0.00  0.00    +0.000 HD
BRANCH  18  20
ATOM     20  C   UNL     1       1.470   8.552  20.179  0.00  0.00    +0.000 A 
ATOM     21  C   UNL     1       1.440   8.333  21.557  0.00  0.00    +0.000 A 
ATOM     22  C   UNL     1       0.610   9.101  22.383  0.00  0.00    +0.000 A 
ATOM     23  C   UNL     1      -0.186  10.110  21.839  0.00  0.00    +0.000 A 
ATOM     24 CL   UNL     1      -1.224  10.984  22.907  0.00  0.00    +0.000 Cl
ATOM     25  C   UNL     1      -0.119  10.375  20.470  0.00  0.00    +0.000 A 
ATOM     26 CL   UNL     1      -1.066  11.610  19.717  0.00  0.00    +0.000 Cl
ATOM     27  C   UNL     1       0.724   9.613  19.650  0.00  0.00    +0.000 A 
ENDBRANCH  18  20
ENDBRANCH  17  18
ENDBRANCH   1  17
TORSDOF 6
ENDMDL
MODEL 7
REMARK VINA RESULT:      -7.0      1.419      1.790
REMARK  Name = 
REMARK  6 active torsions:
REMARK  status: ('A' for Active; 'I' for Inactive)
REMARK    1  A    between atoms: C_2  and  N_3
REMARK    2  A    between atoms: C_2  and  N_12
REMARK    3  A    between atoms: N_3  and  C_4
REMARK    4  A    between atoms: N_12  and  N_13
REMARK    5  A    between atoms: C_14  and  S_15
REMARK    6  A    between atoms: C_18  and  C_19
REMARK                            x       y       z     vdW  Elec       q    Type
REMARK                         _______ _______ _______ _____ _____    ______ ____
ROOT
ATOM      1  N   UNL     1       3.145   5.564  20.187  0.00  0.00    +0.000 N 
ATOM      2  H   UNL     1       3.468   5.544  21.152  0.00  0.00    +0.000 HD
ENDROOT
BRANCH   1   3
ATOM      3  N   UNL     1       3.397   4.430  19.479  0.00  0.00    +0.000 N 
ATOM      4  C   UNL     1       2.527   3.398  19.226  0.00  0.00    +0.000 A 
ATOM      5  N   UNL     1       3.072   2.579  18.358  0.00  0.00    +0.000 NA
ATOM      6  N   UNL     1       4.290   3.102  17.992  0.00  0.00    +0.000 NA
ATOM      7  C   UNL     1       4.483   4.237  18.645  0.00  0.00    +0.000 A 
BRANCH   7   8
ATOM      8  C   UNL     1       5.647   5.104  18.495  0.00  0.00    +0.000 A 
ATOM      9  C   UNL     1       5.875   5.824  17.324  0.00  0.00    +0.000 A 
ATOM     10  N   UNL     1       6.981   6.590  17.137  0.00  0.00    +0.000 NA
ATOM     11  C   UNL     1       7.851   6.617  18.163  0.00  0.00    +0.000 A 
ATOM     12  C   UNL     1       7.622   5.921  19.345  0.00  0.00    +0.000 A 
ATOM     13  N   UNL     1       6.515   5.158  19.537  0.00  0.00    +0.000 NA
ENDBRANCH   7   8
BRANCH   4  14
ATOM     14  S   UNL     1       0.958   3.171  19.920  0.00  0.00    +0.000 S 
ATOM     15  H   UNL     1       0.193   3.541  18.885  0.00  0.00    +0.000 HD
ENDBRANCH   4  14
ENDBRANCH   1   3
BRANCH   1  17
ATOM     16  S   UNL     1       2.374   6.844  18.090  0.00  0.00    +0.000 S 
ATOM     17  C   UNL     1       2.513   6.694  19.748  0.00  0.00    +0.000 C 
BRANCH  17  18
ATOM     18  N   UNL     1       2.079   7.562  20.726  0.00  0.00    +0.000 N 
ATOM     19  H   UNL     1       2.632   7.537  21.577  0.00  0.00    +0.000 HD
BRANCH  18  20
ATOM     20  C   UNL     1       1.221   8.685  20.637  0.00  0.00    +0.000 A 
ATOM     21  C   UNL     1       1.047   9.453  19.486  0.00  0.00    +0.000 A 
ATOM     22  C   UNL     1       0.218  10.582  19.501  0.00  0.00    +0.000 A 
ATOM     23  C   UNL     1      -0.459  10.944  20.666  0.00  0.00    +0.000 A 
ATOM     24 CL   UNL     1      -1.422  12.376  20.629  0.00  0.00    +0.000 Cl
ATOM     25  C   UNL     1      -0.337  10.147  21.806  0.00  0.00    +0.000 A 
ATOM     26 CL   UNL     1      -1.146  10.519  23.288  0.00  0.00    +0.000 Cl
ATOM     27  C   UNL     1       0.482   9.011  21.782  0.00  0.00    +0.000 A 
ENDBRANCH  18  20
ENDBRANCH  17  18
ENDBRANCH   1  17
TORSDOF 6
ENDMDL
MODEL 8
REMARK VINA RESULT:      -6.9      1.414      1.484
REMARK  Name = 
REMARK  6 active torsions:
REMARK  status: ('A' for Active; 'I' for Inactive)
REMARK    1  A    between atoms: C_2  and  N_3
REMARK    2  A    between atoms: C_2  and  N_12
REMARK    3  A    between atoms: N_3  and  C_4
REMARK    4  A    between atoms: N_12  and  N_13
REMARK    5  A    between atoms: C_14  and  S_15
REMARK    6  A    between atoms: C_18  and  C_19
REMARK                            x       y       z     vdW  Elec       q    Type
REMARK                         _______ _______ _______ _____ _____    ______ ____
ROOT
ATOM      1  N   UNL     1       3.057   5.583  19.917  0.00  0.00    +0.000 N 
ATOM      2  H   UNL     1       3.005   6.115  20.784  0.00  0.00    +0.000 HD
ENDROOT
BRANCH   1   3
ATOM      3  N   UNL     1       3.761   4.422  20.002  0.00  0.00    +0.000 N 
ATOM      4  C   UNL     1       3.305   3.204  20.444  0.00  0.00    +0.000 A 
ATOM      5  N   UNL     1       4.216   2.290  20.202  0.00  0.00    +0.000 NA
ATOM      6  N   UNL     1       5.260   2.899  19.546  0.00  0.00    +0.000 NA
ATOM      7  C   UNL     1       4.982   4.185  19.397  0.00  0.00    +0.000 A 
BRANCH   7   8
ATOM      8  C   UNL     1       5.832   5.155  18.715  0.00  0.00    +0.000 A 
ATOM      9  C   UNL     1       7.070   5.531  19.231  0.00  0.00    +0.000 A 
ATOM     10  N   UNL     1       7.852   6.476  18.648  0.00  0.00    +0.000 NA
ATOM     11  C   UNL     1       7.358   7.030  17.526  0.00  0.00    +0.000 A 
ATOM     12  C   UNL     1       6.135   6.645  16.989  0.00  0.00    +0.000 A 
ATOM     13  N   UNL     1       5.352   5.698  17.567  0.00  0.00    +0.000 NA
ENDBRANCH   7   8
BRANCH   4  14
ATOM     14  S   UNL     1       1.786   2.880  21.205  0.00  0.00    +0.000 S 
ATOM     15  H   UNL     1       2.195   2.695  22.467  0.00  0.00    +0.000 HD
ENDBRANCH   4  14
ENDBRANCH   1   3
BRANCH   1  17
ATOM     16  S   UNL     1       1.598   4.976  17.884  0.00  0.00    +0.000 S 
ATOM     17  C   UNL     1       2.422   6.090  18.818  0.00  0.00    +0.000 C 
BRANCH  17  18
ATOM     18  N   UNL     1       2.548   7.447  18.620  0.00  0.00    +0.000 N 
ATOM     19  H   UNL     1       3.120   7.698  17.819  0.00  0.00    +0.000 HD
BRANCH  18  20
ATOM     20  C   UNL     1       1.775   8.521  19.126  0.00  0.00    +0.000 A 
ATOM     21  C   UNL     1       1.393   9.636  18.380  0.00  0.00    +0.000 A 
ATOM     22  C   UNL     1       0.674  10.679  18.975  0.00  0.00    +0.000 A 
ATOM     23  C   UNL     1       0.314  10.609  20.321  0.00  0.00    +0.000 A 
ATOM     24 CL   UNL     1      -0.527  11.953  21.005  0.00  0.00    +0.000 Cl
ATOM     25  C   UNL     1       0.641   9.470  21.061  0.00  0.00    +0.000 A 
ATOM     26 CL   UNL     1       0.227   9.299  22.731  0.00  0.00    +0.000 Cl
ATOM     27  C   UNL     1       1.348   8.423  20.457  0.00  0.00    +0.000 A 
ENDBRANCH  18  20
ENDBRANCH  17  18
ENDBRANCH   1  17
TORSDOF 6
ENDMDL
MODEL 9
REMARK VINA RESULT:      -6.9      1.648      1.953
REMARK  Name = 
REMARK  6 active torsions:
REMARK  status: ('A' for Active; 'I' for Inactive)
REMARK    1  A    between atoms: C_2  and  N_3
REMARK    2  A    between atoms: C_2  and  N_12
REMARK    3  A    between atoms: N_3  and  C_4
REMARK    4  A    between atoms: N_12  and  N_13
REMARK    5  A    between atoms: C_14  and  S_15
REMARK    6  A    between atoms: C_18  and  C_19
REMARK                            x       y       z     vdW  Elec       q    Type
REMARK                         _______ _______ _______ _____ _____    ______ ____
ROOT
ATOM      1  N   UNL     1       2.461   5.106  18.777  0.00  0.00    +0.000 N 
ATOM      2  H   UNL     1       2.026   5.617  18.013  0.00  0.00    +0.000 HD
ENDROOT
BRANCH   1   3
ATOM      3  N   UNL     1       3.018   3.916  18.422  0.00  0.00    +0.000 N 
ATOM      4  C   UNL     1       2.377   2.711  18.267  0.00  0.00    +0.000 A 
ATOM      5  N   UNL     1       3.210   1.845  17.739  0.00  0.00    +0.000 NA
ATOM      6  N   UNL     1       4.395   2.497  17.493  0.00  0.00    +0.000 NA
ATOM      7  C   UNL     1       4.280   3.759  17.878  0.00  0.00    +0.000 A 
BRANCH   7   8
ATOM      8  C   UNL     1       5.317   4.776  17.745  0.00  0.00    +0.000 A 
ATOM      9  C   UNL     1       5.312   5.690  16.693  0.00  0.00    +0.000 A 
ATOM     10  N   UNL     1       6.299   6.606  16.513  0.00  0.00    +0.000 NA
ATOM     11  C   UNL     1       7.290   6.582  17.422  0.00  0.00    +0.000 A 
ATOM     12  C   UNL     1       7.292   5.690  18.489  0.00  0.00    +0.000 A 
ATOM     13  N   UNL     1       6.306   4.775  18.675  0.00  0.00    +0.000 NA
ENDBRANCH   7   8
BRANCH   4  14
ATOM     14  S   UNL     1       0.739   2.348  18.689  0.00  0.00    +0.000 S 
ATOM     15  H   UNL     1       0.106   2.877  17.635  0.00  0.00    +0.000 HD
ENDBRANCH   4  14
ENDBRANCH   1   3
BRANCH   1  17
ATOM     16  S   UNL     1       2.137   4.621  21.286  0.00  0.00    +0.000 S 
ATOM     17  C   UNL     1       2.435   5.672  20.021  0.00  0.00    +0.000 C 
BRANCH  17  18
ATOM     18  N   UNL     1       2.652   7.031  20.071  0.00  0.00    +0.000 N 
ATOM     19  H   UNL     1       3.586   7.312  19.786  0.00  0.00    +0.000 HD
BRANCH  18  20
ATOM     20  C   UNL     1       1.729   8.103  20.133  0.00  0.00    +0.000 A 
ATOM     21  C   UNL     1       1.390   8.915  19.050  0.00  0.00    +0.000 A 
ATOM     22  C   UNL     1       0.507   9.989  19.213  0.00  0.00    +0.000 A 
ATOM     23  C   UNL     1      -0.060  10.251  20.460  0.00  0.00    +0.000 A 
ATOM     24 CL   UNL     1      -1.100  11.622  20.603  0.00  0.00    +0.000 Cl
ATOM     25  C   UNL     1       0.227   9.410  21.537  0.00  0.00    +0.000 A 
ATOM     26 CL   UNL     1      -0.437   9.660  23.113  0.00  0.00    +0.000 Cl
ATOM     27  C   UNL     1       1.100   8.328  21.365  0.00  0.00    +0.000 A 
ENDBRANCH  18  20
ENDBRANCH  17  18
ENDBRANCH   1  17
TORSDOF 6
ENDMDL
