MODEL 1
REMARK VINA RESULT:      -7.2      0.000      0.000
REMARK  Name = 
REMARK  10 active torsions:
REMARK  status: ('A' for Active; 'I' for Inactive)
REMARK    1  A    between atoms: C_1  and  C_2
REMARK    2  A    between atoms: C_2  and  C_3
REMARK    3  A    between atoms: C_2  and  N_12
REMARK    4  A    between atoms: C_3  and  O_4
REMARK    5  A    between atoms: C_3  and  C_5
REMARK    6  A    between atoms: C_5  and  C_6
REMARK    7  A    between atoms: N_12  and  C_13
REMARK    8  A    between atoms: N_12  and  N_14
REMARK    9  A    between atoms: N_15  and  C_16
REMARK   10  A    between atoms: C_19  and  N_20
REMARK                            x       y       z     vdW  Elec       q    Type
REMARK                         _______ _______ _______ _____ _____    ______ ____
ROOT
ATOM      1  N   UNL     1       2.285   3.538  20.429  0.00  0.00    +0.000 N 
ATOM      2  C   UNL     1       2.360   3.185  21.841  0.00  0.00    +0.000 C 
ENDROOT
BRANCH   1   4
ATOM      3  C   UNL     1       1.261   2.683  18.338  0.00  0.00    +0.000 C 
ATOM      4  C   UNL     1       2.354   2.482  19.397  0.00  0.00    +0.000 C 
BRANCH   4   5
ATOM      5  C   UNL     1       3.758   2.399  18.733  0.00  0.00    +0.000 C 
BRANCH   5   6
ATOM      6  O   UNL     1       4.104   1.027  18.501  0.00  0.00    +0.000 OA
ATOM      7  H   UNL     1       3.332   0.633  18.053  0.00  0.00    +0.000 HD
ENDBRANCH   5   6
BRANCH   5   8
ATOM      8  C   UNL     1       3.840   3.191  17.412  0.00  0.00    +0.000 C 
BRANCH   8   9
ATOM      9  C   UNL     1       4.820   4.346  17.462  0.00  0.00    +0.000 A 
ATOM     10  C   UNL     1       5.724   4.458  18.530  0.00  0.00    +0.000 A 
ATOM     11  C   UNL     1       6.596   5.545  18.615  0.00  0.00    +0.000 A 
ATOM     12  C   UNL     1       6.580   6.531  17.632  0.00  0.00    +0.000 A 
ATOM     13  C   UNL     1       5.705   6.420  16.552  0.00  0.00    +0.000 A 
ATOM     14  C   UNL     1       4.836   5.330  16.463  0.00  0.00    +0.000 A 
ENDBRANCH   8   9
ENDBRANCH   5   8
ENDBRANCH   4   5
ENDBRANCH   1   4
BRANCH   1  15
ATOM     15  N   UNL     1       1.869   4.777  20.022  0.00  0.00    +0.000 NA
ATOM     16  N   UNL     1       2.780   5.627  19.984  0.00  0.00    +0.000 NA
BRANCH  16  17
ATOM     17  C   UNL     1       2.278   6.892  19.626  0.00  0.00    +0.000 A 
ATOM     18  C   UNL     1       1.629   7.667  20.597  0.00  0.00    +0.000 A 
ATOM     19  C   UNL     1       1.146   8.945  20.294  0.00  0.00    +0.000 A 
ATOM     20  C   UNL     1       1.321   9.459  19.001  0.00  0.00    +0.000 A 
ATOM     21  C   UNL     1       1.972   8.705  18.022  0.00  0.00    +0.000 A 
ATOM     22  C   UNL     1       2.450   7.432  18.338  0.00  0.00    +0.000 A 
BRANCH  20  23
ATOM     23  N   UNL     1       0.821  10.799  18.674  0.00  0.00    +0.000 N 
ATOM     24  O   UNL     1      -0.342  10.897  18.259  0.00  0.00    +0.000 OA
ATOM     25  O   UNL     1       1.594  11.760  18.837  0.00  0.00    +0.000 OA
ENDBRANCH  20  23
ENDBRANCH  16  17
ENDBRANCH   1  15
TORSDOF 8
ENDMDL
MODEL 2
REMARK VINA RESULT:      -7.1      1.956      4.154
REMARK  Name = 
REMARK  10 active torsions:
REMARK  status: ('A' for Active; 'I' for Inactive)
REMARK    1  A    between atoms: C_1  and  C_2
REMARK    2  A    between atoms: C_2  and  C_3
REMARK    3  A    between atoms: C_2  and  N_12
REMARK    4  A    between atoms: C_3  and  O_4
REMARK    5  A    between atoms: C_3  and  C_5
REMARK    6  A    between atoms: C_5  and  C_6
REMARK    7  A    between atoms: N_12  and  C_13
REMARK    8  A    between atoms: N_12  and  N_14
REMARK    9  A    between atoms: N_15  and  C_16
REMARK   10  A    between atoms: C_19  and  N_20
REMARK                            x       y       z     vdW  Elec       q    Type
REMARK                         _______ _______ _______ _____ _____    ______ ____
ROOT
ATOM      1  N   UNL     1       5.139   6.083  16.934  0.00  0.00    +0.000 N 
ATOM      2  C   UNL     1       5.185   6.207  15.483  0.00  0.00    +0.000 C 
ENDROOT
BRANCH   1   4
ATOM      3  C   UNL     1       7.296   6.139  18.158  0.00  0.00    +0.000 C 
ATOM      4  C   UNL     1       6.147   5.262  17.640  0.00  0.00    +0.000 C 
BRANCH   4   5
ATOM      5  C   UNL     1       5.523   4.429  18.795  0.00  0.00    +0.000 C 
BRANCH   5   6
ATOM      6  O   UNL     1       5.038   5.306  19.819  0.00  0.00    +0.000 OA
ATOM      7  H   UNL     1       5.494   5.033  20.638  0.00  0.00    +0.000 HD
ENDBRANCH   5   6
BRANCH   5   8
ATOM      8  C   UNL     1       4.385   3.504  18.315  0.00  0.00    +0.000 C 
BRANCH   8   9
ATOM      9  C   UNL     1       3.272   3.342  19.331  0.00  0.00    +0.000 A 
ATOM     10  C   UNL     1       3.521   2.699  20.553  0.00  0.00    +0.000 A 
ATOM     11  C   UNL     1       2.492   2.496  21.475  0.00  0.00    +0.000 A 
ATOM     12  C   UNL     1       1.203   2.938  21.189  0.00  0.00    +0.000 A 
ATOM     13  C   UNL     1       0.946   3.601  19.990  0.00  0.00    +0.000 A 
ATOM     14  C   UNL     1       1.976   3.809  19.070  0.00  0.00    +0.000 A 
ENDBRANCH   8   9
ENDBRANCH   5   8
ENDBRANCH   4   5
ENDBRANCH   1   4
BRANCH   1  15
ATOM     15  N   UNL     1       4.373   6.920  17.700  0.00  0.00    +0.000 NA
ATOM     16  N   UNL     1       3.149   6.710  17.605  0.00  0.00    +0.000 NA
BRANCH  16  17
ATOM     17  C   UNL     1       2.415   7.645  18.360  0.00  0.00    +0.000 A 
ATOM     18  C   UNL     1       2.197   7.400  19.723  0.00  0.00    +0.000 A 
ATOM     19  C   UNL     1       1.502   8.320  20.517  0.00  0.00    +0.000 A 
ATOM     20  C   UNL     1       1.025   9.506  19.941  0.00  0.00    +0.000 A 
ATOM     21  C   UNL     1       1.238   9.770  18.586  0.00  0.00    +0.000 A 
ATOM     22  C   UNL     1       1.933   8.845  17.805  0.00  0.00    +0.000 A 
BRANCH  20  23
ATOM     23  N   UNL     1       0.299  10.478  20.766  0.00  0.00    +0.000 N 
ATOM     24  O   UNL     1       0.652  10.615  21.945  0.00  0.00    +0.000 OA
ATOM     25  O   UNL     1      -0.627  11.113  20.230  0.00  0.00    +0.000 OA
ENDBRANCH  20  23
ENDBRANCH  16  17
ENDBRANCH   1  15
TORSDOF 8
ENDMDL
MODEL 3
REMARK VINA RESULT:      -7.1      3.620      6.574
REMARK  Name = 
REMARK  10 active torsions:
REMARK  status: ('A' for Active; 'I' for Inactive)
REMARK    1  A    between atoms: C_1  and  C_2
REMARK    2  A    between atoms: C_2  and  C_3
REMARK    3  A    between atoms: C_2  and  N_12
REMARK    4  A    between atoms: C_3  and  O_4
REMARK    5  A    between atoms: C_3  and  C_5
REMARK    6  A    between atoms: C_5  and  C_6
REMARK    7  A    between atoms: N_12  and  C_13
REMARK    8  A    between atoms: N_12  and  N_14
REMARK    9  A    between atoms: N_15  and  C_16
REMARK   10  A    between atoms: C_19  and  N_20
REMARK                            x       y       z     vdW  Elec       q    Type
REMARK                         _______ _______ _______ _____ _____    ______ ____
ROOT
ATOM      1  N   UNL     1       2.687   3.456  18.380  0.00  0.00    +0.000 N 
ATOM      2  C   UNL     1       2.794   2.181  19.078  0.00  0.00    +0.000 C 
ENDROOT
BRANCH   1   4
ATOM      3  C   UNL     1       1.046   4.058  20.140  0.00  0.00    +0.000 C 
ATOM      4  C   UNL     1       1.912   4.565  18.978  0.00  0.00    +0.000 C 
BRANCH   4   5
ATOM      5  C   UNL     1       2.823   5.737  19.438  0.00  0.00    +0.000 C 
BRANCH   5   6
ATOM      6  O   UNL     1       4.155   5.257  19.663  0.00  0.00    +0.000 OA
ATOM      7  H   UNL     1       4.566   5.899  20.273  0.00  0.00    +0.000 HD
ENDBRANCH   5   6
BRANCH   5   8
ATOM      8  C   UNL     1       2.850   6.903  18.427  0.00  0.00    +0.000 C 
BRANCH   8   9
ATOM      9  C   UNL     1       2.054   8.111  18.881  0.00  0.00    +0.000 A 
ATOM     10  C   UNL     1       1.794   9.160  17.986  0.00  0.00    +0.000 A 
ATOM     11  C   UNL     1       1.108  10.302  18.406  0.00  0.00    +0.000 A 
ATOM     12  C   UNL     1       0.669  10.407  19.724  0.00  0.00    +0.000 A 
ATOM     13  C   UNL     1       0.898   9.361  20.616  0.00  0.00    +0.000 A 
ATOM     14  C   UNL     1       1.580   8.217  20.196  0.00  0.00    +0.000 A 
ENDBRANCH   8   9
ENDBRANCH   5   8
ENDBRANCH   4   5
ENDBRANCH   1   4
BRANCH   1  15
ATOM     15  N   UNL     1       3.505   3.767  17.328  0.00  0.00    +0.000 NA
ATOM     16  N   UNL     1       4.708   3.519  17.535  0.00  0.00    +0.000 NA
BRANCH  16  17
ATOM     17  C   UNL     1       5.504   3.924  16.447  0.00  0.00    +0.000 A 
ATOM     18  C   UNL     1       5.071   3.642  15.144  0.00  0.00    +0.000 A 
ATOM     19  C   UNL     1       5.815   4.058  14.033  0.00  0.00    +0.000 A 
ATOM     20  C   UNL     1       7.005   4.773  14.228  0.00  0.00    +0.000 A 
ATOM     21  C   UNL     1       7.449   5.069  15.519  0.00  0.00    +0.000 A 
ATOM     22  C   UNL     1       6.698   4.649  16.618  0.00  0.00    +0.000 A 
BRANCH  20  23
ATOM     23  N   UNL     1       7.790   5.215  13.070  0.00  0.00    +0.000 N 
ATOM     24  O   UNL     1       7.467   4.785  11.954  0.00  0.00    +0.000 OA
ATOM     25  O   UNL     1       8.731   6.002  13.277  0.00  0.00    +0.000 OA
ENDBRANCH  20  23
ENDBRANCH  16  17
ENDBRANCH   1  15
TORSDOF 8
ENDMDL
MODEL 4
REMARK VINA RESULT:      -7.0      0.568      1.531
REMARK  Name = 
REMARK  10 active torsions:
REMARK  status: ('A' for Active; 'I' for Inactive)
REMARK    1  A    between atoms: C_1  and  C_2
REMARK    2  A    between atoms: C_2  and  C_3
REMARK    3  A    between atoms: C_2  and  N_12
REMARK    4  A    between atoms: C_3  and  O_4
REMARK    5  A    between atoms: C_3  and  C_5
REMARK    6  A    between atoms: C_5  and  C_6
REMARK    7  A    between atoms: N_12  and  C_13
REMARK    8  A    between atoms: N_12  and  N_14
REMARK    9  A    between atoms: N_15  and  C_16
REMARK   10  A    between atoms: C_19  and  N_20
REMARK                            x       y       z     vdW  Elec       q    Type
REMARK                         _______ _______ _______ _____ _____    ______ ____
ROOT
ATOM      1  N   UNL     1       2.140   3.602  20.431  0.00  0.00    +0.000 N 
ATOM      2  C   UNL     1       2.125   3.188  21.828  0.00  0.00    +0.000 C 
ENDROOT
BRANCH   1   4
ATOM      3  C   UNL     1       1.209   2.825  18.268  0.00  0.00    +0.000 C 
ATOM      4  C   UNL     1       2.263   2.591  19.359  0.00  0.00    +0.000 C 
BRANCH   4   5
ATOM      5  C   UNL     1       3.692   2.551  18.749  0.00  0.00    +0.000 C 
BRANCH   5   6
ATOM      6  O   UNL     1       4.144   1.193  18.661  0.00  0.00    +0.000 OA
ATOM      7  H   UNL     1       3.922   0.901  17.757  0.00  0.00    +0.000 HD
ENDBRANCH   5   6
BRANCH   5   8
ATOM      8  C   UNL     1       3.765   3.219  17.360  0.00  0.00    +0.000 C 
BRANCH   8   9
ATOM      9  C   UNL     1       4.931   4.177  17.213  0.00  0.00    +0.000 A 
ATOM     10  C   UNL     1       5.619   4.268  15.994  0.00  0.00    +0.000 A 
ATOM     11  C   UNL     1       6.728   5.107  15.862  0.00  0.00    +0.000 A 
ATOM     12  C   UNL     1       7.159   5.869  16.945  0.00  0.00    +0.000 A 
ATOM     13  C   UNL     1       6.469   5.808  18.155  0.00  0.00    +0.000 A 
ATOM     14  C   UNL     1       5.357   4.973  18.286  0.00  0.00    +0.000 A 
ENDBRANCH   8   9
ENDBRANCH   5   8
ENDBRANCH   4   5
ENDBRANCH   1   4
BRANCH   1  15
ATOM     15  N   UNL     1       1.763   4.863  20.055  0.00  0.00    +0.000 NA
ATOM     16  N   UNL     1       2.696   5.689  20.055  0.00  0.00    +0.000 NA
BRANCH  16  17
ATOM     17  C   UNL     1       2.232   6.978  19.727  0.00  0.00    +0.000 A 
ATOM     18  C   UNL     1       2.452   7.474  18.435  0.00  0.00    +0.000 A 
ATOM     19  C   UNL     1       1.977   8.735  18.058  0.00  0.00    +0.000 A 
ATOM     20  C   UNL     1       1.264   9.509  18.984  0.00  0.00    +0.000 A 
ATOM     21  C   UNL     1       1.028   9.028  20.275  0.00  0.00    +0.000 A 
ATOM     22  C   UNL     1       1.506   7.768  20.638  0.00  0.00    +0.000 A 
BRANCH  20  23
ATOM     23  N   UNL     1       0.759  10.831  18.597  0.00  0.00    +0.000 N 
ATOM     24  O   UNL     1       1.564  11.773  18.572  0.00  0.00    +0.000 OA
ATOM     25  O   UNL     1      -0.448  10.928  18.312  0.00  0.00    +0.000 OA
ENDBRANCH  20  23
ENDBRANCH  16  17
ENDBRANCH   1  15
TORSDOF 8
ENDMDL
MODEL 5
REMARK VINA RESULT:      -7.0      1.927      4.324
REMARK  Name = 
REMARK  10 active torsions:
REMARK  status: ('A' for Active; 'I' for Inactive)
REMARK    1  A    between atoms: C_1  and  C_2
REMARK    2  A    between atoms: C_2  and  C_3
REMARK    3  A    between atoms: C_2  and  N_12
REMARK    4  A    between atoms: C_3  and  O_4
REMARK    5  A    between atoms: C_3  and  C_5
REMARK    6  A    between atoms: C_5  and  C_6
REMARK    7  A    between atoms: N_12  and  C_13
REMARK    8  A    between atoms: N_12  and  N_14
REMARK    9  A    between atoms: N_15  and  C_16
REMARK   10  A    between atoms: C_19  and  N_20
REMARK                            x       y       z     vdW  Elec       q    Type
REMARK                         _______ _______ _______ _____ _____    ______ ____
ROOT
ATOM      1  N   UNL     1       5.220   5.759  16.758  0.00  0.00    +0.000 N 
ATOM      2  C   UNL     1       5.352   6.066  15.340  0.00  0.00    +0.000 C 
ENDROOT
BRANCH   1   4
ATOM      3  C   UNL     1       7.423   5.395  17.838  0.00  0.00    +0.000 C 
ATOM      4  C   UNL     1       6.105   4.753  17.384  0.00  0.00    +0.000 C 
BRANCH   4   5
ATOM      5  C   UNL     1       5.414   4.014  18.565  0.00  0.00    +0.000 C 
BRANCH   5   6
ATOM      6  O   UNL     1       5.136   4.943  19.621  0.00  0.00    +0.000 OA
ATOM      7  H   UNL     1       4.174   4.887  19.773  0.00  0.00    +0.000 HD
ENDBRANCH   5   6
BRANCH   5   8
ATOM      8  C   UNL     1       4.115   3.297  18.141  0.00  0.00    +0.000 C 
BRANCH   8   9
ATOM      9  C   UNL     1       3.114   3.150  19.269  0.00  0.00    +0.000 A 
ATOM     10  C   UNL     1       1.800   3.617  19.110  0.00  0.00    +0.000 A 
ATOM     11  C   UNL     1       0.883   3.536  20.160  0.00  0.00    +0.000 A 
ATOM     12  C   UNL     1       1.265   2.981  21.379  0.00  0.00    +0.000 A 
ATOM     13  C   UNL     1       2.560   2.490  21.542  0.00  0.00    +0.000 A 
ATOM     14  C   UNL     1       3.476   2.567  20.491  0.00  0.00    +0.000 A 
ENDBRANCH   8   9
ENDBRANCH   5   8
ENDBRANCH   4   5
ENDBRANCH   1   4
BRANCH   1  15
ATOM     15  N   UNL     1       4.503   6.564  17.601  0.00  0.00    +0.000 NA
ATOM     16  N   UNL     1       3.269   6.486  17.444  0.00  0.00    +0.000 NA
BRANCH  16  17
ATOM     17  C   UNL     1       2.592   7.386  18.289  0.00  0.00    +0.000 A 
ATOM     18  C   UNL     1       2.110   8.589  17.756  0.00  0.00    +0.000 A 
ATOM     19  C   UNL     1       1.401   9.495  18.553  0.00  0.00    +0.000 A 
ATOM     20  C   UNL     1       1.165   9.191  19.901  0.00  0.00    +0.000 A 
ATOM     21  C   UNL     1       1.632   7.993  20.448  0.00  0.00    +0.000 A 
ATOM     22  C   UNL     1       2.337   7.097  19.642  0.00  0.00    +0.000 A 
BRANCH  20  23
ATOM     23  N   UNL     1       0.420  10.133  20.743  0.00  0.00    +0.000 N 
ATOM     24  O   UNL     1       0.960  10.528  21.786  0.00  0.00    +0.000 OA
ATOM     25  O   UNL     1      -0.709  10.485  20.358  0.00  0.00    +0.000 OA
ENDBRANCH  20  23
ENDBRANCH  16  17
ENDBRANCH   1  15
TORSDOF 8
ENDMDL
MODEL 6
REMARK VINA RESULT:      -7.0      3.489      6.347
REMARK  Name = 
REMARK  10 active torsions:
REMARK  status: ('A' for Active; 'I' for Inactive)
REMARK    1  A    between atoms: C_1  and  C_2
REMARK    2  A    between atoms: C_2  and  C_3
REMARK    3  A    between atoms: C_2  and  N_12
REMARK    4  A    between atoms: C_3  and  O_4
REMARK    5  A    between atoms: C_3  and  C_5
REMARK    6  A    between atoms: C_5  and  C_6
REMARK    7  A    between atoms: N_12  and  C_13
REMARK    8  A    between atoms: N_12  and  N_14
REMARK    9  A    between atoms: N_15  and  C_16
REMARK   10  A    between atoms: C_19  and  N_20
REMARK                            x       y       z     vdW  Elec       q    Type
REMARK                         _______ _______ _______ _____ _____    ______ ____
ROOT
ATOM      1  N   UNL     1       3.505   3.167  19.285  0.00  0.00    +0.000 N 
ATOM      2  C   UNL     1       4.128   2.362  20.328  0.00  0.00    +0.000 C 
ENDROOT
BRANCH   1   4
ATOM      3  C   UNL     1       1.585   3.461  20.827  0.00  0.00    +0.000 C 
ATOM      4  C   UNL     1       2.330   4.007  19.601  0.00  0.00    +0.000 C 
BRANCH   4   5
ATOM      5  C   UNL     1       2.711   5.500  19.805  0.00  0.00    +0.000 C 
BRANCH   5   6
ATOM      6  O   UNL     1       4.075   5.597  20.238  0.00  0.00    +0.000 OA
ATOM      7  H   UNL     1       4.367   4.680  20.394  0.00  0.00    +0.000 HD
ENDBRANCH   5   6
BRANCH   5   8
ATOM      8  C   UNL     1       2.503   6.348  18.533  0.00  0.00    +0.000 C 
BRANCH   8   9
ATOM      9  C   UNL     1       2.023   7.756  18.820  0.00  0.00    +0.000 A 
ATOM     10  C   UNL     1       1.507   8.082  20.083  0.00  0.00    +0.000 A 
ATOM     11  C   UNL     1       1.013   9.362  20.344  0.00  0.00    +0.000 A 
ATOM     12  C   UNL     1       1.034  10.334  19.346  0.00  0.00    +0.000 A 
ATOM     13  C   UNL     1       1.567  10.032  18.094  0.00  0.00    +0.000 A 
ATOM     14  C   UNL     1       2.066   8.753  17.835  0.00  0.00    +0.000 A 
ENDBRANCH   8   9
ENDBRANCH   5   8
ENDBRANCH   4   5
ENDBRANCH   1   4
BRANCH   1  15
ATOM     15  N   UNL     1       4.132   3.399  18.091  0.00  0.00    +0.000 NA
ATOM     16  N   UNL     1       5.189   4.050  18.194  0.00  0.00    +0.000 NA
BRANCH  16  17
ATOM     17  C   UNL     1       5.747   4.315  16.928  0.00  0.00    +0.000 A 
ATOM     18  C   UNL     1       7.088   4.713  16.845  0.00  0.00    +0.000 A 
ATOM     19  C   UNL     1       7.691   4.952  15.605  0.00  0.00    +0.000 A 
ATOM     20  C   UNL     1       6.945   4.783  14.430  0.00  0.00    +0.000 A 
ATOM     21  C   UNL     1       5.609   4.379  14.493  0.00  0.00    +0.000 A 
ATOM     22  C   UNL     1       5.019   4.143  15.736  0.00  0.00    +0.000 A 
BRANCH  20  23
ATOM     23  N   UNL     1       7.569   5.028  13.126  0.00  0.00    +0.000 N 
ATOM     24  O   UNL     1       8.471   5.875  13.066  0.00  0.00    +0.000 OA
ATOM     25  O   UNL     1       7.160   4.366  12.156  0.00  0.00    +0.000 OA
ENDBRANCH  20  23
ENDBRANCH  16  17
ENDBRANCH   1  15
TORSDOF 8
ENDMDL
MODEL 7
REMARK VINA RESULT:      -7.0      1.878      4.066
REMARK  Name = 
REMARK  10 active torsions:
REMARK  status: ('A' for Active; 'I' for Inactive)
REMARK    1  A    between atoms: C_1  and  C_2
REMARK    2  A    between atoms: C_2  and  C_3
REMARK    3  A    between atoms: C_2  and  N_12
REMARK    4  A    between atoms: C_3  and  O_4
REMARK    5  A    between atoms: C_3  and  C_5
REMARK    6  A    between atoms: C_5  and  C_6
REMARK    7  A    between atoms: N_12  and  C_13
REMARK    8  A    between atoms: N_12  and  N_14
REMARK    9  A    between atoms: N_15  and  C_16
REMARK   10  A    between atoms: C_19  and  N_20
REMARK                            x       y       z     vdW  Elec       q    Type
REMARK                         _______ _______ _______ _____ _____    ______ ____
ROOT
ATOM      1  N   UNL     1       5.335   6.307  17.031  0.00  0.00    +0.000 N 
ATOM      2  C   UNL     1       6.756   6.615  16.936  0.00  0.00    +0.000 C 
ENDROOT
BRANCH   1   4
ATOM      3  C   UNL     1       5.570   4.511  15.336  0.00  0.00    +0.000 C 
ATOM      4  C   UNL     1       4.832   4.986  16.596  0.00  0.00    +0.000 C 
BRANCH   4   5
ATOM      5  C   UNL     1       4.925   3.920  17.725  0.00  0.00    +0.000 C 
BRANCH   5   6
ATOM      6  O   UNL     1       5.045   4.571  18.997  0.00  0.00    +0.000 OA
ATOM      7  H   UNL     1       5.718   4.064  19.489  0.00  0.00    +0.000 HD
ENDBRANCH   5   6
BRANCH   5   8
ATOM      8  C   UNL     1       3.717   2.961  17.738  0.00  0.00    +0.000 C 
BRANCH   8   9
ATOM      9  C   UNL     1       2.883   3.060  19.000  0.00  0.00    +0.000 A 
ATOM     10  C   UNL     1       1.664   3.755  18.986  0.00  0.00    +0.000 A 
ATOM     11  C   UNL     1       0.912   3.900  20.155  0.00  0.00    +0.000 A 
ATOM     12  C   UNL     1       1.367   3.346  21.349  0.00  0.00    +0.000 A 
ATOM     13  C   UNL     1       2.563   2.631  21.372  0.00  0.00    +0.000 A 
ATOM     14  C   UNL     1       3.313   2.482  20.203  0.00  0.00    +0.000 A 
ENDBRANCH   8   9
ENDBRANCH   5   8
ENDBRANCH   4   5
ENDBRANCH   1   4
BRANCH   1  15
ATOM     15  N   UNL     1       4.482   7.083  17.768  0.00  0.00    +0.000 NA
ATOM     16  N   UNL     1       3.295   6.707  17.726  0.00  0.00    +0.000 NA
BRANCH  16  17
ATOM     17  C   UNL     1       2.460   7.584  18.445  0.00  0.00    +0.000 A 
ATOM     18  C   UNL     1       2.219   7.337  19.803  0.00  0.00    +0.000 A 
ATOM     19  C   UNL     1       1.424   8.203  20.563  0.00  0.00    +0.000 A 
ATOM     20  C   UNL     1       0.867   9.337  19.956  0.00  0.00    +0.000 A 
ATOM     21  C   UNL     1       1.101   9.604  18.605  0.00  0.00    +0.000 A 
ATOM     22  C   UNL     1       1.897   8.733  17.859  0.00  0.00    +0.000 A 
BRANCH  20  23
ATOM     23  N   UNL     1       0.035  10.252  20.745  0.00  0.00    +0.000 N 
ATOM     24  O   UNL     1      -0.344  11.301  20.204  0.00  0.00    +0.000 OA
ATOM     25  O   UNL     1      -0.248   9.919  21.909  0.00  0.00    +0.000 OA
ENDBRANCH  20  23
ENDBRANCH  16  17
ENDBRANCH   1  15
TORSDOF 8
ENDMDL
MODEL 8
REMARK VINA RESULT:      -7.0      1.882      4.225
REMARK  Name = 
REMARK  10 active torsions:
REMARK  status: ('A' for Active; 'I' for Inactive)
REMARK    1  A    between atoms: C_1  and  C_2
REMARK    2  A    between atoms: C_2  and  C_3
REMARK    3  A    between atoms: C_2  and  N_12
REMARK    4  A    between atoms: C_3  and  O_4
REMARK    5  A    between atoms: C_3  and  C_5
REMARK    6  A    between atoms: C_5  and  C_6
REMARK    7  A    between atoms: N_12  and  C_13
REMARK    8  A    between atoms: N_12  and  N_14
REMARK    9  A    between atoms: N_15  and  C_16
REMARK   10  A    between atoms: C_19  and  N_20
REMARK                            x       y       z     vdW  Elec       q    Type
REMARK                         _______ _______ _______ _____ _____    ______ ____
ROOT
ATOM      1  N   UNL     1       5.212   5.960  16.868  0.00  0.00    +0.000 N 
ATOM      2  C   UNL     1       5.275   5.918  15.413  0.00  0.00    +0.000 C 
ENDROOT
BRANCH   1   4
ATOM      3  C   UNL     1       7.289   6.128  18.213  0.00  0.00    +0.000 C 
ATOM      4  C   UNL     1       6.190   5.200  17.675  0.00  0.00    +0.000 C 
BRANCH   4   5
ATOM      5  C   UNL     1       5.514   4.415  18.834  0.00  0.00    +0.000 C 
BRANCH   5   6
ATOM      6  O   UNL     1       4.971   5.334  19.791  0.00  0.00    +0.000 OA
ATOM      7  H   UNL     1       4.636   6.088  19.270  0.00  0.00    +0.000 HD
ENDBRANCH   5   6
BRANCH   5   8
ATOM      8  C   UNL     1       4.409   3.458  18.340  0.00  0.00    +0.000 C 
BRANCH   8   9
ATOM      9  C   UNL     1       3.283   3.273  19.337  0.00  0.00    +0.000 A 
ATOM     10  C   UNL     1       1.987   3.712  19.025  0.00  0.00    +0.000 A 
ATOM     11  C   UNL     1       0.952   3.596  19.956  0.00  0.00    +0.000 A 
ATOM     12  C   UNL     1       1.198   3.035  21.207  0.00  0.00    +0.000 A 
ATOM     13  C   UNL     1       2.475   2.571  21.520  0.00  0.00    +0.000 A 
ATOM     14  C   UNL     1       3.509   2.682  20.588  0.00  0.00    +0.000 A 
ENDBRANCH   8   9
ENDBRANCH   5   8
ENDBRANCH   4   5
ENDBRANCH   1   4
BRANCH   1  15
ATOM     15  N   UNL     1       4.461   6.898  17.525  0.00  0.00    +0.000 NA
ATOM     16  N   UNL     1       3.278   6.554  17.714  0.00  0.00    +0.000 NA
BRANCH  16  17
ATOM     17  C   UNL     1       2.543   7.585  18.329  0.00  0.00    +0.000 A 
ATOM     18  C   UNL     1       2.134   7.430  19.661  0.00  0.00    +0.000 A 
ATOM     19  C   UNL     1       1.431   8.445  20.321  0.00  0.00    +0.000 A 
ATOM     20  C   UNL     1       1.140   9.636  19.641  0.00  0.00    +0.000 A 
ATOM     21  C   UNL     1       1.546   9.812  18.316  0.00  0.00    +0.000 A 
ATOM     22  C   UNL     1       2.247   8.792  17.670  0.00  0.00    +0.000 A 
BRANCH  20  23
ATOM     23  N   UNL     1       0.407  10.707  20.325  0.00  0.00    +0.000 N 
ATOM     24  O   UNL     1       0.908  11.840  20.330  0.00  0.00    +0.000 OA
ATOM     25  O   UNL     1      -0.680  10.415  20.856  0.00  0.00    +0.000 OA
ENDBRANCH  20  23
ENDBRANCH  16  17
ENDBRANCH   1  15
TORSDOF 8
ENDMDL
MODEL 9
REMARK VINA RESULT:      -6.9      1.806      3.890
REMARK  Name = 
REMARK  10 active torsions:
REMARK  status: ('A' for Active; 'I' for Inactive)
REMARK    1  A    between atoms: C_1  and  C_2
REMARK    2  A    between atoms: C_2  and  C_3
REMARK    3  A    between atoms: C_2  and  N_12
REMARK    4  A    between atoms: C_3  and  O_4
REMARK    5  A    between atoms: C_3  and  C_5
REMARK    6  A    between atoms: C_5  and  C_6
REMARK    7  A    between atoms: N_12  and  C_13
REMARK    8  A    between atoms: N_12  and  N_14
REMARK    9  A    between atoms: N_15  and  C_16
REMARK   10  A    between atoms: C_19  and  N_20
REMARK                            x       y       z     vdW  Elec       q    Type
REMARK                         _______ _______ _______ _____ _____    ______ ____
ROOT
ATOM      1  N   UNL     1       4.862   6.131  17.152  0.00  0.00    +0.000 N 
ATOM      2  C   UNL     1       6.152   6.443  16.551  0.00  0.00    +0.000 C 
ENDROOT
BRANCH   1   4
ATOM      3  C   UNL     1       4.724   3.796  16.329  0.00  0.00    +0.000 C 
ATOM      4  C   UNL     1       4.536   4.739  17.526  0.00  0.00    +0.000 C 
BRANCH   4   5
ATOM      5  C   UNL     1       5.360   4.249  18.750  0.00  0.00    +0.000 C 
BRANCH   5   6
ATOM      6  O   UNL     1       5.498   5.315  19.699  0.00  0.00    +0.000 OA
ATOM      7  H   UNL     1       4.929   6.036  19.370  0.00  0.00    +0.000 HD
ENDBRANCH   5   6
BRANCH   5   8
ATOM      8  C   UNL     1       4.736   3.015  19.434  0.00  0.00    +0.000 C 
BRANCH   8   9
ATOM      9  C   UNL     1       3.233   3.117  19.605  0.00  0.00    +0.000 A 
ATOM     10  C   UNL     1       2.379   2.341  18.807  0.00  0.00    +0.000 A 
ATOM     11  C   UNL     1       0.992   2.465  18.917  0.00  0.00    +0.000 A 
ATOM     12  C   UNL     1       0.442   3.362  19.831  0.00  0.00    +0.000 A 
ATOM     13  C   UNL     1       1.279   4.120  20.648  0.00  0.00    +0.000 A 
ATOM     14  C   UNL     1       2.666   3.993  20.542  0.00  0.00    +0.000 A 
ENDBRANCH   8   9
ENDBRANCH   5   8
ENDBRANCH   4   5
ENDBRANCH   1   4
BRANCH   1  15
ATOM     15  N   UNL     1       4.047   7.114  17.646  0.00  0.00    +0.000 NA
ATOM     16  N   UNL     1       3.113   6.686  18.352  0.00  0.00    +0.000 NA
BRANCH  16  17
ATOM     17  C   UNL     1       2.273   7.735  18.772  0.00  0.00    +0.000 A 
ATOM     18  C   UNL     1       1.864   7.787  20.111  0.00  0.00    +0.000 A 
ATOM     19  C   UNL     1       1.057   8.832  20.577  0.00  0.00    +0.000 A 
ATOM     20  C   UNL     1       0.661   9.844  19.692  0.00  0.00    +0.000 A 
ATOM     21  C   UNL     1       1.064   9.814  18.355  0.00  0.00    +0.000 A 
ATOM     22  C   UNL     1       1.869   8.767  17.903  0.00  0.00    +0.000 A 
BRANCH  20  23
ATOM     23  N   UNL     1      -0.182  10.945  20.172  0.00  0.00    +0.000 N 
ATOM     24  O   UNL     1      -1.302  11.083  19.659  0.00  0.00    +0.000 OA
ATOM     25  O   UNL     1       0.275  11.674  21.070  0.00  0.00    +0.000 OA
ENDBRANCH  20  23
ENDBRANCH  16  17
ENDBRANCH   1  15
TORSDOF 8
ENDMDL
