MODEL 1
REMARK VINA RESULT:      -8.2      0.000      0.000
REMARK  Name = 
REMARK  3 active torsions:
REMARK  status: ('A' for Active; 'I' for Inactive)
REMARK    1  A    between atoms: C_6  and  C_7
REMARK    2  A    between atoms: N_9  and  C_10
REMARK    3  A    between atoms: C_10  and  C_11
REMARK                            x       y       z     vdW  Elec       q    Type
REMARK                         _______ _______ _______ _____ _____    ______ ____
ROOT
ATOM      1  N   UNL     1       5.681   2.786  11.641  0.00  0.00    +0.000 N 
ATOM      2  C   UNL     1       6.077   3.486  12.725  0.00  0.00    +0.000 A 
ATOM      3  N   UNL     1       5.516   3.303  13.878  0.00  0.00    +0.000 NA
ATOM      4  C   UNL     1       6.002   4.040  14.971  0.00  0.00    +0.000 A 
ATOM      5  N   UNL     1       5.391   3.787  16.163  0.00  0.00    +0.000 NA
ATOM      6  C   UNL     1       5.887   4.493  17.221  0.00  0.00    +0.000 A 
ATOM      7  C   UNL     1       6.931   5.408  17.097  0.00  0.00    +0.000 A 
ATOM      8  N   UNL     1       7.541   5.667  15.916  0.00  0.00    +0.000 NA
ATOM      9  C   UNL     1       7.048   4.958  14.868  0.00  0.00    +0.000 A 
ATOM     10  C   UNL     1       7.643   5.145  13.531  0.00  0.00    +0.000 A 
ATOM     11  O   UNL     1       8.564   5.918  13.300  0.00  0.00    +0.000 OA
ATOM     12  N   UNL     1       7.092   4.377  12.532  0.00  0.00    +0.000 N 
ATOM     13  H   UNL     1       4.845   2.221  11.740  0.00  0.00    +0.000 HD
ATOM     14  H   UNL     1       5.968   3.019  10.701  0.00  0.00    +0.000 HD
ATOM     15  H   UNL     1       7.510   4.489  11.621  0.00  0.00    +0.000 HD
ENDROOT
BRANCH   6  16
ATOM     16  C   UNL     1       5.285   4.291  18.569  0.00  0.00    +0.000 C 
ATOM     17  O   UNL     1       5.279   5.209  19.378  0.00  0.00    +0.000 OA
ATOM     18  N   UNL     1       4.761   3.049  18.843  0.00  0.00    +0.000 N 
ATOM     19  H   UNL     1       4.804   2.332  18.122  0.00  0.00    +0.000 HD
BRANCH  18  20
ATOM     20  C   UNL     1       4.097   2.759  20.098  0.00  0.00    +0.000 C 
BRANCH  20  21
ATOM     21  C   UNL     1       2.627   2.766  19.903  0.00  0.00    +0.000 A 
ATOM     22  C   UNL     1       1.624   3.193  20.750  0.00  0.00    +0.000 A 
ATOM     23  N   UNL     1       0.483   2.991  20.036  0.00  0.00    +0.000 N 
ATOM     24  N   UNL     1       0.746   2.487  18.822  0.00  0.00    +0.000 NA
ATOM     25  N   UNL     1       2.061   2.341  18.728  0.00  0.00    +0.000 NA
ATOM     26  H   UNL     1      -0.483   3.169  20.291  0.00  0.00    +0.000 HD
ENDBRANCH  20  21
ENDBRANCH  18  20
ENDBRANCH   6  16
TORSDOF 3
ENDMDL
MODEL 2
REMARK VINA RESULT:      -7.6      4.736      5.941
REMARK  Name = 
REMARK  3 active torsions:
REMARK  status: ('A' for Active; 'I' for Inactive)
REMARK    1  A    between atoms: C_6  and  C_7
REMARK    2  A    between atoms: N_9  and  C_10
REMARK    3  A    between atoms: C_10  and  C_11
REMARK                            x       y       z     vdW  Elec       q    Type
REMARK                         _______ _______ _______ _____ _____    ______ ____
ROOT
ATOM      1  N   UNL     1       2.805   1.541  18.324  0.00  0.00    +0.000 N 
ATOM      2  C   UNL     1       3.255   2.768  17.984  0.00  0.00    +0.000 A 
ATOM      3  N   UNL     1       2.562   3.829  18.253  0.00  0.00    +0.000 NA
ATOM      4  C   UNL     1       3.107   5.076  17.903  0.00  0.00    +0.000 A 
ATOM      5  N   UNL     1       2.347   6.158  18.232  0.00  0.00    +0.000 NA
ATOM      6  C   UNL     1       2.898   7.364  17.907  0.00  0.00    +0.000 A 
ATOM      7  C   UNL     1       4.136   7.486  17.280  0.00  0.00    +0.000 A 
ATOM      8  N   UNL     1       4.897   6.416  16.947  0.00  0.00    +0.000 NA
ATOM      9  C   UNL     1       4.347   5.218  17.277  0.00  0.00    +0.000 A 
ATOM     10  C   UNL     1       5.091   3.980  16.977  0.00  0.00    +0.000 A 
ATOM     11  O   UNL     1       6.186   3.962  16.431  0.00  0.00    +0.000 OA
ATOM     12  N   UNL     1       4.467   2.816  17.359  0.00  0.00    +0.000 N 
ATOM     13  H   UNL     1       1.853   1.481  18.667  0.00  0.00    +0.000 HD
ATOM     14  H   UNL     1       3.224   0.688  17.983  0.00  0.00    +0.000 HD
ATOM     15  H   UNL     1       4.981   1.969  17.171  0.00  0.00    +0.000 HD
ENDROOT
BRANCH   6  16
ATOM     16  C   UNL     1       2.143   8.610  18.223  0.00  0.00    +0.000 C 
ATOM     17  O   UNL     1       2.050   9.495  17.383  0.00  0.00    +0.000 OA
ATOM     18  N   UNL     1       1.584   8.704  19.476  0.00  0.00    +0.000 N 
ATOM     19  H   UNL     1       1.705   7.929  20.123  0.00  0.00    +0.000 HD
BRANCH  18  20
ATOM     20  C   UNL     1       0.778   9.843  19.869  0.00  0.00    +0.000 C 
BRANCH  20  21
ATOM     21  C   UNL     1       0.262   9.643  21.245  0.00  0.00    +0.000 A 
ATOM     22  C   UNL     1      -0.469   8.599  21.775  0.00  0.00    +0.000 A 
ATOM     23  N   UNL     1      -0.630   8.941  23.082  0.00  0.00    +0.000 N 
ATOM     24  N   UNL     1      -0.033  10.108  23.362  0.00  0.00    +0.000 NA
ATOM     25  N   UNL     1       0.517  10.553  22.241  0.00  0.00    +0.000 NA
ATOM     26  H   UNL     1      -1.112   8.448  23.827  0.00  0.00    +0.000 HD
ENDBRANCH  20  21
ENDBRANCH  18  20
ENDBRANCH   6  16
TORSDOF 3
ENDMDL
MODEL 3
REMARK VINA RESULT:      -7.6      4.877      6.109
REMARK  Name = 
REMARK  3 active torsions:
REMARK  status: ('A' for Active; 'I' for Inactive)
REMARK    1  A    between atoms: C_6  and  C_7
REMARK    2  A    between atoms: N_9  and  C_10
REMARK    3  A    between atoms: C_10  and  C_11
REMARK                            x       y       z     vdW  Elec       q    Type
REMARK                         _______ _______ _______ _____ _____    ______ ____
ROOT
ATOM      1  N   UNL     1       7.566   5.420  15.449  0.00  0.00    +0.000 N 
ATOM      2  C   UNL     1       6.619   5.490  16.408  0.00  0.00    +0.000 A 
ATOM      3  N   UNL     1       5.767   6.466  16.433  0.00  0.00    +0.000 NA
ATOM      4  C   UNL     1       4.786   6.457  17.438  0.00  0.00    +0.000 A 
ATOM      5  N   UNL     1       3.902   7.494  17.400  0.00  0.00    +0.000 NA
ATOM      6  C   UNL     1       2.940   7.462  18.368  0.00  0.00    +0.000 A 
ATOM      7  C   UNL     1       2.867   6.455  19.329  0.00  0.00    +0.000 A 
ATOM      8  N   UNL     1       3.743   5.423  19.376  0.00  0.00    +0.000 NA
ATOM      9  C   UNL     1       4.695   5.456  18.407  0.00  0.00    +0.000 A 
ATOM     10  C   UNL     1       5.697   4.375  18.348  0.00  0.00    +0.000 A 
ATOM     11  O   UNL     1       5.732   3.439  19.135  0.00  0.00    +0.000 OA
ATOM     12  N   UNL     1       6.612   4.482  17.327  0.00  0.00    +0.000 N 
ATOM     13  H   UNL     1       7.666   6.226  14.843  0.00  0.00    +0.000 HD
ATOM     14  H   UNL     1       8.347   4.781  15.493  0.00  0.00    +0.000 HD
ATOM     15  H   UNL     1       7.287   3.734  17.273  0.00  0.00    +0.000 HD
ENDROOT
BRANCH   6  16
ATOM     16  C   UNL     1       1.927   8.554  18.414  0.00  0.00    +0.000 C 
ATOM     17  O   UNL     1       1.591   9.117  17.381  0.00  0.00    +0.000 OA
ATOM     18  N   UNL     1       1.415   8.884  19.647  0.00  0.00    +0.000 N 
ATOM     19  H   UNL     1       1.743   8.373  20.464  0.00  0.00    +0.000 HD
BRANCH  18  20
ATOM     20  C   UNL     1       0.381   9.887  19.802  0.00  0.00    +0.000 C 
BRANCH  20  21
ATOM     21  C   UNL     1      -0.067   9.935  21.216  0.00  0.00    +0.000 A 
ATOM     22  C   UNL     1      -0.635   8.951  21.998  0.00  0.00    +0.000 A 
ATOM     23  N   UNL     1      -0.807   9.551  23.208  0.00  0.00    +0.000 N 
ATOM     24  N   UNL     1      -0.366  10.817  23.194  0.00  0.00    +0.000 NA
ATOM     25  N   UNL     1       0.089  11.068  21.974  0.00  0.00    +0.000 NA
ATOM     26  H   UNL     1      -1.198   9.180  24.067  0.00  0.00    +0.000 HD
ENDBRANCH  20  21
ENDBRANCH  18  20
ENDBRANCH   6  16
TORSDOF 3
ENDMDL
MODEL 4
REMARK VINA RESULT:      -7.2      5.521      6.793
REMARK  Name = 
REMARK  3 active torsions:
REMARK  status: ('A' for Active; 'I' for Inactive)
REMARK    1  A    between atoms: C_6  and  C_7
REMARK    2  A    between atoms: N_9  and  C_10
REMARK    3  A    between atoms: C_10  and  C_11
REMARK                            x       y       z     vdW  Elec       q    Type
REMARK                         _______ _______ _______ _____ _____    ______ ____
ROOT
ATOM      1  N   UNL     1       4.904   2.087  19.724  0.00  0.00    +0.000 N 
ATOM      2  C   UNL     1       4.585   3.276  19.172  0.00  0.00    +0.000 A 
ATOM      3  N   UNL     1       3.770   4.090  19.767  0.00  0.00    +0.000 NA
ATOM      4  C   UNL     1       3.510   5.326  19.152  0.00  0.00    +0.000 A 
ATOM      5  N   UNL     1       2.667   6.151  19.834  0.00  0.00    +0.000 NA
ATOM      6  C   UNL     1       2.440   7.358  19.238  0.00  0.00    +0.000 A 
ATOM      7  C   UNL     1       3.016   7.721  18.022  0.00  0.00    +0.000 A 
ATOM      8  N   UNL     1       3.852   6.906  17.336  0.00  0.00    +0.000 NA
ATOM      9  C   UNL     1       4.080   5.709  17.936  0.00  0.00    +0.000 A 
ATOM     10  C   UNL     1       4.987   4.742  17.289  0.00  0.00    +0.000 A 
ATOM     11  O   UNL     1       5.550   4.949  16.223  0.00  0.00    +0.000 OA
ATOM     12  N   UNL     1       5.170   3.564  17.973  0.00  0.00    +0.000 N 
ATOM     13  H   UNL     1       4.377   1.805  20.543  0.00  0.00    +0.000 HD
ATOM     14  H   UNL     1       5.390   1.359  19.220  0.00  0.00    +0.000 HD
ATOM     15  H   UNL     1       5.805   2.908  17.542  0.00  0.00    +0.000 HD
ENDROOT
BRANCH   6  16
ATOM     16  C   UNL     1       1.529   8.332  19.904  0.00  0.00    +0.000 C 
ATOM     17  O   UNL     1       1.264   8.203  21.092  0.00  0.00    +0.000 OA
ATOM     18  N   UNL     1       1.017   9.344  19.127  0.00  0.00    +0.000 N 
ATOM     19  H   UNL     1       1.280   9.387  18.145  0.00  0.00    +0.000 HD
BRANCH  18  20
ATOM     20  C   UNL     1       0.170  10.381  19.684  0.00  0.00    +0.000 C 
BRANCH  20  21
ATOM     21  C   UNL     1      -0.719  10.926  18.629  0.00  0.00    +0.000 A 
ATOM     22  C   UNL     1      -0.990  12.235  18.289  0.00  0.00    +0.000 A 
ATOM     23  N   UNL     1      -1.846  12.131  17.236  0.00  0.00    +0.000 N 
ATOM     24  N   UNL     1      -2.085  10.849  16.923  0.00  0.00    +0.000 NA
ATOM     25  N   UNL     1      -1.401  10.097  17.774  0.00  0.00    +0.000 NA
ATOM     26  H   UNL     1      -2.292  12.858  16.688  0.00  0.00    +0.000 HD
ENDBRANCH  20  21
ENDBRANCH  18  20
ENDBRANCH   6  16
TORSDOF 3
ENDMDL
MODEL 5
REMARK VINA RESULT:      -7.2      4.008      4.761
REMARK  Name = 
REMARK  3 active torsions:
REMARK  status: ('A' for Active; 'I' for Inactive)
REMARK    1  A    between atoms: C_6  and  C_7
REMARK    2  A    between atoms: N_9  and  C_10
REMARK    3  A    between atoms: C_10  and  C_11
REMARK                            x       y       z     vdW  Elec       q    Type
REMARK                         _______ _______ _______ _____ _____    ______ ____
ROOT
ATOM      1  N   UNL     1       6.407   3.684  13.906  0.00  0.00    +0.000 N 
ATOM      2  C   UNL     1       6.284   4.031  15.204  0.00  0.00    +0.000 A 
ATOM      3  N   UNL     1       5.133   4.358  15.701  0.00  0.00    +0.000 NA
ATOM      4  C   UNL     1       5.073   4.674  17.068  0.00  0.00    +0.000 A 
ATOM      5  N   UNL     1       3.833   4.986  17.541  0.00  0.00    +0.000 NA
ATOM      6  C   UNL     1       3.783   5.269  18.876  0.00  0.00    +0.000 A 
ATOM      7  C   UNL     1       4.911   5.251  19.694  0.00  0.00    +0.000 A 
ATOM      8  N   UNL     1       6.147   4.946  19.232  0.00  0.00    +0.000 NA
ATOM      9  C   UNL     1       6.190   4.659  17.905  0.00  0.00    +0.000 A 
ATOM     10  C   UNL     1       7.481   4.297  17.291  0.00  0.00    +0.000 A 
ATOM     11  O   UNL     1       8.536   4.247  17.909  0.00  0.00    +0.000 OA
ATOM     12  N   UNL     1       7.429   4.009  15.948  0.00  0.00    +0.000 N 
ATOM     13  H   UNL     1       5.595   3.823  13.315  0.00  0.00    +0.000 HD
ATOM     14  H   UNL     1       7.299   3.592  13.443  0.00  0.00    +0.000 HD
ATOM     15  H   UNL     1       8.307   3.742  15.528  0.00  0.00    +0.000 HD
ENDROOT
BRANCH   6  16
ATOM     16  C   UNL     1       2.473   5.625  19.489  0.00  0.00    +0.000 C 
ATOM     17  O   UNL     1       1.504   4.897  19.322  0.00  0.00    +0.000 OA
ATOM     18  N   UNL     1       2.418   6.787  20.224  0.00  0.00    +0.000 N 
ATOM     19  H   UNL     1       3.264   7.344  20.318  0.00  0.00    +0.000 HD
BRANCH  18  20
ATOM     20  C   UNL     1       1.213   7.198  20.915  0.00  0.00    +0.000 C 
BRANCH  20  21
ATOM     21  C   UNL     1       1.132   8.679  20.949  0.00  0.00    +0.000 A 
ATOM     22  C   UNL     1       0.802   9.571  19.950  0.00  0.00    +0.000 A 
ATOM     23  N   UNL     1       0.864  10.786  20.560  0.00  0.00    +0.000 N 
ATOM     24  N   UNL     1       1.196  10.669  21.854  0.00  0.00    +0.000 NA
ATOM     25  N   UNL     1       1.367   9.379  22.106  0.00  0.00    +0.000 NA
ATOM     26  H   UNL     1       0.695  11.712  20.182  0.00  0.00    +0.000 HD
ENDBRANCH  20  21
ENDBRANCH  18  20
ENDBRANCH   6  16
TORSDOF 3
ENDMDL
MODEL 6
REMARK VINA RESULT:      -7.2      4.859      8.303
REMARK  Name = 
REMARK  3 active torsions:
REMARK  status: ('A' for Active; 'I' for Inactive)
REMARK    1  A    between atoms: C_6  and  C_7
REMARK    2  A    between atoms: N_9  and  C_10
REMARK    3  A    between atoms: C_10  and  C_11
REMARK                            x       y       z     vdW  Elec       q    Type
REMARK                         _______ _______ _______ _____ _____    ______ ____
ROOT
ATOM      1  N   UNL     1      -0.371   9.487  23.250  0.00  0.00    +0.000 N 
ATOM      2  C   UNL     1       0.190   9.378  22.027  0.00  0.00    +0.000 A 
ATOM      3  N   UNL     1       0.873   8.329  21.698  0.00  0.00    +0.000 NA
ATOM      4  C   UNL     1       1.398   8.268  20.396  0.00  0.00    +0.000 A 
ATOM      5  N   UNL     1       2.086   7.130  20.098  0.00  0.00    +0.000 NA
ATOM      6  C   UNL     1       2.573   7.072  18.823  0.00  0.00    +0.000 A 
ATOM      7  C   UNL     1       2.390   8.098  17.897  0.00  0.00    +0.000 A 
ATOM      8  N   UNL     1       1.710   9.233  18.187  0.00  0.00    +0.000 NA
ATOM      9  C   UNL     1       1.223   9.283  19.454  0.00  0.00    +0.000 A 
ATOM     10  C   UNL     1       0.452  10.465  19.881  0.00  0.00    +0.000 A 
ATOM     11  O   UNL     1       0.226  11.426  19.157  0.00  0.00    +0.000 OA
ATOM     12  N   UNL     1      -0.014  10.424  21.174  0.00  0.00    +0.000 N 
ATOM     13  H   UNL     1      -0.118   8.782  23.934  0.00  0.00    +0.000 HD
ATOM     14  H   UNL     1      -0.758  10.349  23.604  0.00  0.00    +0.000 HD
ATOM     15  H   UNL     1      -0.558  11.223  21.463  0.00  0.00    +0.000 HD
ENDROOT
BRANCH   6  16
ATOM     16  C   UNL     1       3.343   5.869  18.398  0.00  0.00    +0.000 C 
ATOM     17  O   UNL     1       2.838   5.064  17.628  0.00  0.00    +0.000 OA
ATOM     18  N   UNL     1       4.609   5.721  18.914  0.00  0.00    +0.000 N 
ATOM     19  H   UNL     1       4.962   6.430  19.552  0.00  0.00    +0.000 HD
BRANCH  18  20
ATOM     20  C   UNL     1       5.469   4.622  18.522  0.00  0.00    +0.000 C 
BRANCH  20  21
ATOM     21  C   UNL     1       6.296   5.020  17.356  0.00  0.00    +0.000 A 
ATOM     22  C   UNL     1       7.026   6.170  17.140  0.00  0.00    +0.000 A 
ATOM     23  N   UNL     1       7.599   5.971  15.921  0.00  0.00    +0.000 N 
ATOM     24  N   UNL     1       7.266   4.777  15.412  0.00  0.00    +0.000 NA
ATOM     25  N   UNL     1       6.462   4.182  16.282  0.00  0.00    +0.000 NA
ATOM     26  H   UNL     1       8.214   6.575  15.387  0.00  0.00    +0.000 HD
ENDBRANCH  20  21
ENDBRANCH  18  20
ENDBRANCH   6  16
TORSDOF 3
ENDMDL
MODEL 7
REMARK VINA RESULT:      -7.2      4.222      4.937
REMARK  Name = 
REMARK  3 active torsions:
REMARK  status: ('A' for Active; 'I' for Inactive)
REMARK    1  A    between atoms: C_6  and  C_7
REMARK    2  A    between atoms: N_9  and  C_10
REMARK    3  A    between atoms: C_10  and  C_11
REMARK                            x       y       z     vdW  Elec       q    Type
REMARK                         _______ _______ _______ _____ _____    ______ ____
ROOT
ATOM      1  N   UNL     1       6.864   5.234  13.780  0.00  0.00    +0.000 N 
ATOM      2  C   UNL     1       6.642   5.169  15.110  0.00  0.00    +0.000 A 
ATOM      3  N   UNL     1       5.522   5.572  15.620  0.00  0.00    +0.000 NA
ATOM      4  C   UNL     1       5.347   5.443  17.008  0.00  0.00    +0.000 A 
ATOM      5  N   UNL     1       4.140   5.860  17.485  0.00  0.00    +0.000 NA
ATOM      6  C   UNL     1       3.973   5.708  18.831  0.00  0.00    +0.000 A 
ATOM      7  C   UNL     1       4.959   5.176  19.660  0.00  0.00    +0.000 A 
ATOM      8  N   UNL     1       6.162   4.762  19.195  0.00  0.00    +0.000 NA
ATOM      9  C   UNL     1       6.321   4.909  17.854  0.00  0.00    +0.000 A 
ATOM     10  C   UNL     1       7.586   4.479  17.229  0.00  0.00    +0.000 A 
ATOM     11  O   UNL     1       8.522   3.997  17.854  0.00  0.00    +0.000 OA
ATOM     12  N   UNL     1       7.654   4.652  15.867  0.00  0.00    +0.000 N 
ATOM     13  H   UNL     1       6.178   5.734  13.225  0.00  0.00    +0.000 HD
ATOM     14  H   UNL     1       7.774   5.094  13.366  0.00  0.00    +0.000 HD
ATOM     15  H   UNL     1       8.511   4.341  15.434  0.00  0.00    +0.000 HD
ENDROOT
BRANCH   6  16
ATOM     16  C   UNL     1       2.688   6.137  19.452  0.00  0.00    +0.000 C 
ATOM     17  O   UNL     1       1.799   5.318  19.641  0.00  0.00    +0.000 OA
ATOM     18  N   UNL     1       2.563   7.467  19.781  0.00  0.00    +0.000 N 
ATOM     19  H   UNL     1       3.344   8.091  19.592  0.00  0.00    +0.000 HD
BRANCH  18  20
ATOM     20  C   UNL     1       1.382   7.982  20.444  0.00  0.00    +0.000 C 
BRANCH  20  21
ATOM     21  C   UNL     1       0.899   9.195  19.740  0.00  0.00    +0.000 A 
ATOM     22  C   UNL     1       1.316   9.755  18.550  0.00  0.00    +0.000 A 
ATOM     23  N   UNL     1       0.499  10.831  18.388  0.00  0.00    +0.000 N 
ATOM     24  N   UNL     1      -0.380  10.936  19.394  0.00  0.00    +0.000 NA
ATOM     25  N   UNL     1      -0.144   9.938  20.235  0.00  0.00    +0.000 NA
ATOM     26  H   UNL     1       0.471  11.518  17.642  0.00  0.00    +0.000 HD
ENDBRANCH  20  21
ENDBRANCH  18  20
ENDBRANCH   6  16
TORSDOF 3
ENDMDL
MODEL 8
REMARK VINA RESULT:      -7.2      5.580      6.697
REMARK  Name = 
REMARK  3 active torsions:
REMARK  status: ('A' for Active; 'I' for Inactive)
REMARK    1  A    between atoms: C_6  and  C_7
REMARK    2  A    between atoms: N_9  and  C_10
REMARK    3  A    between atoms: C_10  and  C_11
REMARK                            x       y       z     vdW  Elec       q    Type
REMARK                         _______ _______ _______ _____ _____    ______ ____
ROOT
ATOM      1  N   UNL     1       7.529   5.295  15.542  0.00  0.00    +0.000 N 
ATOM      2  C   UNL     1       6.576   5.424  16.489  0.00  0.00    +0.000 A 
ATOM      3  N   UNL     1       5.749   6.421  16.470  0.00  0.00    +0.000 NA
ATOM      4  C   UNL     1       4.759   6.474  17.466  0.00  0.00    +0.000 A 
ATOM      5  N   UNL     1       3.902   7.530  17.382  0.00  0.00    +0.000 NA
ATOM      6  C   UNL     1       2.932   7.558  18.342  0.00  0.00    +0.000 A 
ATOM      7  C   UNL     1       2.826   6.589  19.338  0.00  0.00    +0.000 A 
ATOM      8  N   UNL     1       3.675   5.538  19.430  0.00  0.00    +0.000 NA
ATOM      9  C   UNL     1       4.635   5.512  18.470  0.00  0.00    +0.000 A 
ATOM     10  C   UNL     1       5.610   4.405  18.459  0.00  0.00    +0.000 A 
ATOM     11  O   UNL     1       5.615   3.498  19.281  0.00  0.00    +0.000 OA
ATOM     12  N   UNL     1       6.536   4.451  17.444  0.00  0.00    +0.000 N 
ATOM     13  H   UNL     1       7.654   6.076  14.907  0.00  0.00    +0.000 HD
ATOM     14  H   UNL     1       8.293   4.639  15.616  0.00  0.00    +0.000 HD
ATOM     15  H   UNL     1       7.192   3.685  17.423  0.00  0.00    +0.000 HD
ENDROOT
BRANCH   6  16
ATOM     16  C   UNL     1       1.946   8.675  18.338  0.00  0.00    +0.000 C 
ATOM     17  O   UNL     1       1.705   9.273  17.298  0.00  0.00    +0.000 OA
ATOM     18  N   UNL     1       1.349   8.989  19.537  0.00  0.00    +0.000 N 
ATOM     19  H   UNL     1       1.600   8.450  20.363  0.00  0.00    +0.000 HD
BRANCH  18  20
ATOM     20  C   UNL     1       0.331  10.016  19.638  0.00  0.00    +0.000 C 
BRANCH  20  21
ATOM     21  C   UNL     1       0.953  11.305  20.028  0.00  0.00    +0.000 A 
ATOM     22  C   UNL     1       1.584  12.254  19.251  0.00  0.00    +0.000 A 
ATOM     23  N   UNL     1       1.924  13.231  20.137  0.00  0.00    +0.000 N 
ATOM     24  N   UNL     1       1.524  12.927  21.379  0.00  0.00    +0.000 NA
ATOM     25  N   UNL     1       0.927  11.744  21.328  0.00  0.00    +0.000 NA
ATOM     26  H   UNL     1       2.407  14.109  19.981  0.00  0.00    +0.000 HD
ENDBRANCH  20  21
ENDBRANCH  18  20
ENDBRANCH   6  16
TORSDOF 3
ENDMDL
MODEL 9
REMARK VINA RESULT:      -7.1      5.489      8.778
REMARK  Name = 
REMARK  3 active torsions:
REMARK  status: ('A' for Active; 'I' for Inactive)
REMARK    1  A    between atoms: C_6  and  C_7
REMARK    2  A    between atoms: N_9  and  C_10
REMARK    3  A    between atoms: C_10  and  C_11
REMARK                            x       y       z     vdW  Elec       q    Type
REMARK                         _______ _______ _______ _____ _____    ______ ____
ROOT
ATOM      1  N   UNL     1      -0.662   9.745  23.444  0.00  0.00    +0.000 N 
ATOM      2  C   UNL     1      -0.202   9.729  22.176  0.00  0.00    +0.000 A 
ATOM      3  N   UNL     1       0.615   8.807  21.774  0.00  0.00    +0.000 NA
ATOM      4  C   UNL     1       1.025   8.830  20.431  0.00  0.00    +0.000 A 
ATOM      5  N   UNL     1       1.863   7.823  20.059  0.00  0.00    +0.000 NA
ATOM      6  C   UNL     1       2.237   7.843  18.746  0.00  0.00    +0.000 A 
ATOM      7  C   UNL     1       1.804   8.821  17.853  0.00  0.00    +0.000 A 
ATOM      8  N   UNL     1       0.973   9.828  18.215  0.00  0.00    +0.000 NA
ATOM      9  C   UNL     1       0.600   9.799  19.520  0.00  0.00    +0.000 A 
ATOM     10  C   UNL     1      -0.316  10.838  20.028  0.00  0.00    +0.000 A 
ATOM     11  O   UNL     1      -0.762  11.746  19.338  0.00  0.00    +0.000 OA
ATOM     12  N   UNL     1      -0.652  10.724  21.356  0.00  0.00    +0.000 N 
ATOM     13  H   UNL     1      -0.236   9.095  24.095  0.00  0.00    +0.000 HD
ATOM     14  H   UNL     1      -1.155  10.532  23.841  0.00  0.00    +0.000 HD
ATOM     15  H   UNL     1      -1.293  11.422  21.701  0.00  0.00    +0.000 HD
ENDROOT
BRANCH   6  16
ATOM     16  C   UNL     1       3.155   6.784  18.241  0.00  0.00    +0.000 C 
ATOM     17  O   UNL     1       2.783   5.619  18.209  0.00  0.00    +0.000 OA
ATOM     18  N   UNL     1       4.407   7.182  17.833  0.00  0.00    +0.000 N 
ATOM     19  H   UNL     1       4.648   8.169  17.890  0.00  0.00    +0.000 HD
BRANCH  18  20
ATOM     20  C   UNL     1       5.359   6.247  17.268  0.00  0.00    +0.000 C 
BRANCH  20  21
ATOM     21  C   UNL     1       6.471   6.021  18.223  0.00  0.00    +0.000 A 
ATOM     22  C   UNL     1       7.748   6.542  18.235  0.00  0.00    +0.000 A 
ATOM     23  N   UNL     1       8.310   6.010  19.354  0.00  0.00    +0.000 N 
ATOM     24  N   UNL     1       7.447   5.221  20.009  0.00  0.00    +0.000 NA
ATOM     25  N   UNL     1       6.312   5.216  19.323  0.00  0.00    +0.000 NA
ATOM     26  H   UNL     1       9.243   6.133  19.734  0.00  0.00    +0.000 HD
ENDBRANCH  20  21
ENDBRANCH  18  20
ENDBRANCH   6  16
TORSDOF 3
ENDMDL
