MODEL 1
REMARK VINA RESULT:      -6.7      0.000      0.000
REMARK  Name = 
REMARK  13 active torsions:
REMARK  status: ('A' for Active; 'I' for Inactive)
REMARK    1  A    between atoms: O_1  and  C_2
REMARK    2  A    between atoms: C_2  and  C_3
REMARK    3  A    between atoms: C_5  and  O_6
REMARK    4  A    between atoms: C_5  and  C_7
REMARK    5  A    between atoms: C_7  and  O_8
REMARK    6  A    between atoms: C_9  and  O_10
REMARK    7  A    between atoms: C_11  and  O_12
REMARK    8  A    between atoms: O_12  and  C_13
REMARK    9  A    between atoms: C_15  and  C_16
REMARK   10  A    between atoms: C_16  and  O_17
REMARK   11  A    between atoms: C_18  and  O_19
REMARK   12  A    between atoms: C_20  and  O_21
REMARK   13  A    between atoms: C_22  and  O_23
REMARK                            x       y       z     vdW  Elec       q    Type
REMARK                         _______ _______ _______ _____ _____    ______ ____
ROOT
ATOM      1  O   UNL     1       3.969   4.380  16.863  0.00  0.00    +0.000 OA
ENDROOT
BRANCH   1   2
ATOM      2  C   UNL     1       3.341   4.106  18.115  0.00  0.00    +0.000 C 
ATOM      3  O   UNL     1       4.110   3.147  18.840  0.00  0.00    +0.000 OA
ATOM      4  C   UNL     1       3.562   2.840  20.132  0.00  0.00    +0.000 C 
ATOM      5  C   UNL     1       2.195   2.178  19.929  0.00  0.00    +0.000 C 
ATOM      6  C   UNL     1       1.272   3.154  19.185  0.00  0.00    +0.000 C 
ATOM      7  C   UNL     1       1.901   3.597  17.852  0.00  0.00    +0.000 C 
BRANCH   5   8
ATOM      8  O   UNL     1       2.323   0.979  19.150  0.00  0.00    +0.000 OA
ATOM      9  H   UNL     1       2.025   1.178  18.238  0.00  0.00    +0.000 HD
ENDBRANCH   5   8
BRANCH   6  10
ATOM     10  O   UNL     1      -0.005   2.544  18.978  0.00  0.00    +0.000 OA
ATOM     11  H   UNL     1      -0.637   3.273  18.825  0.00  0.00    +0.000 HD
ENDBRANCH   6  10
BRANCH   7  12
ATOM     12  O   UNL     1       1.088   4.602  17.225  0.00  0.00    +0.000 OA
ATOM     13  H   UNL     1       0.169   4.296  17.186  0.00  0.00    +0.000 HD
ENDBRANCH   7  12
BRANCH   4  14
ATOM     14  C   UNL     1       4.542   1.915  20.867  0.00  0.00    +0.000 C 
BRANCH  14  15
ATOM     15  O   UNL     1       5.255   1.089  19.946  0.00  0.00    +0.000 OA
ATOM     16  H   UNL     1       4.879   1.214  19.061  0.00  0.00    +0.000 HD
ENDBRANCH  14  15
ENDBRANCH   4  14
ENDBRANCH   1   2
BRANCH   1  21
ATOM     17  C   UNL     1       5.441   6.299  16.387  0.00  0.00    +0.000 C 
ATOM     18  O   UNL     1       5.877   6.193  15.018  0.00  0.00    +0.000 OA
ATOM     19  C   UNL     1       6.097   4.810  14.708  0.00  0.00    +0.000 C 
ATOM     20  C   UNL     1       6.222   4.062  16.048  0.00  0.00    +0.000 C 
ATOM     21  C   UNL     1       5.312   4.880  16.966  0.00  0.00    +0.000 C 
BRANCH  19  22
ATOM     22  O   UNL     1       4.946   4.370  13.993  0.00  0.00    +0.000 OA
ATOM     23  H   UNL     1       5.187   4.529  13.067  0.00  0.00    +0.000 HD
ENDBRANCH  19  22
BRANCH  20  24
ATOM     24  O   UNL     1       7.566   4.047  16.551  0.00  0.00    +0.000 OA
ATOM     25  H   UNL     1       7.806   3.108  16.728  0.00  0.00    +0.000 HD
ENDBRANCH  20  24
BRANCH  17  26
ATOM     26  C   UNL     1       6.443   7.175  17.148  0.00  0.00    +0.000 C 
BRANCH  26  27
ATOM     27  O   UNL     1       7.747   7.092  16.574  0.00  0.00    +0.000 OA
ATOM     28  H   UNL     1       7.826   6.198  16.190  0.00  0.00    +0.000 HD
ENDBRANCH  26  27
ENDBRANCH  17  26
BRANCH  19  29
ATOM     29  C   UNL     1       7.330   4.659  13.798  0.00  0.00    +0.000 C 
BRANCH  29  30
ATOM     30  O   UNL     1       8.279   5.714  14.031  0.00  0.00    +0.000 OA
ATOM     31  H   UNL     1       9.150   5.287  14.091  0.00  0.00    +0.000 HD
ENDBRANCH  29  30
ENDBRANCH  19  29
ENDBRANCH   1  21
TORSDOF 13
ENDMDL
MODEL 2
REMARK VINA RESULT:      -6.6      1.934      3.436
REMARK  Name = 
REMARK  13 active torsions:
REMARK  status: ('A' for Active; 'I' for Inactive)
REMARK    1  A    between atoms: O_1  and  C_2
REMARK    2  A    between atoms: C_2  and  C_3
REMARK    3  A    between atoms: C_5  and  O_6
REMARK    4  A    between atoms: C_5  and  C_7
REMARK    5  A    between atoms: C_7  and  O_8
REMARK    6  A    between atoms: C_9  and  O_10
REMARK    7  A    between atoms: C_11  and  O_12
REMARK    8  A    between atoms: O_12  and  C_13
REMARK    9  A    between atoms: C_15  and  C_16
REMARK   10  A    between atoms: C_16  and  O_17
REMARK   11  A    between atoms: C_18  and  O_19
REMARK   12  A    between atoms: C_20  and  O_21
REMARK   13  A    between atoms: C_22  and  O_23
REMARK                            x       y       z     vdW  Elec       q    Type
REMARK                         _______ _______ _______ _____ _____    ______ ____
ROOT
ATOM      1  O   UNL     1       4.224   3.544  17.330  0.00  0.00    +0.000 OA
ENDROOT
BRANCH   1   2
ATOM      2  C   UNL     1       3.011   4.053  17.885  0.00  0.00    +0.000 C 
ATOM      3  O   UNL     1       3.269   5.284  18.560  0.00  0.00    +0.000 OA
ATOM      4  C   UNL     1       2.089   5.883  19.119  0.00  0.00    +0.000 C 
ATOM      5  C   UNL     1       1.541   4.945  20.201  0.00  0.00    +0.000 C 
ATOM      6  C   UNL     1       1.191   3.594  19.562  0.00  0.00    +0.000 C 
ATOM      7  C   UNL     1       2.414   2.993  18.844  0.00  0.00    +0.000 C 
BRANCH   5   8
ATOM      8  O   UNL     1       2.520   4.731  21.228  0.00  0.00    +0.000 OA
ATOM      9  H   UNL     1       3.200   4.120  20.876  0.00  0.00    +0.000 HD
ENDBRANCH   5   8
BRANCH   6  10
ATOM     10  O   UNL     1       0.690   2.704  20.563  0.00  0.00    +0.000 OA
ATOM     11  H   UNL     1       0.827   1.799  20.222  0.00  0.00    +0.000 HD
ENDBRANCH   6  10
BRANCH   7  12
ATOM     12  O   UNL     1       2.044   1.793  18.147  0.00  0.00    +0.000 OA
ATOM     13  H   UNL     1       2.845   1.305  17.898  0.00  0.00    +0.000 HD
ENDBRANCH   7  12
BRANCH   4  14
ATOM     14  C   UNL     1       2.467   7.256  19.690  0.00  0.00    +0.000 C 
BRANCH  14  15
ATOM     15  O   UNL     1       1.845   7.473  20.957  0.00  0.00    +0.000 OA
ATOM     16  H   UNL     1       1.284   8.262  20.897  0.00  0.00    +0.000 HD
ENDBRANCH  14  15
ENDBRANCH   4  14
ENDBRANCH   1   2
BRANCH   1  21
ATOM     17  C   UNL     1       6.245   3.893  15.965  0.00  0.00    +0.000 C 
ATOM     18  O   UNL     1       7.244   4.504  16.803  0.00  0.00    +0.000 OA
ATOM     19  C   UNL     1       6.602   5.432  17.688  0.00  0.00    +0.000 C 
ATOM     20  C   UNL     1       5.214   5.735  17.094  0.00  0.00    +0.000 C 
ATOM     21  C   UNL     1       4.866   4.422  16.392  0.00  0.00    +0.000 C 
BRANCH  19  22
ATOM     22  O   UNL     1       6.478   4.770  18.944  0.00  0.00    +0.000 OA
ATOM     23  H   UNL     1       7.299   4.258  19.006  0.00  0.00    +0.000 HD
ENDBRANCH  19  22
BRANCH  20  24
ATOM     24  O   UNL     1       5.238   6.820  16.155  0.00  0.00    +0.000 OA
ATOM     25  H   UNL     1       4.503   7.432  16.390  0.00  0.00    +0.000 HD
ENDBRANCH  20  24
BRANCH  17  26
ATOM     26  C   UNL     1       6.586   4.202  14.502  0.00  0.00    +0.000 C 
BRANCH  26  27
ATOM     27  O   UNL     1       7.494   5.298  14.399  0.00  0.00    +0.000 OA
ATOM     28  H   UNL     1       8.118   5.076  13.682  0.00  0.00    +0.000 HD
ENDBRANCH  26  27
ENDBRANCH  17  26
BRANCH  19  29
ATOM     29  C   UNL     1       7.481   6.683  17.875  0.00  0.00    +0.000 C 
BRANCH  29  30
ATOM     30  O   UNL     1       7.872   7.238  16.608  0.00  0.00    +0.000 OA
ATOM     31  H   UNL     1       8.439   8.001  16.809  0.00  0.00    +0.000 HD
ENDBRANCH  29  30
ENDBRANCH  19  29
ENDBRANCH   1  21
TORSDOF 13
ENDMDL
MODEL 3
REMARK VINA RESULT:      -6.4      1.732      3.767
REMARK  Name = 
REMARK  13 active torsions:
REMARK  status: ('A' for Active; 'I' for Inactive)
REMARK    1  A    between atoms: O_1  and  C_2
REMARK    2  A    between atoms: C_2  and  C_3
REMARK    3  A    between atoms: C_5  and  O_6
REMARK    4  A    between atoms: C_5  and  C_7
REMARK    5  A    between atoms: C_7  and  O_8
REMARK    6  A    between atoms: C_9  and  O_10
REMARK    7  A    between atoms: C_11  and  O_12
REMARK    8  A    between atoms: O_12  and  C_13
REMARK    9  A    between atoms: C_15  and  C_16
REMARK   10  A    between atoms: C_16  and  O_17
REMARK   11  A    between atoms: C_18  and  O_19
REMARK   12  A    between atoms: C_20  and  O_21
REMARK   13  A    between atoms: C_22  and  O_23
REMARK                            x       y       z     vdW  Elec       q    Type
REMARK                         _______ _______ _______ _____ _____    ______ ____
ROOT
ATOM      1  O   UNL     1       5.590   3.527  18.798  0.00  0.00    +0.000 OA
ENDROOT
BRANCH   1   2
ATOM      2  C   UNL     1       4.286   2.979  18.988  0.00  0.00    +0.000 C 
ATOM      3  O   UNL     1       3.316   3.810  18.351  0.00  0.00    +0.000 OA
ATOM      4  C   UNL     1       1.975   3.308  18.466  0.00  0.00    +0.000 C 
ATOM      5  C   UNL     1       1.586   3.311  19.948  0.00  0.00    +0.000 C 
ATOM      6  C   UNL     1       2.553   2.404  20.721  0.00  0.00    +0.000 C 
ATOM      7  C   UNL     1       4.012   2.848  20.507  0.00  0.00    +0.000 C 
BRANCH   5   8
ATOM      8  O   UNL     1       1.664   4.638  20.490  0.00  0.00    +0.000 OA
ATOM      9  H   UNL     1       2.326   4.631  21.212  0.00  0.00    +0.000 HD
ENDBRANCH   5   8
BRANCH   6  10
ATOM     10  O   UNL     1       2.210   2.407  22.109  0.00  0.00    +0.000 OA
ATOM     11  H   UNL     1       1.620   1.641  22.249  0.00  0.00    +0.000 HD
ENDBRANCH   6  10
BRANCH   7  12
ATOM     12  O   UNL     1       4.914   1.922  21.133  0.00  0.00    +0.000 OA
ATOM     13  H   UNL     1       4.440   1.102  21.344  0.00  0.00    +0.000 HD
ENDBRANCH   7  12
BRANCH   4  14
ATOM     14  C   UNL     1       1.050   4.203  17.629  0.00  0.00    +0.000 C 
BRANCH  14  15
ATOM     15  O   UNL     1       1.500   5.558  17.641  0.00  0.00    +0.000 OA
ATOM     16  H   UNL     1       0.737   6.140  17.501  0.00  0.00    +0.000 HD
ENDBRANCH  14  15
ENDBRANCH   4  14
ENDBRANCH   1   2
BRANCH   1  21
ATOM     17  C   UNL     1       6.958   4.246  16.880  0.00  0.00    +0.000 C 
ATOM     18  O   UNL     1       7.991   5.119  17.375  0.00  0.00    +0.000 OA
ATOM     19  C   UNL     1       7.448   5.927  18.428  0.00  0.00    +0.000 C 
ATOM     20  C   UNL     1       5.915   5.868  18.297  0.00  0.00    +0.000 C 
ATOM     21  C   UNL     1       5.690   4.470  17.719  0.00  0.00    +0.000 C 
BRANCH  19  22
ATOM     22  O   UNL     1       7.871   5.332  19.651  0.00  0.00    +0.000 OA
ATOM     23  H   UNL     1       7.113   5.472  20.240  0.00  0.00    +0.000 HD
ENDBRANCH  19  22
BRANCH  20  24
ATOM     24  O   UNL     1       5.395   6.871  17.412  0.00  0.00    +0.000 OA
ATOM     25  H   UNL     1       6.163   7.333  17.003  0.00  0.00    +0.000 HD
ENDBRANCH  20  24
BRANCH  17  26
ATOM     26  C   UNL     1       6.755   4.536  15.387  0.00  0.00    +0.000 C 
BRANCH  26  27
ATOM     27  O   UNL     1       7.572   5.622  14.952  0.00  0.00    +0.000 OA
ATOM     28  H   UNL     1       8.188   5.818  15.684  0.00  0.00    +0.000 HD
ENDBRANCH  26  27
ENDBRANCH  17  26
BRANCH  19  29
ATOM     29  C   UNL     1       8.020   7.354  18.351  0.00  0.00    +0.000 C 
BRANCH  29  30
ATOM     30  O   UNL     1       7.876   7.902  17.029  0.00  0.00    +0.000 OA
ATOM     31  H   UNL     1       8.420   8.708  17.008  0.00  0.00    +0.000 HD
ENDBRANCH  29  30
ENDBRANCH  19  29
ENDBRANCH   1  21
TORSDOF 13
ENDMDL
MODEL 4
REMARK VINA RESULT:      -6.3      1.087      1.376
REMARK  Name = 
REMARK  13 active torsions:
REMARK  status: ('A' for Active; 'I' for Inactive)
REMARK    1  A    between atoms: O_1  and  C_2
REMARK    2  A    between atoms: C_2  and  C_3
REMARK    3  A    between atoms: C_5  and  O_6
REMARK    4  A    between atoms: C_5  and  C_7
REMARK    5  A    between atoms: C_7  and  O_8
REMARK    6  A    between atoms: C_9  and  O_10
REMARK    7  A    between atoms: C_11  and  O_12
REMARK    8  A    between atoms: O_12  and  C_13
REMARK    9  A    between atoms: C_15  and  C_16
REMARK   10  A    between atoms: C_16  and  O_17
REMARK   11  A    between atoms: C_18  and  O_19
REMARK   12  A    between atoms: C_20  and  O_21
REMARK   13  A    between atoms: C_22  and  O_23
REMARK                            x       y       z     vdW  Elec       q    Type
REMARK                         _______ _______ _______ _____ _____    ______ ____
ROOT
ATOM      1  O   UNL     1       4.050   5.356  17.906  0.00  0.00    +0.000 OA
ENDROOT
BRANCH   1   2
ATOM      2  C   UNL     1       3.220   4.634  18.817  0.00  0.00    +0.000 C 
ATOM      3  O   UNL     1       3.984   3.616  19.462  0.00  0.00    +0.000 OA
ATOM      4  C   UNL     1       3.228   2.863  20.424  0.00  0.00    +0.000 C 
ATOM      5  C   UNL     1       2.117   2.113  19.682  0.00  0.00    +0.000 C 
ATOM      6  C   UNL     1       1.208   3.132  18.981  0.00  0.00    +0.000 C 
ATOM      7  C   UNL     1       2.021   4.037  18.038  0.00  0.00    +0.000 C 
BRANCH   5   8
ATOM      8  O   UNL     1       2.673   1.233  18.693  0.00  0.00    +0.000 OA
ATOM      9  H   UNL     1       2.056   0.482  18.576  0.00  0.00    +0.000 HD
ENDBRANCH   5   8
BRANCH   6  10
ATOM     10  O   UNL     1       0.172   2.445  18.273  0.00  0.00    +0.000 OA
ATOM     11  H   UNL     1      -0.329   3.127  17.786  0.00  0.00    +0.000 HD
ENDBRANCH   6  10
BRANCH   7  12
ATOM     12  O   UNL     1       1.183   5.063  17.484  0.00  0.00    +0.000 OA
ATOM     13  H   UNL     1       1.224   5.853  18.046  0.00  0.00    +0.000 HD
ENDBRANCH   7  12
BRANCH   4  14
ATOM     14  C   UNL     1       4.184   1.903  21.146  0.00  0.00    +0.000 C 
BRANCH  14  15
ATOM     15  O   UNL     1       5.258   1.510  20.291  0.00  0.00    +0.000 OA
ATOM     16  H   UNL     1       4.931   0.845  19.666  0.00  0.00    +0.000 HD
ENDBRANCH  14  15
ENDBRANCH   4  14
ENDBRANCH   1   2
BRANCH   1  21
ATOM     17  C   UNL     1       6.488   5.667  17.736  0.00  0.00    +0.000 C 
ATOM     18  O   UNL     1       6.772   6.235  16.443  0.00  0.00    +0.000 OA
ATOM     19  C   UNL     1       5.883   5.657  15.478  0.00  0.00    +0.000 C 
ATOM     20  C   UNL     1       5.317   4.368  16.101  0.00  0.00    +0.000 C 
ATOM     21  C   UNL     1       5.294   4.709  17.592  0.00  0.00    +0.000 C 
BRANCH  19  22
ATOM     22  O   UNL     1       4.846   6.610  15.264  0.00  0.00    +0.000 OA
ATOM     23  H   UNL     1       4.047   6.132  15.534  0.00  0.00    +0.000 HD
ENDBRANCH  19  22
BRANCH  20  24
ATOM     24  O   UNL     1       6.147   3.223  15.858  0.00  0.00    +0.000 OA
ATOM     25  H   UNL     1       6.003   2.589  16.597  0.00  0.00    +0.000 HD
ENDBRANCH  20  24
BRANCH  17  26
ATOM     26  C   UNL     1       7.758   4.978  18.251  0.00  0.00    +0.000 C 
BRANCH  26  27
ATOM     27  O   UNL     1       8.293   4.079  17.280  0.00  0.00    +0.000 OA
ATOM     28  H   UNL     1       7.535   3.734  16.772  0.00  0.00    +0.000 HD
ENDBRANCH  26  27
ENDBRANCH  17  26
BRANCH  19  29
ATOM     29  C   UNL     1       6.623   5.426  14.147  0.00  0.00    +0.000 C 
BRANCH  29  30
ATOM     30  O   UNL     1       8.041   5.312  14.353  0.00  0.00    +0.000 OA
ATOM     31  H   UNL     1       8.375   6.219  14.456  0.00  0.00    +0.000 HD
ENDBRANCH  29  30
ENDBRANCH  19  29
ENDBRANCH   1  21
TORSDOF 13
ENDMDL
MODEL 5
REMARK VINA RESULT:      -6.3      1.738      1.839
REMARK  Name = 
REMARK  13 active torsions:
REMARK  status: ('A' for Active; 'I' for Inactive)
REMARK    1  A    between atoms: O_1  and  C_2
REMARK    2  A    between atoms: C_2  and  C_3
REMARK    3  A    between atoms: C_5  and  O_6
REMARK    4  A    between atoms: C_5  and  C_7
REMARK    5  A    between atoms: C_7  and  O_8
REMARK    6  A    between atoms: C_9  and  O_10
REMARK    7  A    between atoms: C_11  and  O_12
REMARK    8  A    between atoms: O_12  and  C_13
REMARK    9  A    between atoms: C_15  and  C_16
REMARK   10  A    between atoms: C_16  and  O_17
REMARK   11  A    between atoms: C_18  and  O_19
REMARK   12  A    between atoms: C_20  and  O_21
REMARK   13  A    between atoms: C_22  and  O_23
REMARK                            x       y       z     vdW  Elec       q    Type
REMARK                         _______ _______ _______ _____ _____    ______ ____
ROOT
ATOM      1  O   UNL     1       4.603   5.902  18.511  0.00  0.00    +0.000 OA
ENDROOT
BRANCH   1   2
ATOM      2  C   UNL     1       4.101   4.983  19.481  0.00  0.00    +0.000 C 
ATOM      3  O   UNL     1       4.375   3.645  19.065  0.00  0.00    +0.000 OA
ATOM      4  C   UNL     1       3.930   2.655  20.007  0.00  0.00    +0.000 C 
ATOM      5  C   UNL     1       2.403   2.735  20.103  0.00  0.00    +0.000 C 
ATOM      6  C   UNL     1       2.004   4.136  20.587  0.00  0.00    +0.000 C 
ATOM      7  C   UNL     1       2.580   5.222  19.660  0.00  0.00    +0.000 C 
BRANCH   5   8
ATOM      8  O   UNL     1       1.802   2.501  18.821  0.00  0.00    +0.000 OA
ATOM      9  H   UNL     1       0.844   2.352  18.959  0.00  0.00    +0.000 HD
ENDBRANCH   5   8
BRANCH   6  10
ATOM     10  O   UNL     1       0.579   4.229  20.669  0.00  0.00    +0.000 OA
ATOM     11  H   UNL     1       0.380   5.130  20.990  0.00  0.00    +0.000 HD
ENDBRANCH   6  10
BRANCH   7  12
ATOM     12  O   UNL     1       2.307   6.529  20.189  0.00  0.00    +0.000 OA
ATOM     13  H   UNL     1       2.737   7.199  19.636  0.00  0.00    +0.000 HD
ENDBRANCH   7  12
BRANCH   4  14
ATOM     14  C   UNL     1       4.402   1.278  19.521  0.00  0.00    +0.000 C 
BRANCH  14  15
ATOM     15  O   UNL     1       4.149   1.113  18.126  0.00  0.00    +0.000 OA
ATOM     16  H   UNL     1       4.997   1.038  17.662  0.00  0.00    +0.000 HD
ENDBRANCH  14  15
ENDBRANCH   4  14
ENDBRANCH   1   2
BRANCH   1  21
ATOM     17  C   UNL     1       6.536   7.061  17.517  0.00  0.00    +0.000 C 
ATOM     18  O   UNL     1       6.625   6.668  16.135  0.00  0.00    +0.000 OA
ATOM     19  C   UNL     1       6.271   5.283  16.024  0.00  0.00    +0.000 C 
ATOM     20  C   UNL     1       6.384   4.674  17.434  0.00  0.00    +0.000 C 
ATOM     21  C   UNL     1       6.028   5.861  18.331  0.00  0.00    +0.000 C 
BRANCH  19  22
ATOM     22  O   UNL     1       4.921   5.249  15.568  0.00  0.00    +0.000 OA
ATOM     23  H   UNL     1       4.410   5.403  16.378  0.00  0.00    +0.000 HD
ENDBRANCH  19  22
BRANCH  20  24
ATOM     24  O   UNL     1       7.705   4.197  17.727  0.00  0.00    +0.000 OA
ATOM     25  H   UNL     1       7.822   3.340  17.257  0.00  0.00    +0.000 HD
ENDBRANCH  20  24
BRANCH  17  26
ATOM     26  C   UNL     1       7.915   7.558  17.969  0.00  0.00    +0.000 C 
BRANCH  26  27
ATOM     27  O   UNL     1       8.388   6.827  19.099  0.00  0.00    +0.000 OA
ATOM     28  H   UNL     1       9.351   6.980  19.147  0.00  0.00    +0.000 HD
ENDBRANCH  26  27
ENDBRANCH  17  26
BRANCH  19  29
ATOM     29  C   UNL     1       7.162   4.589  14.978  0.00  0.00    +0.000 C 
BRANCH  29  30
ATOM     30  O   UNL     1       7.903   5.550  14.206  0.00  0.00    +0.000 OA
ATOM     31  H   UNL     1       8.095   5.124  13.354  0.00  0.00    +0.000 HD
ENDBRANCH  29  30
ENDBRANCH  19  29
ENDBRANCH   1  21
TORSDOF 13
ENDMDL
MODEL 6
REMARK VINA RESULT:      -6.3      1.650      3.458
REMARK  Name = 
REMARK  13 active torsions:
REMARK  status: ('A' for Active; 'I' for Inactive)
REMARK    1  A    between atoms: O_1  and  C_2
REMARK    2  A    between atoms: C_2  and  C_3
REMARK    3  A    between atoms: C_5  and  O_6
REMARK    4  A    between atoms: C_5  and  C_7
REMARK    5  A    between atoms: C_7  and  O_8
REMARK    6  A    between atoms: C_9  and  O_10
REMARK    7  A    between atoms: C_11  and  O_12
REMARK    8  A    between atoms: O_12  and  C_13
REMARK    9  A    between atoms: C_15  and  C_16
REMARK   10  A    between atoms: C_16  and  O_17
REMARK   11  A    between atoms: C_18  and  O_19
REMARK   12  A    between atoms: C_20  and  O_21
REMARK   13  A    between atoms: C_22  and  O_23
REMARK                            x       y       z     vdW  Elec       q    Type
REMARK                         _______ _______ _______ _____ _____    ______ ____
ROOT
ATOM      1  O   UNL     1       4.597   3.219  16.788  0.00  0.00    +0.000 OA
ENDROOT
BRANCH   1   2
ATOM      2  C   UNL     1       3.343   3.526  17.396  0.00  0.00    +0.000 C 
ATOM      3  O   UNL     1       3.252   4.931  17.629  0.00  0.00    +0.000 OA
ATOM      4  C   UNL     1       2.000   5.330  18.211  0.00  0.00    +0.000 C 
ATOM      5  C   UNL     1       1.891   4.692  19.600  0.00  0.00    +0.000 C 
ATOM      6  C   UNL     1       1.938   3.165  19.454  0.00  0.00    +0.000 C 
ATOM      7  C   UNL     1       3.215   2.723  18.715  0.00  0.00    +0.000 C 
BRANCH   5   8
ATOM      8  O   UNL     1       2.979   5.110  20.437  0.00  0.00    +0.000 OA
ATOM      9  H   UNL     1       3.116   4.422  21.121  0.00  0.00    +0.000 HD
ENDBRANCH   5   8
BRANCH   6  10
ATOM     10  O   UNL     1       1.850   2.555  20.745  0.00  0.00    +0.000 OA
ATOM     11  H   UNL     1       1.176   1.851  20.671  0.00  0.00    +0.000 HD
ENDBRANCH   6  10
BRANCH   7  12
ATOM     12  O   UNL     1       3.189   1.307  18.475  0.00  0.00    +0.000 OA
ATOM     13  H   UNL     1       3.126   1.142  17.521  0.00  0.00    +0.000 HD
ENDBRANCH   7  12
BRANCH   4  14
ATOM     14  C   UNL     1       1.966   6.863  18.281  0.00  0.00    +0.000 C 
BRANCH  14  15
ATOM     15  O   UNL     1       3.287   7.405  18.306  0.00  0.00    +0.000 OA
ATOM     16  H   UNL     1       3.917   6.697  18.099  0.00  0.00    +0.000 HD
ENDBRANCH  14  15
ENDBRANCH   4  14
ENDBRANCH   1   2
BRANCH   1  21
ATOM     17  C   UNL     1       6.550   3.927  15.464  0.00  0.00    +0.000 C 
ATOM     18  O   UNL     1       7.529   4.465  16.373  0.00  0.00    +0.000 OA
ATOM     19  C   UNL     1       6.851   5.189  17.408  0.00  0.00    +0.000 C 
ATOM     20  C   UNL     1       5.430   5.485  16.895  0.00  0.00    +0.000 C 
ATOM     21  C   UNL     1       5.151   4.280  15.994  0.00  0.00    +0.000 C 
BRANCH  19  22
ATOM     22  O   UNL     1       6.807   4.326  18.541  0.00  0.00    +0.000 OA
ATOM     23  H   UNL     1       7.392   3.595  18.286  0.00  0.00    +0.000 HD
ENDBRANCH  19  22
BRANCH  20  24
ATOM     24  O   UNL     1       5.353   6.706  16.145  0.00  0.00    +0.000 OA
ATOM     25  H   UNL     1       5.029   7.408  16.755  0.00  0.00    +0.000 HD
ENDBRANCH  20  24
BRANCH  17  26
ATOM     26  C   UNL     1       6.828   4.492  14.066  0.00  0.00    +0.000 C 
BRANCH  26  27
ATOM     27  O   UNL     1       7.731   5.596  14.119  0.00  0.00    +0.000 OA
ATOM     28  H   UNL     1       8.387   5.454  13.411  0.00  0.00    +0.000 HD
ENDBRANCH  26  27
ENDBRANCH  17  26
BRANCH  19  29
ATOM     29  C   UNL     1       7.648   6.452  17.782  0.00  0.00    +0.000 C 
BRANCH  29  30
ATOM     30  O   UNL     1       7.943   7.245  16.619  0.00  0.00    +0.000 OA
ATOM     31  H   UNL     1       8.564   7.933  16.909  0.00  0.00    +0.000 HD
ENDBRANCH  29  30
ENDBRANCH  19  29
ENDBRANCH   1  21
TORSDOF 13
ENDMDL
MODEL 7
REMARK VINA RESULT:      -6.2      1.845      2.582
REMARK  Name = 
REMARK  13 active torsions:
REMARK  status: ('A' for Active; 'I' for Inactive)
REMARK    1  A    between atoms: O_1  and  C_2
REMARK    2  A    between atoms: C_2  and  C_3
REMARK    3  A    between atoms: C_5  and  O_6
REMARK    4  A    between atoms: C_5  and  C_7
REMARK    5  A    between atoms: C_7  and  O_8
REMARK    6  A    between atoms: C_9  and  O_10
REMARK    7  A    between atoms: C_11  and  O_12
REMARK    8  A    between atoms: O_12  and  C_13
REMARK    9  A    between atoms: C_15  and  C_16
REMARK   10  A    between atoms: C_16  and  O_17
REMARK   11  A    between atoms: C_18  and  O_19
REMARK   12  A    between atoms: C_20  and  O_21
REMARK   13  A    between atoms: C_22  and  O_23
REMARK                            x       y       z     vdW  Elec       q    Type
REMARK                         _______ _______ _______ _____ _____    ______ ____
ROOT
ATOM      1  O   UNL     1       5.266   3.874  19.042  0.00  0.00    +0.000 OA
ENDROOT
BRANCH   1   2
ATOM      2  C   UNL     1       3.846   3.903  18.895  0.00  0.00    +0.000 C 
ATOM      3  O   UNL     1       3.270   4.699  19.930  0.00  0.00    +0.000 OA
ATOM      4  C   UNL     1       1.841   4.809  19.833  0.00  0.00    +0.000 C 
ATOM      5  C   UNL     1       1.238   3.413  20.026  0.00  0.00    +0.000 C 
ATOM      6  C   UNL     1       1.769   2.482  18.927  0.00  0.00    +0.000 C 
ATOM      7  C   UNL     1       3.308   2.450  18.930  0.00  0.00    +0.000 C 
BRANCH   5   8
ATOM      8  O   UNL     1       1.606   2.874  21.305  0.00  0.00    +0.000 OA
ATOM      9  H   UNL     1       2.179   3.529  21.755  0.00  0.00    +0.000 HD
ENDBRANCH   5   8
BRANCH   6  10
ATOM     10  O   UNL     1       1.223   1.172  19.102  0.00  0.00    +0.000 OA
ATOM     11  H   UNL     1       1.210   1.005  20.064  0.00  0.00    +0.000 HD
ENDBRANCH   6  10
BRANCH   7  12
ATOM     12  O   UNL     1       3.794   1.676  17.822  0.00  0.00    +0.000 OA
ATOM     13  H   UNL     1       3.590   2.135  16.992  0.00  0.00    +0.000 HD
ENDBRANCH   7  12
BRANCH   4  14
ATOM     14  C   UNL     1       1.357   5.795  20.906  0.00  0.00    +0.000 C 
BRANCH  14  15
ATOM     15  O   UNL     1       2.073   7.028  20.828  0.00  0.00    +0.000 OA
ATOM     16  H   UNL     1       1.560   7.714  21.282  0.00  0.00    +0.000 HD
ENDBRANCH  14  15
ENDBRANCH   4  14
ENDBRANCH   1   2
BRANCH   1  21
ATOM     17  C   UNL     1       5.037   5.748  17.460  0.00  0.00    +0.000 C 
ATOM     18  O   UNL     1       5.226   5.229  16.130  0.00  0.00    +0.000 OA
ATOM     19  C   UNL     1       6.244   4.220  16.166  0.00  0.00    +0.000 C 
ATOM     20  C   UNL     1       7.026   4.416  17.478  0.00  0.00    +0.000 C 
ATOM     21  C   UNL     1       5.953   4.970  18.418  0.00  0.00    +0.000 C 
BRANCH  19  22
ATOM     22  O   UNL     1       5.567   2.966  16.166  0.00  0.00    +0.000 OA
ATOM     23  H   UNL     1       6.192   2.378  15.714  0.00  0.00    +0.000 HD
ENDBRANCH  19  22
BRANCH  20  24
ATOM     24  O   UNL     1       8.110   5.346  17.344  0.00  0.00    +0.000 OA
ATOM     25  H   UNL     1       7.733   6.197  17.021  0.00  0.00    +0.000 HD
ENDBRANCH  20  24
BRANCH  17  26
ATOM     26  C   UNL     1       5.326   7.254  17.437  0.00  0.00    +0.000 C 
BRANCH  26  27
ATOM     27  O   UNL     1       6.507   7.547  16.691  0.00  0.00    +0.000 OA
ATOM     28  H   UNL     1       7.005   8.209  17.208  0.00  0.00    +0.000 HD
ENDBRANCH  26  27
ENDBRANCH  17  26
BRANCH  19  29
ATOM     29  C   UNL     1       7.122   4.306  14.904  0.00  0.00    +0.000 C 
BRANCH  29  30
ATOM     30  O   UNL     1       7.609   5.644  14.700  0.00  0.00    +0.000 OA
ATOM     31  H   UNL     1       8.316   5.577  14.037  0.00  0.00    +0.000 HD
ENDBRANCH  29  30
ENDBRANCH  19  29
ENDBRANCH   1  21
TORSDOF 13
ENDMDL
MODEL 8
REMARK VINA RESULT:      -6.1      1.935      6.555
REMARK  Name = 
REMARK  13 active torsions:
REMARK  status: ('A' for Active; 'I' for Inactive)
REMARK    1  A    between atoms: O_1  and  C_2
REMARK    2  A    between atoms: C_2  and  C_3
REMARK    3  A    between atoms: C_5  and  O_6
REMARK    4  A    between atoms: C_5  and  C_7
REMARK    5  A    between atoms: C_7  and  O_8
REMARK    6  A    between atoms: C_9  and  O_10
REMARK    7  A    between atoms: C_11  and  O_12
REMARK    8  A    between atoms: O_12  and  C_13
REMARK    9  A    between atoms: C_15  and  C_16
REMARK   10  A    between atoms: C_16  and  O_17
REMARK   11  A    between atoms: C_18  and  O_19
REMARK   12  A    between atoms: C_20  and  O_21
REMARK   13  A    between atoms: C_22  and  O_23
REMARK                            x       y       z     vdW  Elec       q    Type
REMARK                         _______ _______ _______ _____ _____    ______ ____
ROOT
ATOM      1  O   UNL     1       4.071   5.627  18.851  0.00  0.00    +0.000 OA
ENDROOT
BRANCH   1   2
ATOM      2  C   UNL     1       5.212   5.778  18.007  0.00  0.00    +0.000 C 
ATOM      3  O   UNL     1       4.871   5.430  16.667  0.00  0.00    +0.000 OA
ATOM      4  C   UNL     1       5.961   5.588  15.744  0.00  0.00    +0.000 C 
ATOM      5  C   UNL     1       7.069   4.606  16.137  0.00  0.00    +0.000 C 
ATOM      6  C   UNL     1       7.538   4.924  17.563  0.00  0.00    +0.000 C 
ATOM      7  C   UNL     1       6.358   4.887  18.551  0.00  0.00    +0.000 C 
BRANCH   5   8
ATOM      8  O   UNL     1       6.585   3.255  16.101  0.00  0.00    +0.000 OA
ATOM      9  H   UNL     1       5.795   3.232  15.522  0.00  0.00    +0.000 HD
ENDBRANCH   5   8
BRANCH   6  10
ATOM     10  O   UNL     1       8.565   4.006  17.948  0.00  0.00    +0.000 OA
ATOM     11  H   UNL     1       8.925   3.633  17.120  0.00  0.00    +0.000 HD
ENDBRANCH   6  10
BRANCH   7  12
ATOM     12  O   UNL     1       6.785   5.307  19.856  0.00  0.00    +0.000 OA
ATOM     13  H   UNL     1       6.878   6.273  19.871  0.00  0.00    +0.000 HD
ENDBRANCH   7  12
BRANCH   4  14
ATOM     14  C   UNL     1       5.437   5.323  14.325  0.00  0.00    +0.000 C 
BRANCH  14  15
ATOM     15  O   UNL     1       6.242   4.353  13.655  0.00  0.00    +0.000 OA
ATOM     16  H   UNL     1       7.175   4.545  13.836  0.00  0.00    +0.000 HD
ENDBRANCH  14  15
ENDBRANCH   4  14
ENDBRANCH   1   2
BRANCH   1  21
ATOM     17  C   UNL     1       1.834   4.655  18.501  0.00  0.00    +0.000 C 
ATOM     18  O   UNL     1       1.213   4.499  19.791  0.00  0.00    +0.000 OA
ATOM     19  C   UNL     1       2.212   4.104  20.741  0.00  0.00    +0.000 C 
ATOM     20  C   UNL     1       3.412   3.572  19.938  0.00  0.00    +0.000 C 
ATOM     21  C   UNL     1       3.343   4.404  18.656  0.00  0.00    +0.000 C 
BRANCH  19  22
ATOM     22  O   UNL     1       2.569   5.281  21.461  0.00  0.00    +0.000 OA
ATOM     23  H   UNL     1       1.874   5.911  21.215  0.00  0.00    +0.000 HD
ENDBRANCH  19  22
BRANCH  20  24
ATOM     24  O   UNL     1       3.304   2.172  19.640  0.00  0.00    +0.000 OA
ATOM     25  H   UNL     1       3.185   1.695  20.493  0.00  0.00    +0.000 HD
ENDBRANCH  20  24
BRANCH  17  26
ATOM     26  C   UNL     1       1.158   3.690  17.520  0.00  0.00    +0.000 C 
BRANCH  26  27
ATOM     27  O   UNL     1       0.666   2.528  18.186  0.00  0.00    +0.000 OA
ATOM     28  H   UNL     1       0.297   2.831  19.038  0.00  0.00    +0.000 HD
ENDBRANCH  26  27
ENDBRANCH  17  26
BRANCH  19  29
ATOM     29  C   UNL     1       1.627   3.080  21.731  0.00  0.00    +0.000 C 
BRANCH  29  30
ATOM     30  O   UNL     1       2.656   2.233  22.272  0.00  0.00    +0.000 OA
ATOM     31  H   UNL     1       2.202   1.460  22.647  0.00  0.00    +0.000 HD
ENDBRANCH  29  30
ENDBRANCH  19  29
ENDBRANCH   1  21
TORSDOF 13
ENDMDL
MODEL 9
REMARK VINA RESULT:      -6.1      1.757      6.130
REMARK  Name = 
REMARK  13 active torsions:
REMARK  status: ('A' for Active; 'I' for Inactive)
REMARK    1  A    between atoms: O_1  and  C_2
REMARK    2  A    between atoms: C_2  and  C_3
REMARK    3  A    between atoms: C_5  and  O_6
REMARK    4  A    between atoms: C_5  and  C_7
REMARK    5  A    between atoms: C_7  and  O_8
REMARK    6  A    between atoms: C_9  and  O_10
REMARK    7  A    between atoms: C_11  and  O_12
REMARK    8  A    between atoms: O_12  and  C_13
REMARK    9  A    between atoms: C_15  and  C_16
REMARK   10  A    between atoms: C_16  and  O_17
REMARK   11  A    between atoms: C_18  and  O_19
REMARK   12  A    between atoms: C_20  and  O_21
REMARK   13  A    between atoms: C_22  and  O_23
REMARK                            x       y       z     vdW  Elec       q    Type
REMARK                         _______ _______ _______ _____ _____    ______ ____
ROOT
ATOM      1  O   UNL     1       4.514   3.139  17.022  0.00  0.00    +0.000 OA
ENDROOT
BRANCH   1   2
ATOM      2  C   UNL     1       5.844   3.650  16.931  0.00  0.00    +0.000 C 
ATOM      3  O   UNL     1       6.050   4.638  17.940  0.00  0.00    +0.000 OA
ATOM      4  C   UNL     1       7.381   5.181  17.939  0.00  0.00    +0.000 C 
ATOM      5  C   UNL     1       7.598   5.918  16.613  0.00  0.00    +0.000 C 
ATOM      6  C   UNL     1       7.436   4.924  15.455  0.00  0.00    +0.000 C 
ATOM      7  C   UNL     1       6.061   4.233  15.512  0.00  0.00    +0.000 C 
BRANCH   5   8
ATOM      8  O   UNL     1       6.636   6.971  16.455  0.00  0.00    +0.000 OA
ATOM      9  H   UNL     1       5.781   6.656  16.814  0.00  0.00    +0.000 HD
ENDBRANCH   5   8
BRANCH   6  10
ATOM     10  O   UNL     1       7.624   5.601  14.209  0.00  0.00    +0.000 OA
ATOM     11  H   UNL     1       6.746   5.940  13.944  0.00  0.00    +0.000 HD
ENDBRANCH   6  10
BRANCH   7  12
ATOM     12  O   UNL     1       5.968   3.218  14.500  0.00  0.00    +0.000 OA
ATOM     13  H   UNL     1       6.640   3.378  13.819  0.00  0.00    +0.000 HD
ENDBRANCH   7  12
BRANCH   4  14
ATOM     14  C   UNL     1       7.522   6.120  19.145  0.00  0.00    +0.000 C 
BRANCH  14  15
ATOM     15  O   UNL     1       7.917   5.397  20.312  0.00  0.00    +0.000 OA
ATOM     16  H   UNL     1       7.637   5.895  21.095  0.00  0.00    +0.000 HD
ENDBRANCH  14  15
ENDBRANCH   4  14
ENDBRANCH   1   2
BRANCH   1  21
ATOM     17  C   UNL     1       3.750   4.071  19.171  0.00  0.00    +0.000 C 
ATOM     18  O   UNL     1       2.832   3.130  19.760  0.00  0.00    +0.000 OA
ATOM     19  C   UNL     1       2.041   2.541  18.719  0.00  0.00    +0.000 C 
ATOM     20  C   UNL     1       2.164   3.457  17.487  0.00  0.00    +0.000 C 
ATOM     21  C   UNL     1       3.574   4.029  17.645  0.00  0.00    +0.000 C 
BRANCH  19  22
ATOM     22  O   UNL     1       2.612   1.263  18.454  0.00  0.00    +0.000 OA
ATOM     23  H   UNL     1       3.171   1.426  17.679  0.00  0.00    +0.000 HD
ENDBRANCH  19  22
BRANCH  20  24
ATOM     24  O   UNL     1       1.188   4.509  17.479  0.00  0.00    +0.000 OA
ATOM     25  H   UNL     1       0.522   4.291  16.788  0.00  0.00    +0.000 HD
ENDBRANCH  20  24
BRANCH  17  26
ATOM     26  C   UNL     1       3.478   5.454  19.775  0.00  0.00    +0.000 C 
BRANCH  26  27
ATOM     27  O   UNL     1       2.501   5.386  20.813  0.00  0.00    +0.000 OA
ATOM     28  H   UNL     1       1.655   5.674  20.419  0.00  0.00    +0.000 HD
ENDBRANCH  26  27
ENDBRANCH  17  26
BRANCH  19  29
ATOM     29  C   UNL     1       0.592   2.343  19.201  0.00  0.00    +0.000 C 
BRANCH  29  30
ATOM     30  O   UNL     1       0.245   3.305  20.212  0.00  0.00    +0.000 OA
ATOM     31  H   UNL     1       0.581   4.162  19.899  0.00  0.00    +0.000 HD
ENDBRANCH  29  30
ENDBRANCH  19  29
ENDBRANCH   1  21
TORSDOF 13
ENDMDL
