MODEL 1
REMARK VINA RESULT:      -6.7      0.000      0.000
REMARK  Name = 
REMARK  4 active torsions:
REMARK  status: ('A' for Active; 'I' for Inactive)
REMARK    1  A    between atoms: C_1  and  O_2
REMARK    2  A    between atoms: O_2  and  C_3
REMARK    3  A    between atoms: C_3  and  C_5
REMARK    4  A    between atoms: C_10  and  N_11
REMARK                            x       y       z     vdW  Elec       q    Type
REMARK                         _______ _______ _______ _____ _____    ______ ____
ROOT
ATOM      1  C   UNL     1       5.743   4.700  17.148  0.00  0.00    +0.000 A 
ATOM      2  C   UNL     1       4.574   4.126  16.616  0.00  0.00    +0.000 A 
ATOM      3  C   UNL     1       3.460   4.047  17.425  0.00  0.00    +0.000 A 
ATOM      4  C   UNL     1       3.466   4.498  18.725  0.00  0.00    +0.000 A 
ATOM      5  C   UNL     1       4.584   5.067  19.292  0.00  0.00    +0.000 A 
ATOM      6  C   UNL     1       5.726   5.164  18.480  0.00  0.00    +0.000 A 
ATOM      7  O   UNL     1       2.266   4.319  19.338  0.00  0.00    +0.000 OA
ATOM      8  C   UNL     1       1.499   3.714  18.274  0.00  0.00    +0.000 C 
ATOM      9  O   UNL     1       2.260   3.524  17.063  0.00  0.00    +0.000 OA
ENDROOT
BRANCH   6  10
ATOM     10  N   UNL     1       6.878   5.838  19.041  0.00  0.00    +0.000 N 
ATOM     11  O   UNL     1       7.393   5.319  20.038  0.00  0.00    +0.000 OA
ATOM     12  O   UNL     1       7.312   6.816  18.419  0.00  0.00    +0.000 OA
ENDBRANCH   6  10
BRANCH   1  13
ATOM     13  C   UNL     1       6.979   4.726  16.332  0.00  0.00    +0.000 C 
ATOM     14  O   UNL     1       7.998   4.130  16.630  0.00  0.00    +0.000 OA
BRANCH  13  16
ATOM     15  C   UNL     1       7.028   4.787  13.990  0.00  0.00    +0.000 C 
ATOM     16  O   UNL     1       6.771   5.468  15.220  0.00  0.00    +0.000 OA
ENDBRANCH  13  16
ENDBRANCH   1  13
TORSDOF 3
ENDMDL
MODEL 2
REMARK VINA RESULT:      -6.7      1.313      1.665
REMARK  Name = 
REMARK  4 active torsions:
REMARK  status: ('A' for Active; 'I' for Inactive)
REMARK    1  A    between atoms: C_1  and  O_2
REMARK    2  A    between atoms: O_2  and  C_3
REMARK    3  A    between atoms: C_3  and  C_5
REMARK    4  A    between atoms: C_10  and  N_11
REMARK                            x       y       z     vdW  Elec       q    Type
REMARK                         _______ _______ _______ _____ _____    ______ ____
ROOT
ATOM      1  C   UNL     1       4.973   4.391  16.745  0.00  0.00    +0.000 A 
ATOM      2  C   UNL     1       3.699   3.810  16.614  0.00  0.00    +0.000 A 
ATOM      3  C   UNL     1       3.114   3.262  17.737  0.00  0.00    +0.000 A 
ATOM      4  C   UNL     1       3.742   3.260  18.962  0.00  0.00    +0.000 A 
ATOM      5  C   UNL     1       4.989   3.815  19.142  0.00  0.00    +0.000 A 
ATOM      6  C   UNL     1       5.595   4.386  18.011  0.00  0.00    +0.000 A 
ATOM      7  O   UNL     1       2.988   2.667  19.925  0.00  0.00    +0.000 OA
ATOM      8  C   UNL     1       1.809   2.306  19.173  0.00  0.00    +0.000 C 
ATOM      9  O   UNL     1       1.894   2.667  17.778  0.00  0.00    +0.000 OA
ENDROOT
BRANCH   6  10
ATOM     10  N   UNL     1       6.868   5.047  18.210  0.00  0.00    +0.000 N 
ATOM     11  O   UNL     1       6.829   6.242  18.524  0.00  0.00    +0.000 OA
ATOM     12  O   UNL     1       7.882   4.339  18.152  0.00  0.00    +0.000 OA
ENDBRANCH   6  10
BRANCH   1  13
ATOM     13  C   UNL     1       5.663   4.914  15.543  0.00  0.00    +0.000 C 
ATOM     14  O   UNL     1       5.618   6.079  15.191  0.00  0.00    +0.000 OA
BRANCH  13  16
ATOM     15  C   UNL     1       6.207   3.843  13.531  0.00  0.00    +0.000 C 
ATOM     16  O   UNL     1       6.358   3.915  14.950  0.00  0.00    +0.000 OA
ENDBRANCH  13  16
ENDBRANCH   1  13
TORSDOF 3
ENDMDL
MODEL 3
REMARK VINA RESULT:      -6.6      2.091      5.668
REMARK  Name = 
REMARK  4 active torsions:
REMARK  status: ('A' for Active; 'I' for Inactive)
REMARK    1  A    between atoms: C_1  and  O_2
REMARK    2  A    between atoms: O_2  and  C_3
REMARK    3  A    between atoms: C_3  and  C_5
REMARK    4  A    between atoms: C_10  and  N_11
REMARK                            x       y       z     vdW  Elec       q    Type
REMARK                         _______ _______ _______ _____ _____    ______ ____
ROOT
ATOM      1  C   UNL     1       3.521   4.432  19.278  0.00  0.00    +0.000 A 
ATOM      2  C   UNL     1       4.851   4.857  19.439  0.00  0.00    +0.000 A 
ATOM      3  C   UNL     1       5.719   4.700  18.377  0.00  0.00    +0.000 A 
ATOM      4  C   UNL     1       5.323   4.136  17.186  0.00  0.00    +0.000 A 
ATOM      5  C   UNL     1       4.032   3.703  16.980  0.00  0.00    +0.000 A 
ATOM      6  C   UNL     1       3.133   3.863  18.047  0.00  0.00    +0.000 A 
ATOM      7  O   UNL     1       6.337   4.076  16.284  0.00  0.00    +0.000 OA
ATOM      8  C   UNL     1       7.414   4.677  17.035  0.00  0.00    +0.000 C 
ATOM      9  O   UNL     1       7.029   5.059  18.372  0.00  0.00    +0.000 OA
ENDROOT
BRANCH   6  10
ATOM     10  N   UNL     1       1.755   3.490  17.807  0.00  0.00    +0.000 N 
ATOM     11  O   UNL     1       1.029   4.348  17.292  0.00  0.00    +0.000 OA
ATOM     12  O   UNL     1       1.444   2.315  18.041  0.00  0.00    +0.000 OA
ENDBRANCH   6  10
BRANCH   1  13
ATOM     13  C   UNL     1       2.586   4.511  20.425  0.00  0.00    +0.000 C 
ATOM     14  O   UNL     1       1.833   5.447  20.620  0.00  0.00    +0.000 OA
BRANCH  13  16
ATOM     15  C   UNL     1       1.435   2.784  21.514  0.00  0.00    +0.000 C 
ATOM     16  O   UNL     1       2.685   3.383  21.167  0.00  0.00    +0.000 OA
ENDBRANCH  13  16
ENDBRANCH   1  13
TORSDOF 3
ENDMDL
MODEL 4
REMARK VINA RESULT:      -6.6      1.677      2.905
REMARK  Name = 
REMARK  4 active torsions:
REMARK  status: ('A' for Active; 'I' for Inactive)
REMARK    1  A    between atoms: C_1  and  O_2
REMARK    2  A    between atoms: O_2  and  C_3
REMARK    3  A    between atoms: C_3  and  C_5
REMARK    4  A    between atoms: C_10  and  N_11
REMARK                            x       y       z     vdW  Elec       q    Type
REMARK                         _______ _______ _______ _____ _____    ______ ____
ROOT
ATOM      1  C   UNL     1       5.889   4.453  17.902  0.00  0.00    +0.000 A 
ATOM      2  C   UNL     1       5.263   4.140  19.122  0.00  0.00    +0.000 A 
ATOM      3  C   UNL     1       3.921   3.820  19.103  0.00  0.00    +0.000 A 
ATOM      4  C   UNL     1       3.188   3.811  17.938  0.00  0.00    +0.000 A 
ATOM      5  C   UNL     1       3.754   4.111  16.719  0.00  0.00    +0.000 A 
ATOM      6  C   UNL     1       5.122   4.430  16.719  0.00  0.00    +0.000 A 
ATOM      7  O   UNL     1       1.889   3.472  18.150  0.00  0.00    +0.000 OA
ATOM      8  C   UNL     1       1.887   3.258  19.579  0.00  0.00    +0.000 C 
ATOM      9  O   UNL     1       3.174   3.495  20.189  0.00  0.00    +0.000 OA
ENDROOT
BRANCH   6  10
ATOM     10  N   UNL     1       5.743   4.662  15.432  0.00  0.00    +0.000 N 
ATOM     11  O   UNL     1       6.156   3.665  14.827  0.00  0.00    +0.000 OA
ATOM     12  O   UNL     1       5.718   5.821  14.999  0.00  0.00    +0.000 OA
ENDBRANCH   6  10
BRANCH   1  13
ATOM     13  C   UNL     1       7.308   4.880  17.900  0.00  0.00    +0.000 C 
ATOM     14  O   UNL     1       8.207   4.234  17.395  0.00  0.00    +0.000 OA
BRANCH  13  16
ATOM     15  C   UNL     1       7.551   7.192  17.603  0.00  0.00    +0.000 C 
ATOM     16  O   UNL     1       7.417   6.088  18.500  0.00  0.00    +0.000 OA
ENDBRANCH  13  16
ENDBRANCH   1  13
TORSDOF 3
ENDMDL
MODEL 5
REMARK VINA RESULT:      -6.6      1.290      1.581
REMARK  Name = 
REMARK  4 active torsions:
REMARK  status: ('A' for Active; 'I' for Inactive)
REMARK    1  A    between atoms: C_1  and  O_2
REMARK    2  A    between atoms: O_2  and  C_3
REMARK    3  A    between atoms: C_3  and  C_5
REMARK    4  A    between atoms: C_10  and  N_11
REMARK                            x       y       z     vdW  Elec       q    Type
REMARK                         _______ _______ _______ _____ _____    ______ ____
ROOT
ATOM      1  C   UNL     1       4.879   5.003  17.267  0.00  0.00    +0.000 A 
ATOM      2  C   UNL     1       3.557   4.634  16.961  0.00  0.00    +0.000 A 
ATOM      3  C   UNL     1       2.933   3.710  17.774  0.00  0.00    +0.000 A 
ATOM      4  C   UNL     1       3.568   3.140  18.855  0.00  0.00    +0.000 A 
ATOM      5  C   UNL     1       4.861   3.467  19.195  0.00  0.00    +0.000 A 
ATOM      6  C   UNL     1       5.508   4.414  18.383  0.00  0.00    +0.000 A 
ATOM      7  O   UNL     1       2.771   2.256  19.511  0.00  0.00    +0.000 OA
ATOM      8  C   UNL     1       1.559   2.340  18.731  0.00  0.00    +0.000 C 
ATOM      9  O   UNL     1       1.665   3.251  17.616  0.00  0.00    +0.000 OA
ENDROOT
BRANCH   6  10
ATOM     10  N   UNL     1       6.837   4.826  18.785  0.00  0.00    +0.000 N 
ATOM     11  O   UNL     1       6.920   5.503  19.816  0.00  0.00    +0.000 OA
ATOM     12  O   UNL     1       7.784   4.383  18.123  0.00  0.00    +0.000 OA
ENDBRANCH   6  10
BRANCH   1  13
ATOM     13  C   UNL     1       5.603   5.930  16.367  0.00  0.00    +0.000 C 
ATOM     14  O   UNL     1       6.089   6.986  16.732  0.00  0.00    +0.000 OA
BRANCH  13  16
ATOM     15  C   UNL     1       6.896   4.749  14.810  0.00  0.00    +0.000 C 
ATOM     16  O   UNL     1       5.663   5.399  15.124  0.00  0.00    +0.000 OA
ENDBRANCH  13  16
ENDBRANCH   1  13
TORSDOF 3
ENDMDL
MODEL 6
REMARK VINA RESULT:      -6.5      1.437      1.917
REMARK  Name = 
REMARK  4 active torsions:
REMARK  status: ('A' for Active; 'I' for Inactive)
REMARK    1  A    between atoms: C_1  and  O_2
REMARK    2  A    between atoms: O_2  and  C_3
REMARK    3  A    between atoms: C_3  and  C_5
REMARK    4  A    between atoms: C_10  and  N_11
REMARK                            x       y       z     vdW  Elec       q    Type
REMARK                         _______ _______ _______ _____ _____    ______ ____
ROOT
ATOM      1  C   UNL     1       5.345   5.641  17.434  0.00  0.00    +0.000 A 
ATOM      2  C   UNL     1       3.981   5.616  17.097  0.00  0.00    +0.000 A 
ATOM      3  C   UNL     1       3.140   4.813  17.840  0.00  0.00    +0.000 A 
ATOM      4  C   UNL     1       3.599   4.039  18.882  0.00  0.00    +0.000 A 
ATOM      5  C   UNL     1       4.925   4.028  19.250  0.00  0.00    +0.000 A 
ATOM      6  C   UNL     1       5.794   4.847  18.510  0.00  0.00    +0.000 A 
ATOM      7  O   UNL     1       2.602   3.327  19.471  0.00  0.00    +0.000 OA
ATOM      8  C   UNL     1       1.461   3.748  18.692  0.00  0.00    +0.000 C 
ATOM      9  O   UNL     1       1.803   4.679  17.643  0.00  0.00    +0.000 OA
ENDROOT
BRANCH   6  10
ATOM     10  N   UNL     1       7.173   4.906  18.946  0.00  0.00    +0.000 N 
ATOM     11  O   UNL     1       7.387   5.440  20.041  0.00  0.00    +0.000 OA
ATOM     12  O   UNL     1       8.009   4.329  18.239  0.00  0.00    +0.000 OA
ENDBRANCH   6  10
BRANCH   1  13
ATOM     13  C   UNL     1       6.287   6.428  16.605  0.00  0.00    +0.000 C 
ATOM     14  O   UNL     1       6.821   6.001  15.597  0.00  0.00    +0.000 OA
BRANCH  13  16
ATOM     15  C   UNL     1       7.733   8.005  17.562  0.00  0.00    +0.000 C 
ATOM     16  O   UNL     1       6.415   7.672  17.123  0.00  0.00    +0.000 OA
ENDBRANCH  13  16
ENDBRANCH   1  13
TORSDOF 3
ENDMDL
MODEL 7
REMARK VINA RESULT:      -6.5      2.060      5.039
REMARK  Name = 
REMARK  4 active torsions:
REMARK  status: ('A' for Active; 'I' for Inactive)
REMARK    1  A    between atoms: C_1  and  O_2
REMARK    2  A    between atoms: O_2  and  C_3
REMARK    3  A    between atoms: C_3  and  C_5
REMARK    4  A    between atoms: C_10  and  N_11
REMARK                            x       y       z     vdW  Elec       q    Type
REMARK                         _______ _______ _______ _____ _____    ______ ____
ROOT
ATOM      1  C   UNL     1       3.226   4.665  17.525  0.00  0.00    +0.000 A 
ATOM      2  C   UNL     1       4.102   3.830  16.808  0.00  0.00    +0.000 A 
ATOM      3  C   UNL     1       5.260   4.382  16.300  0.00  0.00    +0.000 A 
ATOM      4  C   UNL     1       5.569   5.713  16.465  0.00  0.00    +0.000 A 
ATOM      5  C   UNL     1       4.745   6.571  17.156  0.00  0.00    +0.000 A 
ATOM      6  C   UNL     1       3.565   6.024  17.688  0.00  0.00    +0.000 A 
ATOM      7  O   UNL     1       6.752   6.041  15.882  0.00  0.00    +0.000 OA
ATOM      8  C   UNL     1       7.160   4.766  15.341  0.00  0.00    +0.000 C 
ATOM      9  O   UNL     1       6.205   3.713  15.591  0.00  0.00    +0.000 OA
ENDROOT
BRANCH   6  10
ATOM     10  N   UNL     1       2.737   6.900  18.490  0.00  0.00    +0.000 N 
ATOM     11  O   UNL     1       1.982   7.665  17.877  0.00  0.00    +0.000 OA
ATOM     12  O   UNL     1       2.776   6.740  19.717  0.00  0.00    +0.000 OA
ENDBRANCH   6  10
BRANCH   1  13
ATOM     13  C   UNL     1       1.936   4.123  18.012  0.00  0.00    +0.000 C 
ATOM     14  O   UNL     1       0.903   4.155  17.369  0.00  0.00    +0.000 OA
BRANCH  13  16
ATOM     15  C   UNL     1       0.993   3.697  20.114  0.00  0.00    +0.000 C 
ATOM     16  O   UNL     1       2.112   3.570  19.235  0.00  0.00    +0.000 OA
ENDBRANCH  13  16
ENDBRANCH   1  13
TORSDOF 3
ENDMDL
MODEL 8
REMARK VINA RESULT:      -6.5      1.191      1.607
REMARK  Name = 
REMARK  4 active torsions:
REMARK  status: ('A' for Active; 'I' for Inactive)
REMARK    1  A    between atoms: C_1  and  O_2
REMARK    2  A    between atoms: O_2  and  C_3
REMARK    3  A    between atoms: C_3  and  C_5
REMARK    4  A    between atoms: C_10  and  N_11
REMARK                            x       y       z     vdW  Elec       q    Type
REMARK                         _______ _______ _______ _____ _____    ______ ____
ROOT
ATOM      1  C   UNL     1       5.104   5.647  17.562  0.00  0.00    +0.000 A 
ATOM      2  C   UNL     1       3.722   5.595  17.308  0.00  0.00    +0.000 A 
ATOM      3  C   UNL     1       2.954   4.725  18.054  0.00  0.00    +0.000 A 
ATOM      4  C   UNL     1       3.500   3.911  19.020  0.00  0.00    +0.000 A 
ATOM      5  C   UNL     1       4.847   3.923  19.305  0.00  0.00    +0.000 A 
ATOM      6  C   UNL     1       5.643   4.810  18.561  0.00  0.00    +0.000 A 
ATOM      7  O   UNL     1       2.565   3.134  19.627  0.00  0.00    +0.000 OA
ATOM      8  C   UNL     1       1.365   3.559  18.945  0.00  0.00    +0.000 C 
ATOM      9  O   UNL     1       1.612   4.558  17.933  0.00  0.00    +0.000 OA
ENDROOT
BRANCH   6  10
ATOM     10  N   UNL     1       7.045   4.891  18.914  0.00  0.00    +0.000 N 
ATOM     11  O   UNL     1       7.847   4.374  18.128  0.00  0.00    +0.000 OA
ATOM     12  O   UNL     1       7.331   5.557  19.917  0.00  0.00    +0.000 OA
ENDBRANCH   6  10
BRANCH   1  13
ATOM     13  C   UNL     1       5.968   6.510  16.723  0.00  0.00    +0.000 C 
ATOM     14  O   UNL     1       6.687   7.385  17.169  0.00  0.00    +0.000 OA
BRANCH  13  16
ATOM     15  C   UNL     1       6.697   5.059  15.034  0.00  0.00    +0.000 C 
ATOM     16  O   UNL     1       5.851   6.141  15.426  0.00  0.00    +0.000 OA
ENDBRANCH  13  16
ENDBRANCH   1  13
TORSDOF 3
ENDMDL
MODEL 9
REMARK VINA RESULT:      -6.4      1.645      3.022
REMARK  Name = 
REMARK  4 active torsions:
REMARK  status: ('A' for Active; 'I' for Inactive)
REMARK    1  A    between atoms: C_1  and  O_2
REMARK    2  A    between atoms: O_2  and  C_3
REMARK    3  A    between atoms: C_3  and  C_5
REMARK    4  A    between atoms: C_10  and  N_11
REMARK                            x       y       z     vdW  Elec       q    Type
REMARK                         _______ _______ _______ _____ _____    ______ ____
ROOT
ATOM      1  C   UNL     1       5.980   5.814  17.803  0.00  0.00    +0.000 A 
ATOM      2  C   UNL     1       4.788   5.936  18.539  0.00  0.00    +0.000 A 
ATOM      3  C   UNL     1       3.716   5.144  18.180  0.00  0.00    +0.000 A 
ATOM      4  C   UNL     1       3.780   4.260  17.128  0.00  0.00    +0.000 A 
ATOM      5  C   UNL     1       4.923   4.105  16.376  0.00  0.00    +0.000 A 
ATOM      6  C   UNL     1       6.027   4.896  16.733  0.00  0.00    +0.000 A 
ATOM      7  O   UNL     1       2.613   3.587  16.950  0.00  0.00    +0.000 OA
ATOM      8  C   UNL     1       1.808   4.139  18.015  0.00  0.00    +0.000 C 
ATOM      9  O   UNL     1       2.502   5.142  18.788  0.00  0.00    +0.000 OA
ENDROOT
BRANCH   6  10
ATOM     10  N   UNL     1       7.258   4.677  16.003  0.00  0.00    +0.000 N 
ATOM     11  O   UNL     1       7.341   5.199  14.886  0.00  0.00    +0.000 OA
ATOM     12  O   UNL     1       8.161   4.074  16.597  0.00  0.00    +0.000 OA
ENDBRANCH   6  10
BRANCH   1  13
ATOM     13  C   UNL     1       7.121   6.708  18.110  0.00  0.00    +0.000 C 
ATOM     14  O   UNL     1       7.962   6.464  18.956  0.00  0.00    +0.000 OA
BRANCH  13  16
ATOM     15  C   UNL     1       7.923   8.870  17.691  0.00  0.00    +0.000 C 
ATOM     16  O   UNL     1       7.087   7.783  17.288  0.00  0.00    +0.000 OA
ENDBRANCH  13  16
ENDBRANCH   1  13
TORSDOF 3
ENDMDL
