MODEL 1
REMARK VINA RESULT:      -9.0      0.000      0.000
REMARK  Name = 
REMARK  9 active torsions:
REMARK  status: ('A' for Active; 'I' for Inactive)
REMARK    1  A    between atoms: C_1  and  N_2
REMARK    2  A    between atoms: N_2  and  C_3
REMARK    3  A    between atoms: C_8  and  C_9
REMARK    4  A    between atoms: C_9  and  N_10
REMARK    5  A    between atoms: N_10  and  C_11
REMARK    6  A    between atoms: C_13  and  N_14
REMARK    7  A    between atoms: C_15  and  C_17
REMARK    8  A    between atoms: C_19  and  C_20
REMARK    9  A    between atoms: C_25  and  C_26
REMARK                            x       y       z     vdW  Elec       q    Type
REMARK                         _______ _______ _______ _____ _____    ______ ____
ROOT
ATOM      1  C   UNL     1       2.401   5.529  19.384  0.00  0.00    +0.000 A 
ATOM      2  C   UNL     1       3.273   5.669  18.283  0.00  0.00    +0.000 A 
ATOM      3  C   UNL     1       3.788   4.576  17.582  0.00  0.00    +0.000 A 
ATOM      4  C   UNL     1       3.412   3.300  17.988  0.00  0.00    +0.000 A 
ATOM      5  C   UNL     1       2.505   3.137  19.042  0.00  0.00    +0.000 A 
ATOM      6  C   UNL     1       1.959   4.242  19.722  0.00  0.00    +0.000 A 
ATOM      7  C   UNL     1       0.911   3.972  20.767  0.00  0.00    +0.000 C 
ENDROOT
BRANCH   3   8
ATOM      8  N   UNL     1       4.671   4.696  16.490  0.00  0.00    +0.000 N 
ATOM      9  C   UNL     1       6.058   4.667  16.521  0.00  0.00    +0.000 C 
ATOM     10  O   UNL     1       6.760   4.580  17.526  0.00  0.00    +0.000 OA
ATOM     11  H   UNL     1       4.268   4.822  15.566  0.00  0.00    +0.000 HD
BRANCH   9  12
ATOM     12  C   UNL     1       6.686   4.746  15.199  0.00  0.00    +0.000 A 
ATOM     13  C   UNL     1       6.331   3.984  14.055  0.00  0.00    +0.000 A 
ATOM     14  C   UNL     1       7.155   4.444  13.062  0.00  0.00    +0.000 A 
ATOM     15  C   UNL     1       7.298   4.136  11.628  0.00  0.00    +0.000 C 
ATOM     16  O   UNL     1       7.979   5.398  13.572  0.00  0.00    +0.000 OA
ATOM     17  N   UNL     1       7.692   5.594  14.916  0.00  0.00    +0.000 NA
ENDBRANCH   9  12
ENDBRANCH   3   8
BRANCH   1  18
ATOM     18  N   UNL     1       1.934   6.730  19.916  0.00  0.00    +0.000 N 
ATOM     19  H   UNL     1       1.897   6.678  20.926  0.00  0.00    +0.000 HD
BRANCH  18  20
ATOM     20  C   UNL     1       2.285   8.033  19.359  0.00  0.00    +0.000 C 
BRANCH  20  26
ATOM     21  C   UNL     1      -0.645  10.821  22.145  0.00  0.00    +0.000 A 
ATOM     22  N   UNL     1      -0.137  10.220  23.232  0.00  0.00    +0.000 NA
ATOM     23  C   UNL     1       0.790   9.286  23.020  0.00  0.00    +0.000 A 
ATOM     24  N   UNL     1       1.253   8.890  21.831  0.00  0.00    +0.000 NA
ATOM     25  C   UNL     1       0.725   9.456  20.738  0.00  0.00    +0.000 A 
ATOM     26  C   UNL     1       1.167   9.059  19.464  0.00  0.00    +0.000 A 
ATOM     27  C   UNL     1       0.645   9.677  18.309  0.00  0.00    +0.000 A 
ATOM     28  C   UNL     1      -0.354  10.637  18.404  0.00  0.00    +0.000 A 
ATOM     29  C   UNL     1      -0.807  11.022  19.659  0.00  0.00    +0.000 A 
ATOM     30  C   UNL     1      -0.263  10.452  20.836  0.00  0.00    +0.000 A 
BRANCH  21  32
ATOM     31  C   UNL     1      -1.006  13.137  22.721  0.00  0.00    +0.000 C 
ATOM     32  N   UNL     1      -1.587  11.861  22.329  0.00  0.00    +0.000 N 
ATOM     33  H   UNL     1      -2.131  11.948  21.475  0.00  0.00    +0.000 HD
ENDBRANCH  21  32
ENDBRANCH  20  26
ENDBRANCH  18  20
ENDBRANCH   1  18
TORSDOF 6
ENDMDL
MODEL 2
REMARK VINA RESULT:      -9.0      1.104      1.377
REMARK  Name = 
REMARK  9 active torsions:
REMARK  status: ('A' for Active; 'I' for Inactive)
REMARK    1  A    between atoms: C_1  and  N_2
REMARK    2  A    between atoms: N_2  and  C_3
REMARK    3  A    between atoms: C_8  and  C_9
REMARK    4  A    between atoms: C_9  and  N_10
REMARK    5  A    between atoms: N_10  and  C_11
REMARK    6  A    between atoms: C_13  and  N_14
REMARK    7  A    between atoms: C_15  and  C_17
REMARK    8  A    between atoms: C_19  and  C_20
REMARK    9  A    between atoms: C_25  and  C_26
REMARK                            x       y       z     vdW  Elec       q    Type
REMARK                         _______ _______ _______ _____ _____    ______ ____
ROOT
ATOM      1  C   UNL     1       2.313   4.617  19.857  0.00  0.00    +0.000 A 
ATOM      2  C   UNL     1       3.074   4.858  18.694  0.00  0.00    +0.000 A 
ATOM      3  C   UNL     1       3.943   3.911  18.147  0.00  0.00    +0.000 A 
ATOM      4  C   UNL     1       4.048   2.676  18.780  0.00  0.00    +0.000 A 
ATOM      5  C   UNL     1       3.263   2.392  19.903  0.00  0.00    +0.000 A 
ATOM      6  C   UNL     1       2.361   3.337  20.429  0.00  0.00    +0.000 A 
ATOM      7  C   UNL     1       1.482   2.904  21.570  0.00  0.00    +0.000 C 
ENDROOT
BRANCH   3   8
ATOM      8  N   UNL     1       4.721   4.140  16.995  0.00  0.00    +0.000 N 
ATOM      9  C   UNL     1       5.951   4.776  16.923  0.00  0.00    +0.000 C 
ATOM     10  O   UNL     1       6.555   5.298  17.856  0.00  0.00    +0.000 OA
ATOM     11  H   UNL     1       4.357   3.812  16.105  0.00  0.00    +0.000 HD
BRANCH   9  12
ATOM     12  C   UNL     1       6.538   4.790  15.579  0.00  0.00    +0.000 A 
ATOM     13  C   UNL     1       6.140   3.982  14.482  0.00  0.00    +0.000 A 
ATOM     14  C   UNL     1       6.936   4.389  13.444  0.00  0.00    +0.000 A 
ATOM     15  C   UNL     1       7.030   4.016  12.021  0.00  0.00    +0.000 C 
ATOM     16  O   UNL     1       7.786   5.355  13.885  0.00  0.00    +0.000 OA
ATOM     17  N   UNL     1       7.543   5.613  15.227  0.00  0.00    +0.000 NA
ENDBRANCH   9  12
ENDBRANCH   3   8
BRANCH   1  18
ATOM     18  N   UNL     1       1.450   5.651  20.218  0.00  0.00    +0.000 N 
ATOM     19  H   UNL     1       0.578   5.278  20.571  0.00  0.00    +0.000 HD
BRANCH  18  20
ATOM     20  C   UNL     1       1.913   6.886  20.844  0.00  0.00    +0.000 C 
BRANCH  20  26
ATOM     21  C   UNL     1      -0.119  11.356  20.762  0.00  0.00    +0.000 A 
ATOM     22  N   UNL     1      -0.511  11.170  22.033  0.00  0.00    +0.000 NA
ATOM     23  C   UNL     1      -0.186  10.007  22.594  0.00  0.00    +0.000 A 
ATOM     24  N   UNL     1       0.484   9.010  22.010  0.00  0.00    +0.000 NA
ATOM     25  C   UNL     1       0.846   9.168  20.730  0.00  0.00    +0.000 A 
ATOM     26  C   UNL     1       1.536   8.138  20.068  0.00  0.00    +0.000 A 
ATOM     27  C   UNL     1       1.956   8.312  18.733  0.00  0.00    +0.000 A 
ATOM     28  C   UNL     1       1.640   9.468  18.032  0.00  0.00    +0.000 A 
ATOM     29  C   UNL     1       0.943  10.482  18.675  0.00  0.00    +0.000 A 
ATOM     30  C   UNL     1       0.555  10.353  20.031  0.00  0.00    +0.000 A 
BRANCH  21  32
ATOM     31  C   UNL     1      -1.790  12.803  19.793  0.00  0.00    +0.000 C 
ATOM     32  N   UNL     1      -0.392  12.601  20.148  0.00  0.00    +0.000 N 
ATOM     33  H   UNL     1      -0.056  13.336  20.765  0.00  0.00    +0.000 HD
ENDBRANCH  21  32
ENDBRANCH  20  26
ENDBRANCH  18  20
ENDBRANCH   1  18
TORSDOF 6
ENDMDL
MODEL 3
REMARK VINA RESULT:      -8.9      1.775      2.587
REMARK  Name = 
REMARK  9 active torsions:
REMARK  status: ('A' for Active; 'I' for Inactive)
REMARK    1  A    between atoms: C_1  and  N_2
REMARK    2  A    between atoms: N_2  and  C_3
REMARK    3  A    between atoms: C_8  and  C_9
REMARK    4  A    between atoms: C_9  and  N_10
REMARK    5  A    between atoms: N_10  and  C_11
REMARK    6  A    between atoms: C_13  and  N_14
REMARK    7  A    between atoms: C_15  and  C_17
REMARK    8  A    between atoms: C_19  and  C_20
REMARK    9  A    between atoms: C_25  and  C_26
REMARK                            x       y       z     vdW  Elec       q    Type
REMARK                         _______ _______ _______ _____ _____    ______ ____
ROOT
ATOM      1  C   UNL     1       2.930   5.083  20.020  0.00  0.00    +0.000 A 
ATOM      2  C   UNL     1       3.677   5.282  18.840  0.00  0.00    +0.000 A 
ATOM      3  C   UNL     1       4.092   4.231  18.020  0.00  0.00    +0.000 A 
ATOM      4  C   UNL     1       3.742   2.935  18.387  0.00  0.00    +0.000 A 
ATOM      5  C   UNL     1       2.954   2.716  19.523  0.00  0.00    +0.000 A 
ATOM      6  C   UNL     1       2.506   3.781  20.326  0.00  0.00    +0.000 A 
ATOM      7  C   UNL     1       1.576   3.458  21.463  0.00  0.00    +0.000 C 
ENDROOT
BRANCH   3   8
ATOM      8  N   UNL     1       4.851   4.410  16.845  0.00  0.00    +0.000 N 
ATOM      9  C   UNL     1       6.213   4.655  16.752  0.00  0.00    +0.000 C 
ATOM     10  O   UNL     1       6.990   4.808  17.692  0.00  0.00    +0.000 OA
ATOM     11  H   UNL     1       4.364   4.361  15.955  0.00  0.00    +0.000 HD
BRANCH   9  12
ATOM     12  C   UNL     1       6.714   4.721  15.376  0.00  0.00    +0.000 A 
ATOM     13  C   UNL     1       6.251   3.952  14.277  0.00  0.00    +0.000 A 
ATOM     14  C   UNL     1       6.979   4.400  13.207  0.00  0.00    +0.000 A 
ATOM     15  C   UNL     1       6.986   4.081  11.768  0.00  0.00    +0.000 C 
ATOM     16  O   UNL     1       7.852   5.355  13.630  0.00  0.00    +0.000 OA
ATOM     17  N   UNL     1       7.692   5.562  14.993  0.00  0.00    +0.000 NA
ENDBRANCH   9  12
ENDBRANCH   3   8
BRANCH   1  18
ATOM     18  N   UNL     1       2.546   6.253  20.674  0.00  0.00    +0.000 N 
ATOM     19  H   UNL     1       3.209   6.995  20.490  0.00  0.00    +0.000 HD
BRANCH  18  20
ATOM     20  C   UNL     1       1.152   6.665  20.806  0.00  0.00    +0.000 C 
BRANCH  20  26
ATOM     21  C   UNL     1       1.438  11.044  18.603  0.00  0.00    +0.000 A 
ATOM     22  N   UNL     1       2.010  10.445  17.546  0.00  0.00    +0.000 NA
ATOM     23  C   UNL     1       2.185   9.126  17.631  0.00  0.00    +0.000 A 
ATOM     24  N   UNL     1       1.853   8.352  18.667  0.00  0.00    +0.000 NA
ATOM     25  C   UNL     1       1.317   8.946  19.742  0.00  0.00    +0.000 A 
ATOM     26  C   UNL     1       0.968   8.174  20.864  0.00  0.00    +0.000 A 
ATOM     27  C   UNL     1       0.367   8.785  21.984  0.00  0.00    +0.000 A 
ATOM     28  C   UNL     1       0.169  10.158  22.026  0.00  0.00    +0.000 A 
ATOM     29  C   UNL     1       0.528  10.929  20.928  0.00  0.00    +0.000 A 
ATOM     30  C   UNL     1       1.086  10.333  19.770  0.00  0.00    +0.000 A 
BRANCH  21  32
ATOM     31  C   UNL     1       2.334  13.243  18.169  0.00  0.00    +0.000 C 
ATOM     32  N   UNL     1       1.178  12.434  18.529  0.00  0.00    +0.000 N 
ATOM     33  H   UNL     1       0.409  12.576  17.879  0.00  0.00    +0.000 HD
ENDBRANCH  21  32
ENDBRANCH  20  26
ENDBRANCH  18  20
ENDBRANCH   1  18
TORSDOF 6
ENDMDL
MODEL 4
REMARK VINA RESULT:      -8.9      1.413      2.091
REMARK  Name = 
REMARK  9 active torsions:
REMARK  status: ('A' for Active; 'I' for Inactive)
REMARK    1  A    between atoms: C_1  and  N_2
REMARK    2  A    between atoms: N_2  and  C_3
REMARK    3  A    between atoms: C_8  and  C_9
REMARK    4  A    between atoms: C_9  and  N_10
REMARK    5  A    between atoms: N_10  and  C_11
REMARK    6  A    between atoms: C_13  and  N_14
REMARK    7  A    between atoms: C_15  and  C_17
REMARK    8  A    between atoms: C_19  and  C_20
REMARK    9  A    between atoms: C_25  and  C_26
REMARK                            x       y       z     vdW  Elec       q    Type
REMARK                         _______ _______ _______ _____ _____    ______ ____
ROOT
ATOM      1  C   UNL     1       2.613   4.994  20.185  0.00  0.00    +0.000 A 
ATOM      2  C   UNL     1       3.387   5.240  19.031  0.00  0.00    +0.000 A 
ATOM      3  C   UNL     1       4.011   4.222  18.306  0.00  0.00    +0.000 A 
ATOM      4  C   UNL     1       3.850   2.911  18.745  0.00  0.00    +0.000 A 
ATOM      5  C   UNL     1       3.042   2.636  19.854  0.00  0.00    +0.000 A 
ATOM      6  C   UNL     1       2.384   3.661  20.560  0.00  0.00    +0.000 A 
ATOM      7  C   UNL     1       1.453   3.260  21.670  0.00  0.00    +0.000 C 
ENDROOT
BRANCH   3   8
ATOM      8  N   UNL     1       4.799   4.451  17.160  0.00  0.00    +0.000 N 
ATOM      9  C   UNL     1       6.183   4.492  17.085  0.00  0.00    +0.000 C 
ATOM     10  O   UNL     1       6.966   4.382  18.025  0.00  0.00    +0.000 OA
ATOM     11  H   UNL     1       4.318   4.610  16.279  0.00  0.00    +0.000 HD
BRANCH   9  12
ATOM     12  C   UNL     1       6.701   4.680  15.726  0.00  0.00    +0.000 A 
ATOM     13  C   UNL     1       6.319   3.944  14.574  0.00  0.00    +0.000 A 
ATOM     14  C   UNL     1       7.028   4.513  13.548  0.00  0.00    +0.000 A 
ATOM     15  C   UNL     1       7.084   4.282  12.094  0.00  0.00    +0.000 C 
ATOM     16  O   UNL     1       7.813   5.506  14.045  0.00  0.00    +0.000 OA
ATOM     17  N   UNL     1       7.615   5.617  15.414  0.00  0.00    +0.000 NA
ENDBRANCH   9  12
ENDBRANCH   3   8
BRANCH   1  18
ATOM     18  N   UNL     1       2.010   6.123  20.737  0.00  0.00    +0.000 N 
ATOM     19  H   UNL     1       2.269   6.222  21.711  0.00  0.00    +0.000 HD
BRANCH  18  20
ATOM     20  C   UNL     1       1.833   7.368  19.997  0.00  0.00    +0.000 C 
BRANCH  20  26
ATOM     21  C   UNL     1       0.089  11.950  20.283  0.00  0.00    +0.000 A 
ATOM     22  N   UNL     1       0.705  12.228  19.123  0.00  0.00    +0.000 NA
ATOM     23  C   UNL     1       1.392  11.235  18.559  0.00  0.00    +0.000 A 
ATOM     24  N   UNL     1       1.529   9.997  19.043  0.00  0.00    +0.000 NA
ATOM     25  C   UNL     1       0.951   9.721  20.219  0.00  0.00    +0.000 A 
ATOM     26  C   UNL     1       1.083   8.437  20.777  0.00  0.00    +0.000 A 
ATOM     27  C   UNL     1       0.444   8.125  21.995  0.00  0.00    +0.000 A 
ATOM     28  C   UNL     1      -0.267   9.091  22.694  0.00  0.00    +0.000 A 
ATOM     29  C   UNL     1      -0.388  10.366  22.157  0.00  0.00    +0.000 A 
ATOM     30  C   UNL     1       0.202  10.690  20.910  0.00  0.00    +0.000 A 
BRANCH  21  32
ATOM     31  C   UNL     1      -1.544  13.697  19.953  0.00  0.00    +0.000 C 
ATOM     32  N   UNL     1      -0.701  12.959  20.884  0.00  0.00    +0.000 N 
ATOM     33  H   UNL     1      -1.252  12.530  21.623  0.00  0.00    +0.000 HD
ENDBRANCH  21  32
ENDBRANCH  20  26
ENDBRANCH  18  20
ENDBRANCH   1  18
TORSDOF 6
ENDMDL
MODEL 5
REMARK VINA RESULT:      -8.8      2.709      3.773
REMARK  Name = 
REMARK  9 active torsions:
REMARK  status: ('A' for Active; 'I' for Inactive)
REMARK    1  A    between atoms: C_1  and  N_2
REMARK    2  A    between atoms: N_2  and  C_3
REMARK    3  A    between atoms: C_8  and  C_9
REMARK    4  A    between atoms: C_9  and  N_10
REMARK    5  A    between atoms: N_10  and  C_11
REMARK    6  A    between atoms: C_13  and  N_14
REMARK    7  A    between atoms: C_15  and  C_17
REMARK    8  A    between atoms: C_19  and  C_20
REMARK    9  A    between atoms: C_25  and  C_26
REMARK                            x       y       z     vdW  Elec       q    Type
REMARK                         _______ _______ _______ _____ _____    ______ ____
ROOT
ATOM      1  C   UNL     1       2.138   8.160  19.049  0.00  0.00    +0.000 A 
ATOM      2  C   UNL     1       2.934   7.753  17.957  0.00  0.00    +0.000 A 
ATOM      3  C   UNL     1       3.580   6.516  17.911  0.00  0.00    +0.000 A 
ATOM      4  C   UNL     1       3.420   5.652  18.990  0.00  0.00    +0.000 A 
ATOM      5  C   UNL     1       2.592   6.010  20.060  0.00  0.00    +0.000 A 
ATOM      6  C   UNL     1       1.912   7.242  20.085  0.00  0.00    +0.000 A 
ATOM      7  C   UNL     1       0.960   7.493  21.222  0.00  0.00    +0.000 C 
ENDROOT
BRANCH   3   8
ATOM      8  N   UNL     1       4.391   6.098  16.836  0.00  0.00    +0.000 N 
ATOM      9  C   UNL     1       5.715   5.691  16.889  0.00  0.00    +0.000 C 
ATOM     10  O   UNL     1       6.430   5.671  17.887  0.00  0.00    +0.000 OA
ATOM     11  H   UNL     1       3.978   6.091  15.907  0.00  0.00    +0.000 HD
BRANCH   9  12
ATOM     12  C   UNL     1       6.254   5.247  15.599  0.00  0.00    +0.000 A 
ATOM     13  C   UNL     1       5.623   4.364  14.685  0.00  0.00    +0.000 A 
ATOM     14  C   UNL     1       6.480   4.297  13.619  0.00  0.00    +0.000 A 
ATOM     15  C   UNL     1       6.437   3.612  12.314  0.00  0.00    +0.000 C 
ATOM     16  O   UNL     1       7.576   5.060  13.878  0.00  0.00    +0.000 OA
ATOM     17  N   UNL     1       7.442   5.661  15.121  0.00  0.00    +0.000 NA
ENDBRANCH   9  12
ENDBRANCH   3   8
BRANCH   1  18
ATOM     18  N   UNL     1       1.515   9.397  18.890  0.00  0.00    +0.000 N 
ATOM     19  H   UNL     1       2.193  10.146  18.960  0.00  0.00    +0.000 HD
BRANCH  18  20
ATOM     20  C   UNL     1       0.420   9.618  17.950  0.00  0.00    +0.000 C 
BRANCH  20  26
ATOM     21  C   UNL     1      -4.026  11.648  17.468  0.00  0.00    +0.000 A 
ATOM     22  N   UNL     1      -4.128  11.070  16.260  0.00  0.00    +0.000 NA
ATOM     23  C   UNL     1      -3.093  10.331  15.862  0.00  0.00    +0.000 A 
ATOM     24  N   UNL     1      -1.965  10.121  16.546  0.00  0.00    +0.000 NA
ATOM     25  C   UNL     1      -1.837  10.724  17.735  0.00  0.00    +0.000 A 
ATOM     26  C   UNL     1      -0.660  10.547  18.484  0.00  0.00    +0.000 A 
ATOM     27  C   UNL     1      -0.532  11.146  19.754  0.00  0.00    +0.000 A 
ATOM     28  C   UNL     1      -1.531  11.969  20.257  0.00  0.00    +0.000 A 
ATOM     29  C   UNL     1      -2.688  12.162  19.515  0.00  0.00    +0.000 A 
ATOM     30  C   UNL     1      -2.863  11.531  18.259  0.00  0.00    +0.000 A 
BRANCH  21  32
ATOM     31  C   UNL     1      -6.400  11.683  17.902  0.00  0.00    +0.000 C 
ATOM     32  N   UNL     1      -5.128  12.391  17.954  0.00  0.00    +0.000 N 
ATOM     33  H   UNL     1      -4.911  12.694  18.899  0.00  0.00    +0.000 HD
ENDBRANCH  21  32
ENDBRANCH  20  26
ENDBRANCH  18  20
ENDBRANCH   1  18
TORSDOF 6
ENDMDL
MODEL 6
REMARK VINA RESULT:      -8.7      1.328      1.976
REMARK  Name = 
REMARK  9 active torsions:
REMARK  status: ('A' for Active; 'I' for Inactive)
REMARK    1  A    between atoms: C_1  and  N_2
REMARK    2  A    between atoms: N_2  and  C_3
REMARK    3  A    between atoms: C_8  and  C_9
REMARK    4  A    between atoms: C_9  and  N_10
REMARK    5  A    between atoms: N_10  and  C_11
REMARK    6  A    between atoms: C_13  and  N_14
REMARK    7  A    between atoms: C_15  and  C_17
REMARK    8  A    between atoms: C_19  and  C_20
REMARK    9  A    between atoms: C_25  and  C_26
REMARK                            x       y       z     vdW  Elec       q    Type
REMARK                         _______ _______ _______ _____ _____    ______ ____
ROOT
ATOM      1  C   UNL     1       2.840   4.611  19.870  0.00  0.00    +0.000 A 
ATOM      2  C   UNL     1       3.670   4.867  18.757  0.00  0.00    +0.000 A 
ATOM      3  C   UNL     1       3.851   3.950  17.720  0.00  0.00    +0.000 A 
ATOM      4  C   UNL     1       3.173   2.736  17.792  0.00  0.00    +0.000 A 
ATOM      5  C   UNL     1       2.301   2.481  18.857  0.00  0.00    +0.000 A 
ATOM      6  C   UNL     1       2.093   3.424  19.882  0.00  0.00    +0.000 A 
ATOM      7  C   UNL     1       1.058   3.106  20.925  0.00  0.00    +0.000 C 
ENDROOT
BRANCH   3   8
ATOM      8  N   UNL     1       4.686   4.183  16.609  0.00  0.00    +0.000 N 
ATOM      9  C   UNL     1       6.013   4.586  16.623  0.00  0.00    +0.000 C 
ATOM     10  O   UNL     1       6.679   4.858  17.619  0.00  0.00    +0.000 OA
ATOM     11  H   UNL     1       4.290   4.049  15.683  0.00  0.00    +0.000 HD
BRANCH   9  12
ATOM     12  C   UNL     1       6.625   4.670  15.293  0.00  0.00    +0.000 A 
ATOM     13  C   UNL     1       6.238   3.933  14.144  0.00  0.00    +0.000 A 
ATOM     14  C   UNL     1       7.059   4.389  13.146  0.00  0.00    +0.000 A 
ATOM     15  C   UNL     1       7.176   4.098  11.706  0.00  0.00    +0.000 C 
ATOM     16  O   UNL     1       7.911   5.317  13.659  0.00  0.00    +0.000 OA
ATOM     17  N   UNL     1       7.646   5.499  15.009  0.00  0.00    +0.000 NA
ENDBRANCH   9  12
ENDBRANCH   3   8
BRANCH   1  18
ATOM     18  N   UNL     1       2.727   5.668  20.771  0.00  0.00    +0.000 N 
ATOM     19  H   UNL     1       3.629   6.098  20.927  0.00  0.00    +0.000 HD
BRANCH  18  20
ATOM     20  C   UNL     1       1.580   6.571  20.792  0.00  0.00    +0.000 C 
BRANCH  20  26
ATOM     21  C   UNL     1       0.484  11.158  19.421  0.00  0.00    +0.000 A 
ATOM     22  N   UNL     1      -0.274  11.276  20.523  0.00  0.00    +0.000 NA
ATOM     23  C   UNL     1      -0.332  10.214  21.325  0.00  0.00    +0.000 A 
ATOM     24  N   UNL     1       0.285   9.045  21.131  0.00  0.00    +0.000 NA
ATOM     25  C   UNL     1       1.013   8.903  20.015  0.00  0.00    +0.000 A 
ATOM     26  C   UNL     1       1.666   7.684  19.759  0.00  0.00    +0.000 A 
ATOM     27  C   UNL     1       2.466   7.539  18.606  0.00  0.00    +0.000 A 
ATOM     28  C   UNL     1       2.570   8.565  17.678  0.00  0.00    +0.000 A 
ATOM     29  C   UNL     1       1.914   9.765  17.916  0.00  0.00    +0.000 A 
ATOM     30  C   UNL     1       1.145   9.955  19.091  0.00  0.00    +0.000 A 
BRANCH  21  32
ATOM     31  C   UNL     1      -0.622  12.994  18.313  0.00  0.00    +0.000 C 
ATOM     32  N   UNL     1       0.621  12.283  18.574  0.00  0.00    +0.000 N 
ATOM     33  H   UNL     1       1.322  12.898  18.978  0.00  0.00    +0.000 HD
ENDBRANCH  21  32
ENDBRANCH  20  26
ENDBRANCH  18  20
ENDBRANCH   1  18
TORSDOF 6
ENDMDL
MODEL 7
REMARK VINA RESULT:      -8.5      4.849      7.087
REMARK  Name = 
REMARK  9 active torsions:
REMARK  status: ('A' for Active; 'I' for Inactive)
REMARK    1  A    between atoms: C_1  and  N_2
REMARK    2  A    between atoms: N_2  and  C_3
REMARK    3  A    between atoms: C_8  and  C_9
REMARK    4  A    between atoms: C_9  and  N_10
REMARK    5  A    between atoms: N_10  and  C_11
REMARK    6  A    between atoms: C_13  and  N_14
REMARK    7  A    between atoms: C_15  and  C_17
REMARK    8  A    between atoms: C_19  and  C_20
REMARK    9  A    between atoms: C_25  and  C_26
REMARK                            x       y       z     vdW  Elec       q    Type
REMARK                         _______ _______ _______ _____ _____    ______ ____
ROOT
ATOM      1  C   UNL     1       5.922   6.590  17.543  0.00  0.00    +0.000 A 
ATOM      2  C   UNL     1       6.581   7.818  17.321  0.00  0.00    +0.000 A 
ATOM      3  C   UNL     1       7.785   8.154  17.943  0.00  0.00    +0.000 A 
ATOM      4  C   UNL     1       8.356   7.229  18.812  0.00  0.00    +0.000 A 
ATOM      5  C   UNL     1       7.749   5.982  19.007  0.00  0.00    +0.000 A 
ATOM      6  C   UNL     1       6.555   5.632  18.349  0.00  0.00    +0.000 A 
ATOM      7  C   UNL     1       6.037   4.233  18.536  0.00  0.00    +0.000 C 
ENDROOT
BRANCH   3   8
ATOM      8  N   UNL     1       8.451   9.381  17.744  0.00  0.00    +0.000 N 
ATOM      9  C   UNL     1       9.016  10.199  18.711  0.00  0.00    +0.000 C 
ATOM     10  O   UNL     1       8.989  10.013  19.925  0.00  0.00    +0.000 OA
ATOM     11  H   UNL     1       8.534   9.725  16.792  0.00  0.00    +0.000 HD
BRANCH   9  12
ATOM     12  C   UNL     1       9.701  11.377  18.170  0.00  0.00    +0.000 A 
ATOM     13  C   UNL     1       9.238  12.717  18.228  0.00  0.00    +0.000 A 
ATOM     14  C   UNL     1      10.233  13.454  17.643  0.00  0.00    +0.000 A 
ATOM     15  C   UNL     1      10.435  14.895  17.410  0.00  0.00    +0.000 C 
ATOM     16  O   UNL     1      11.222  12.618  17.226  0.00  0.00    +0.000 OA
ATOM     17  N   UNL     1      10.895  11.309  17.553  0.00  0.00    +0.000 NA
ENDBRANCH   9  12
ENDBRANCH   3   8
BRANCH   1  18
ATOM     18  N   UNL     1       4.768   6.400  16.784  0.00  0.00    +0.000 N 
ATOM     19  H   UNL     1       4.659   5.422  16.546  0.00  0.00    +0.000 HD
BRANCH  18  20
ATOM     20  C   UNL     1       3.531   7.137  17.025  0.00  0.00    +0.000 C 
BRANCH  20  26
ATOM     21  C   UNL     1       1.476   3.509  19.619  0.00  0.00    +0.000 A 
ATOM     22  N   UNL     1       1.718   2.677  18.593  0.00  0.00    +0.000 NA
ATOM     23  C   UNL     1       2.318   3.202  17.526  0.00  0.00    +0.000 A 
ATOM     24  N   UNL     1       2.694   4.476  17.380  0.00  0.00    +0.000 NA
ATOM     25  C   UNL     1       2.423   5.323  18.382  0.00  0.00    +0.000 A 
ATOM     26  C   UNL     1       2.783   6.678  18.267  0.00  0.00    +0.000 A 
ATOM     27  C   UNL     1       2.537   7.568  19.332  0.00  0.00    +0.000 A 
ATOM     28  C   UNL     1       1.882   7.143  20.480  0.00  0.00    +0.000 A 
ATOM     29  C   UNL     1       1.508   5.810  20.593  0.00  0.00    +0.000 A 
ATOM     30  C   UNL     1       1.789   4.884  19.558  0.00  0.00    +0.000 A 
BRANCH  21  32
ATOM     31  C   UNL     1       1.856   2.477  21.767  0.00  0.00    +0.000 C 
ATOM     32  N   UNL     1       0.895   2.977  20.795  0.00  0.00    +0.000 N 
ATOM     33  H   UNL     1       0.295   3.691  21.200  0.00  0.00    +0.000 HD
ENDBRANCH  21  32
ENDBRANCH  20  26
ENDBRANCH  18  20
ENDBRANCH   1  18
TORSDOF 6
ENDMDL
MODEL 8
REMARK VINA RESULT:      -8.5      3.729     10.068
REMARK  Name = 
REMARK  9 active torsions:
REMARK  status: ('A' for Active; 'I' for Inactive)
REMARK    1  A    between atoms: C_1  and  N_2
REMARK    2  A    between atoms: N_2  and  C_3
REMARK    3  A    between atoms: C_8  and  C_9
REMARK    4  A    between atoms: C_9  and  N_10
REMARK    5  A    between atoms: N_10  and  C_11
REMARK    6  A    between atoms: C_13  and  N_14
REMARK    7  A    between atoms: C_15  and  C_17
REMARK    8  A    between atoms: C_19  and  C_20
REMARK    9  A    between atoms: C_25  and  C_26
REMARK                            x       y       z     vdW  Elec       q    Type
REMARK                         _______ _______ _______ _____ _____    ______ ____
ROOT
ATOM      1  C   UNL     1       1.814   8.230  19.826  0.00  0.00    +0.000 A 
ATOM      2  C   UNL     1       0.776   8.853  20.551  0.00  0.00    +0.000 A 
ATOM      3  C   UNL     1      -0.012   9.876  20.018  0.00  0.00    +0.000 A 
ATOM      4  C   UNL     1       0.241  10.285  18.712  0.00  0.00    +0.000 A 
ATOM      5  C   UNL     1       1.229   9.646  17.954  0.00  0.00    +0.000 A 
ATOM      6  C   UNL     1       1.995   8.590  18.483  0.00  0.00    +0.000 A 
ATOM      7  C   UNL     1       2.956   7.892  17.559  0.00  0.00    +0.000 C 
ENDROOT
BRANCH   3   8
ATOM      8  N   UNL     1      -1.043  10.519  20.732  0.00  0.00    +0.000 N 
ATOM      9  C   UNL     1      -0.938  11.192  21.940  0.00  0.00    +0.000 C 
ATOM     10  O   UNL     1       0.076  11.300  22.625  0.00  0.00    +0.000 OA
ATOM     11  H   UNL     1      -1.978  10.496  20.335  0.00  0.00    +0.000 HD
BRANCH   9  12
ATOM     12  C   UNL     1      -2.188  11.817  22.385  0.00  0.00    +0.000 A 
ATOM     13  C   UNL     1      -2.986  12.721  21.638  0.00  0.00    +0.000 A 
ATOM     14  C   UNL     1      -4.062  12.983  22.444  0.00  0.00    +0.000 A 
ATOM     15  C   UNL     1      -5.285  13.790  22.287  0.00  0.00    +0.000 C 
ATOM     16  O   UNL     1      -3.915  12.310  23.617  0.00  0.00    +0.000 OA
ATOM     17  N   UNL     1      -2.738  11.574  23.589  0.00  0.00    +0.000 NA
ENDBRANCH   9  12
ENDBRANCH   3   8
BRANCH   1  18
ATOM     18  N   UNL     1       2.447   7.183  20.494  0.00  0.00    +0.000 N 
ATOM     19  H   UNL     1       2.832   7.505  21.373  0.00  0.00    +0.000 HD
BRANCH  18  20
ATOM     20  C   UNL     1       1.936   5.815  20.488  0.00  0.00    +0.000 C 
BRANCH  20  26
ATOM     21  C   UNL     1       5.354   4.075  17.420  0.00  0.00    +0.000 A 
ATOM     22  N   UNL     1       6.285   4.734  18.129  0.00  0.00    +0.000 NA
ATOM     23  C   UNL     1       5.853   5.437  19.175  0.00  0.00    +0.000 A 
ATOM     24  N   UNL     1       4.584   5.553  19.577  0.00  0.00    +0.000 NA
ATOM     25  C   UNL     1       3.643   4.932  18.854  0.00  0.00    +0.000 A 
ATOM     26  C   UNL     1       2.292   5.041  19.227  0.00  0.00    +0.000 A 
ATOM     27  C   UNL     1       1.298   4.358  18.496  0.00  0.00    +0.000 A 
ATOM     28  C   UNL     1       1.625   3.625  17.363  0.00  0.00    +0.000 A 
ATOM     29  C   UNL     1       2.956   3.528  16.979  0.00  0.00    +0.000 A 
ATOM     30  C   UNL     1       3.979   4.162  17.726  0.00  0.00    +0.000 A 
BRANCH  21  32
ATOM     31  C   UNL     1       6.163   4.012  15.147  0.00  0.00    +0.000 C 
ATOM     32  N   UNL     1       5.778   3.268  16.338  0.00  0.00    +0.000 N 
ATOM     33  H   UNL     1       6.535   2.674  16.666  0.00  0.00    +0.000 HD
ENDBRANCH  21  32
ENDBRANCH  20  26
ENDBRANCH  18  20
ENDBRANCH   1  18
TORSDOF 6
ENDMDL
MODEL 9
REMARK VINA RESULT:      -8.3      2.856      4.127
REMARK  Name = 
REMARK  9 active torsions:
REMARK  status: ('A' for Active; 'I' for Inactive)
REMARK    1  A    between atoms: C_1  and  N_2
REMARK    2  A    between atoms: N_2  and  C_3
REMARK    3  A    between atoms: C_8  and  C_9
REMARK    4  A    between atoms: C_9  and  N_10
REMARK    5  A    between atoms: N_10  and  C_11
REMARK    6  A    between atoms: C_13  and  N_14
REMARK    7  A    between atoms: C_15  and  C_17
REMARK    8  A    between atoms: C_19  and  C_20
REMARK    9  A    between atoms: C_25  and  C_26
REMARK                            x       y       z     vdW  Elec       q    Type
REMARK                         _______ _______ _______ _____ _____    ______ ____
ROOT
ATOM      1  C   UNL     1       1.620   9.147  18.717  0.00  0.00    +0.000 A 
ATOM      2  C   UNL     1       2.483   8.560  17.768  0.00  0.00    +0.000 A 
ATOM      3  C   UNL     1       3.172   7.368  18.006  0.00  0.00    +0.000 A 
ATOM      4  C   UNL     1       2.986   6.737  19.232  0.00  0.00    +0.000 A 
ATOM      5  C   UNL     1       2.093   7.270  20.168  0.00  0.00    +0.000 A 
ATOM      6  C   UNL     1       1.371   8.451  19.909  0.00  0.00    +0.000 A 
ATOM      7  C   UNL     1       0.355   8.887  20.928  0.00  0.00    +0.000 C 
ENDROOT
BRANCH   3   8
ATOM      8  N   UNL     1       4.050   6.775  17.076  0.00  0.00    +0.000 N 
ATOM      9  C   UNL     1       5.337   6.314  17.308  0.00  0.00    +0.000 C 
ATOM     10  O   UNL     1       5.956   6.390  18.367  0.00  0.00    +0.000 OA
ATOM     11  H   UNL     1       3.723   6.667  16.120  0.00  0.00    +0.000 HD
BRANCH   9  12
ATOM     12  C   UNL     1       5.963   5.680  16.143  0.00  0.00    +0.000 A 
ATOM     13  C   UNL     1       5.338   4.780  15.242  0.00  0.00    +0.000 A 
ATOM     14  C   UNL     1       6.297   4.507  14.303  0.00  0.00    +0.000 A 
ATOM     15  C   UNL     1       6.322   3.697  13.072  0.00  0.00    +0.000 C 
ATOM     16  O   UNL     1       7.440   5.169  14.627  0.00  0.00    +0.000 OA
ATOM     17  N   UNL     1       7.239   5.909  15.784  0.00  0.00    +0.000 NA
ENDBRANCH   9  12
ENDBRANCH   3   8
BRANCH   1  18
ATOM     18  N   UNL     1       0.965  10.297  18.280  0.00  0.00    +0.000 N 
ATOM     19  H   UNL     1       0.960  10.339  17.268  0.00  0.00    +0.000 HD
BRANCH  18  20
ATOM     20  C   UNL     1      -0.219  10.836  18.944  0.00  0.00    +0.000 C 
BRANCH  20  26
ATOM     21  C   UNL     1      -4.961  11.906  18.254  0.00  0.00    +0.000 A 
ATOM     22  N   UNL     1      -4.940  12.610  19.397  0.00  0.00    +0.000 NA
ATOM     23  C   UNL     1      -3.781  12.650  20.052  0.00  0.00    +0.000 A 
ATOM     24  N   UNL     1      -2.645  12.051  19.682  0.00  0.00    +0.000 NA
ATOM     25  C   UNL     1      -2.666  11.314  18.564  0.00  0.00    +0.000 A 
ATOM     26  C   UNL     1      -1.500  10.650  18.145  0.00  0.00    +0.000 A 
ATOM     27  C   UNL     1      -1.501   9.904  16.947  0.00  0.00    +0.000 A 
ATOM     28  C   UNL     1      -2.662   9.760  16.200  0.00  0.00    +0.000 A 
ATOM     29  C   UNL     1      -3.822  10.399  16.618  0.00  0.00    +0.000 A 
ATOM     30  C   UNL     1      -3.834  11.195  17.789  0.00  0.00    +0.000 A 
BRANCH  21  32
ATOM     31  C   UNL     1      -6.562  13.189  16.981  0.00  0.00    +0.000 C 
ATOM     32  N   UNL     1      -6.157  11.888  17.496  0.00  0.00    +0.000 N 
ATOM     33  H   UNL     1      -6.045  11.212  16.746  0.00  0.00    +0.000 HD
ENDBRANCH  21  32
ENDBRANCH  20  26
ENDBRANCH  18  20
ENDBRANCH   1  18
TORSDOF 6
ENDMDL
