MODEL 1
REMARK VINA RESULT:      -7.9      0.000      0.000
REMARK  Name = 
REMARK  8 active torsions:
REMARK  status: ('A' for Active; 'I' for Inactive)
REMARK    1  A    between atoms: C_2  and  C_4
REMARK    2  A    between atoms: C_9  and  C_11
REMARK    3  A    between atoms: C_11  and  C_12
REMARK    4  A    between atoms: C_12  and  C_13
REMARK    5  A    between atoms: C_13  and  C_14
REMARK    6  A    between atoms: C_14  and  C_15
REMARK    7  A    between atoms: C_15  and  N_16
REMARK    8  A    between atoms: N_19  and  C_20
REMARK                            x       y       z     vdW  Elec       q    Type
REMARK                         _______ _______ _______ _____ _____    ______ ____
ROOT
ATOM      1  C   UNL     1       7.898   8.951  17.708  0.00  0.00    +0.000 C 
ENDROOT
BRANCH   1   2
ATOM      2  C   UNL     1       8.727   9.795  18.698  0.00  0.00    +0.000 C 
BRANCH   2   3
ATOM      3  C   UNL     1       9.511  10.905  17.992  0.00  0.00    +0.000 C 
BRANCH   3   9
ATOM      4  C   UNL     1      10.482  13.301  19.506  0.00  0.00    +0.000 C 
ATOM      5  C   UNL     1      10.273  14.493  20.449  0.00  0.00    +0.000 C 
ATOM      6  C   UNL     1       9.336  15.412  19.685  0.00  0.00    +0.000 C 
ATOM      7  C   UNL     1       8.512  14.480  18.809  0.00  0.00    +0.000 C 
ATOM      8  N   UNL     1       9.159  13.178  18.872  0.00  0.00    +0.000 N 
ATOM      9  C   UNL     1       8.792  12.236  17.914  0.00  0.00    +0.000 C 
ATOM     10  O   UNL     1       7.881  12.436  17.115  0.00  0.00    +0.000 OA
BRANCH   4  12
ATOM     11  N   UNL     1      10.270  11.676  21.361  0.00  0.00    +0.000 N 
ATOM     12  C   UNL     1      11.039  12.126  20.328  0.00  0.00    +0.000 C 
ATOM     13  O   UNL     1      12.167  11.673  20.150  0.00  0.00    +0.000 OA
ATOM     14  H   UNL     1      10.616  10.885  21.890  0.00  0.00    +0.000 HD
ATOM     15  H   UNL     1       9.301  11.945  21.463  0.00  0.00    +0.000 HD
ENDBRANCH   4  12
ENDBRANCH   3   9
ENDBRANCH   2   3
ENDBRANCH   1   2
BRANCH   1  16
ATOM     16  C   UNL     1       8.061   7.459  17.998  0.00  0.00    +0.000 C 
BRANCH  16  17
ATOM     17  C   UNL     1       7.330   6.501  17.050  0.00  0.00    +0.000 C 
BRANCH  17  18
ATOM     18  N   UNL     1       5.872   6.642  17.241  0.00  0.00    +0.000 NA
ATOM     19  C   UNL     1       5.067   5.759  16.362  0.00  0.00    +0.000 C 
ATOM     20  C   UNL     1       5.194   4.266  16.711  0.00  0.00    +0.000 C 
ATOM     21  N   UNL     1       4.754   4.019  18.091  0.00  0.00    +0.000 N 
ATOM     22  C   UNL     1       5.367   4.911  19.105  0.00  0.00    +0.000 C 
ATOM     23  C   UNL     1       5.445   6.393  18.638  0.00  0.00    +0.000 C 
BRANCH  21  24
ATOM     24  C   UNL     1       3.471   3.522  18.323  0.00  0.00    +0.000 A 
ATOM     25  C   UNL     1       3.317   2.165  18.654  0.00  0.00    +0.000 A 
ATOM     26  C   UNL     1       2.052   1.583  18.821  0.00  0.00    +0.000 A 
ATOM     27  C   UNL     1       0.904   2.348  18.675  0.00  0.00    +0.000 A 
ATOM     28  C   UNL     1       1.017   3.699  18.362  0.00  0.00    +0.000 A 
ATOM     29  C   UNL     1       2.280   4.265  18.179  0.00  0.00    +0.000 A 
ATOM     30  F   UNL     1       2.312   5.571  17.872  0.00  0.00    +0.000 F 
ENDBRANCH  21  24
ENDBRANCH  17  18
ENDBRANCH  16  17
ENDBRANCH   1  16
TORSDOF 8
ENDMDL
MODEL 2
REMARK VINA RESULT:      -7.6      1.688      2.229
REMARK  Name = 
REMARK  8 active torsions:
REMARK  status: ('A' for Active; 'I' for Inactive)
REMARK    1  A    between atoms: C_2  and  C_4
REMARK    2  A    between atoms: C_9  and  C_11
REMARK    3  A    between atoms: C_11  and  C_12
REMARK    4  A    between atoms: C_12  and  C_13
REMARK    5  A    between atoms: C_13  and  C_14
REMARK    6  A    between atoms: C_14  and  C_15
REMARK    7  A    between atoms: C_15  and  N_16
REMARK    8  A    between atoms: N_19  and  C_20
REMARK                            x       y       z     vdW  Elec       q    Type
REMARK                         _______ _______ _______ _____ _____    ______ ____
ROOT
ATOM      1  C   UNL     1       7.787   9.295  17.783  0.00  0.00    +0.000 C 
ENDROOT
BRANCH   1   2
ATOM      2  C   UNL     1       9.029   9.611  18.643  0.00  0.00    +0.000 C 
BRANCH   2   3
ATOM      3  C   UNL     1       9.447  11.080  18.531  0.00  0.00    +0.000 C 
BRANCH   3   9
ATOM      4  C   UNL     1      10.565  13.852  18.737  0.00  0.00    +0.000 C 
ATOM      5  C   UNL     1      11.456  14.917  19.390  0.00  0.00    +0.000 C 
ATOM      6  C   UNL     1      10.862  15.102  20.775  0.00  0.00    +0.000 C 
ATOM      7  C   UNL     1      10.244  13.753  21.113  0.00  0.00    +0.000 C 
ATOM      8  N   UNL     1      10.244  12.981  19.880  0.00  0.00    +0.000 N 
ATOM      9  C   UNL     1       9.447  11.839  19.843  0.00  0.00    +0.000 C 
ATOM     10  O   UNL     1       8.856  11.421  20.835  0.00  0.00    +0.000 OA
BRANCH   4  12
ATOM     11  N   UNL     1      10.949  13.723  16.296  0.00  0.00    +0.000 N 
ATOM     12  C   UNL     1      11.315  13.268  17.528  0.00  0.00    +0.000 C 
ATOM     13  O   UNL     1      12.130  12.355  17.636  0.00  0.00    +0.000 OA
ATOM     14  H   UNL     1      11.457  13.365  15.496  0.00  0.00    +0.000 HD
ATOM     15  H   UNL     1      10.373  14.545  16.179  0.00  0.00    +0.000 HD
ENDBRANCH   4  12
ENDBRANCH   3   9
ENDBRANCH   2   3
ENDBRANCH   1   2
BRANCH   1  16
ATOM     16  C   UNL     1       7.862   7.874  17.224  0.00  0.00    +0.000 C 
BRANCH  16  17
ATOM     17  C   UNL     1       7.424   6.750  18.169  0.00  0.00    +0.000 C 
BRANCH  17  18
ATOM     18  N   UNL     1       6.471   5.865  17.469  0.00  0.00    +0.000 NA
ATOM     19  C   UNL     1       6.298   4.541  18.116  0.00  0.00    +0.000 C 
ATOM     20  C   UNL     1       5.578   4.612  19.474  0.00  0.00    +0.000 C 
ATOM     21  N   UNL     1       4.239   5.195  19.318  0.00  0.00    +0.000 N 
ATOM     22  C   UNL     1       4.203   6.475  18.570  0.00  0.00    +0.000 C 
ATOM     23  C   UNL     1       5.126   6.468  17.317  0.00  0.00    +0.000 C 
BRANCH  21  24
ATOM     24  C   UNL     1       3.128   4.353  19.260  0.00  0.00    +0.000 A 
ATOM     25  C   UNL     1       2.899   3.609  18.090  0.00  0.00    +0.000 A 
ATOM     26  C   UNL     1       1.760   2.805  17.935  0.00  0.00    +0.000 A 
ATOM     27  C   UNL     1       0.824   2.713  18.955  0.00  0.00    +0.000 A 
ATOM     28  C   UNL     1       1.023   3.424  20.134  0.00  0.00    +0.000 A 
ATOM     29  C   UNL     1       2.151   4.236  20.272  0.00  0.00    +0.000 A 
ATOM     30  F   UNL     1       2.274   4.897  21.433  0.00  0.00    +0.000 F 
ENDBRANCH  21  24
ENDBRANCH  17  18
ENDBRANCH  16  17
ENDBRANCH   1  16
TORSDOF 8
ENDMDL
MODEL 3
REMARK VINA RESULT:      -7.5      1.776      2.629
REMARK  Name = 
REMARK  8 active torsions:
REMARK  status: ('A' for Active; 'I' for Inactive)
REMARK    1  A    between atoms: C_2  and  C_4
REMARK    2  A    between atoms: C_9  and  C_11
REMARK    3  A    between atoms: C_11  and  C_12
REMARK    4  A    between atoms: C_12  and  C_13
REMARK    5  A    between atoms: C_13  and  C_14
REMARK    6  A    between atoms: C_14  and  C_15
REMARK    7  A    between atoms: C_15  and  N_16
REMARK    8  A    between atoms: N_19  and  C_20
REMARK                            x       y       z     vdW  Elec       q    Type
REMARK                         _______ _______ _______ _____ _____    ______ ____
ROOT
ATOM      1  C   UNL     1       8.530   9.531  18.544  0.00  0.00    +0.000 C 
ENDROOT
BRANCH   1   2
ATOM      2  C   UNL     1       9.069  10.710  17.707  0.00  0.00    +0.000 C 
BRANCH   2   3
ATOM      3  C   UNL     1       9.617  11.837  18.588  0.00  0.00    +0.000 C 
BRANCH   3   9
ATOM      4  C   UNL     1       9.457  14.822  18.386  0.00  0.00    +0.000 C 
ATOM      5  C   UNL     1       9.548  16.142  17.609  0.00  0.00    +0.000 C 
ATOM      6  C   UNL     1      11.010  16.239  17.209  0.00  0.00    +0.000 C 
ATOM      7  C   UNL     1      11.470  14.794  17.081  0.00  0.00    +0.000 C 
ATOM      8  N   UNL     1      10.417  13.974  17.660  0.00  0.00    +0.000 N 
ATOM      9  C   UNL     1      10.729  12.649  17.956  0.00  0.00    +0.000 C 
ATOM     10  O   UNL     1      11.804  12.145  17.641  0.00  0.00    +0.000 OA
BRANCH   4  12
ATOM     11  N   UNL     1       7.380  14.054  17.282  0.00  0.00    +0.000 N 
ATOM     12  C   UNL     1       7.979  14.403  18.457  0.00  0.00    +0.000 C 
ATOM     13  O   UNL     1       7.321  14.478  19.491  0.00  0.00    +0.000 OA
ATOM     14  H   UNL     1       6.415  13.750  17.322  0.00  0.00    +0.000 HD
ATOM     15  H   UNL     1       7.914  13.873  16.443  0.00  0.00    +0.000 HD
ENDBRANCH   4  12
ENDBRANCH   3   9
ENDBRANCH   2   3
ENDBRANCH   1   2
BRANCH   1  16
ATOM     16  C   UNL     1       7.899   8.470  17.643  0.00  0.00    +0.000 C 
BRANCH  16  17
ATOM     17  C   UNL     1       7.871   7.041  18.197  0.00  0.00    +0.000 C 
BRANCH  17  18
ATOM     18  N   UNL     1       6.958   6.217  17.379  0.00  0.00    +0.000 NA
ATOM     19  C   UNL     1       6.763   4.842  17.901  0.00  0.00    +0.000 C 
ATOM     20  C   UNL     1       5.979   4.795  19.224  0.00  0.00    +0.000 C 
ATOM     21  N   UNL     1       4.645   5.386  19.055  0.00  0.00    +0.000 N 
ATOM     22  C   UNL     1       4.637   6.726  18.418  0.00  0.00    +0.000 C 
ATOM     23  C   UNL     1       5.618   6.827  17.215  0.00  0.00    +0.000 C 
BRANCH  21  24
ATOM     24  C   UNL     1       3.543   4.549  18.872  0.00  0.00    +0.000 A 
ATOM     25  C   UNL     1       3.526   3.680  17.769  0.00  0.00    +0.000 A 
ATOM     26  C   UNL     1       2.417   2.871  17.482  0.00  0.00    +0.000 A 
ATOM     27  C   UNL     1       1.297   2.900  18.302  0.00  0.00    +0.000 A 
ATOM     28  C   UNL     1       1.284   3.738  19.412  0.00  0.00    +0.000 A 
ATOM     29  C   UNL     1       2.386   4.553  19.679  0.00  0.00    +0.000 A 
ATOM     30  F   UNL     1       2.299   5.340  20.763  0.00  0.00    +0.000 F 
ENDBRANCH  21  24
ENDBRANCH  17  18
ENDBRANCH  16  17
ENDBRANCH   1  16
TORSDOF 8
ENDMDL
MODEL 4
REMARK VINA RESULT:      -7.4      1.731      2.086
REMARK  Name = 
REMARK  8 active torsions:
REMARK  status: ('A' for Active; 'I' for Inactive)
REMARK    1  A    between atoms: C_2  and  C_4
REMARK    2  A    between atoms: C_9  and  C_11
REMARK    3  A    between atoms: C_11  and  C_12
REMARK    4  A    between atoms: C_12  and  C_13
REMARK    5  A    between atoms: C_13  and  C_14
REMARK    6  A    between atoms: C_14  and  C_15
REMARK    7  A    between atoms: C_15  and  N_16
REMARK    8  A    between atoms: N_19  and  C_20
REMARK                            x       y       z     vdW  Elec       q    Type
REMARK                         _______ _______ _______ _____ _____    ______ ____
ROOT
ATOM      1  C   UNL     1       8.362   8.703  18.506  0.00  0.00    +0.000 C 
ENDROOT
BRANCH   1   2
ATOM      2  C   UNL     1       8.597  10.185  18.146  0.00  0.00    +0.000 C 
BRANCH   2   3
ATOM      3  C   UNL     1       9.530  10.879  19.143  0.00  0.00    +0.000 C 
BRANCH   3   9
ATOM      4  C   UNL     1      10.521  13.286  20.626  0.00  0.00    +0.000 C 
ATOM      5  C   UNL     1      10.817  14.787  20.745  0.00  0.00    +0.000 C 
ATOM      6  C   UNL     1      11.898  15.037  19.708  0.00  0.00    +0.000 C 
ATOM      7  C   UNL     1      11.643  13.996  18.628  0.00  0.00    +0.000 C 
ATOM      8  N   UNL     1      10.678  13.058  19.180  0.00  0.00    +0.000 N 
ATOM      9  C   UNL     1      10.519  11.842  18.519  0.00  0.00    +0.000 C 
ATOM     10  O   UNL     1      11.073  11.601  17.450  0.00  0.00    +0.000 OA
BRANCH   4  12
ATOM     11  N   UNL     1       8.097  13.731  20.851  0.00  0.00    +0.000 N 
ATOM     12  C   UNL     1       9.164  13.006  21.294  0.00  0.00    +0.000 C 
ATOM     13  O   UNL     1       9.046  12.251  22.255  0.00  0.00    +0.000 OA
ATOM     14  H   UNL     1       7.194  13.534  21.265  0.00  0.00    +0.000 HD
ATOM     15  H   UNL     1       8.134  14.270  19.997  0.00  0.00    +0.000 HD
ENDBRANCH   4  12
ENDBRANCH   3   9
ENDBRANCH   2   3
ENDBRANCH   1   2
BRANCH   1  16
ATOM     16  C   UNL     1       7.657   7.972  17.364  0.00  0.00    +0.000 C 
BRANCH  16  17
ATOM     17  C   UNL     1       7.489   6.457  17.532  0.00  0.00    +0.000 C 
BRANCH  17  18
ATOM     18  N   UNL     1       6.219   6.033  16.907  0.00  0.00    +0.000 NA
ATOM     19  C   UNL     1       6.017   4.564  16.901  0.00  0.00    +0.000 C 
ATOM     20  C   UNL     1       5.783   3.973  18.302  0.00  0.00    +0.000 C 
ATOM     21  N   UNL     1       4.593   4.570  18.923  0.00  0.00    +0.000 N 
ATOM     22  C   UNL     1       4.562   6.053  18.901  0.00  0.00    +0.000 C 
ATOM     23  C   UNL     1       5.029   6.647  17.541  0.00  0.00    +0.000 C 
BRANCH  21  24
ATOM     24  C   UNL     1       3.385   3.873  18.898  0.00  0.00    +0.000 A 
ATOM     25  C   UNL     1       2.386   4.276  17.996  0.00  0.00    +0.000 A 
ATOM     26  C   UNL     1       1.121   3.671  17.974  0.00  0.00    +0.000 A 
ATOM     27  C   UNL     1       0.825   2.634  18.848  0.00  0.00    +0.000 A 
ATOM     28  C   UNL     1       1.793   2.199  19.746  0.00  0.00    +0.000 A 
ATOM     29  C   UNL     1       3.044   2.820  19.773  0.00  0.00    +0.000 A 
ATOM     30  F   UNL     1       3.926   2.352  20.669  0.00  0.00    +0.000 F 
ENDBRANCH  21  24
ENDBRANCH  17  18
ENDBRANCH  16  17
ENDBRANCH   1  16
TORSDOF 8
ENDMDL
MODEL 5
REMARK VINA RESULT:      -7.3      1.676      2.050
REMARK  Name = 
REMARK  8 active torsions:
REMARK  status: ('A' for Active; 'I' for Inactive)
REMARK    1  A    between atoms: C_2  and  C_4
REMARK    2  A    between atoms: C_9  and  C_11
REMARK    3  A    between atoms: C_11  and  C_12
REMARK    4  A    between atoms: C_12  and  C_13
REMARK    5  A    between atoms: C_13  and  C_14
REMARK    6  A    between atoms: C_14  and  C_15
REMARK    7  A    between atoms: C_15  and  N_16
REMARK    8  A    between atoms: N_19  and  C_20
REMARK                            x       y       z     vdW  Elec       q    Type
REMARK                         _______ _______ _______ _____ _____    ______ ____
ROOT
ATOM      1  C   UNL     1       8.380   8.311  18.357  0.00  0.00    +0.000 C 
ENDROOT
BRANCH   1   2
ATOM      2  C   UNL     1       8.408   9.847  18.223  0.00  0.00    +0.000 C 
BRANCH   2   3
ATOM      3  C   UNL     1       9.381  10.494  19.213  0.00  0.00    +0.000 C 
BRANCH   3   9
ATOM      4  C   UNL     1      10.349  12.841  20.804  0.00  0.00    +0.000 C 
ATOM      5  C   UNL     1      10.592  14.343  21.006  0.00  0.00    +0.000 C 
ATOM      6  C   UNL     1      11.611  14.702  19.939  0.00  0.00    +0.000 C 
ATOM      7  C   UNL     1      11.345  13.722  18.806  0.00  0.00    +0.000 C 
ATOM      8  N   UNL     1      10.444  12.712  19.340  0.00  0.00    +0.000 N 
ATOM      9  C   UNL     1      10.301  11.535  18.609  0.00  0.00    +0.000 C 
ATOM     10  O   UNL     1      10.812  11.385  17.503  0.00  0.00    +0.000 OA
BRANCH   4  12
ATOM     11  N   UNL     1       9.069  11.371  22.329  0.00  0.00    +0.000 N 
ATOM     12  C   UNL     1       9.037  12.463  21.513  0.00  0.00    +0.000 C 
ATOM     13  O   UNL     1       7.975  13.036  21.283  0.00  0.00    +0.000 OA
ATOM     14  H   UNL     1       8.218  11.132  22.822  0.00  0.00    +0.000 HD
ATOM     15  H   UNL     1       9.939  10.952  22.626  0.00  0.00    +0.000 HD
ENDBRANCH   4  12
ENDBRANCH   3   9
ENDBRANCH   2   3
ENDBRANCH   1   2
BRANCH   1  16
ATOM     16  C   UNL     1       7.506   7.687  17.269  0.00  0.00    +0.000 C 
BRANCH  16  17
ATOM     17  C   UNL     1       7.302   6.169  17.352  0.00  0.00    +0.000 C 
BRANCH  17  18
ATOM     18  N   UNL     1       5.944   5.832  16.877  0.00  0.00    +0.000 NA
ATOM     19  C   UNL     1       5.631   4.383  16.943  0.00  0.00    +0.000 C 
ATOM     20  C   UNL     1       5.503   3.849  18.380  0.00  0.00    +0.000 C 
ATOM     21  N   UNL     1       4.435   4.555  19.100  0.00  0.00    +0.000 N 
ATOM     22  C   UNL     1       4.515   6.035  19.031  0.00  0.00    +0.000 C 
ATOM     23  C   UNL     1       4.879   6.554  17.610  0.00  0.00    +0.000 C 
BRANCH  21  24
ATOM     24  C   UNL     1       3.181   3.956  19.226  0.00  0.00    +0.000 A 
ATOM     25  C   UNL     1       2.185   4.614  19.968  0.00  0.00    +0.000 A 
ATOM     26  C   UNL     1       0.930   4.031  20.199  0.00  0.00    +0.000 A 
ATOM     27  C   UNL     1       0.633   2.778  19.682  0.00  0.00    +0.000 A 
ATOM     28  C   UNL     1       1.589   2.104  18.931  0.00  0.00    +0.000 A 
ATOM     29  C   UNL     1       2.842   2.683  18.721  0.00  0.00    +0.000 A 
ATOM     30  F   UNL     1       3.716   1.972  17.992  0.00  0.00    +0.000 F 
ENDBRANCH  21  24
ENDBRANCH  17  18
ENDBRANCH  16  17
ENDBRANCH   1  16
TORSDOF 8
ENDMDL
MODEL 6
REMARK VINA RESULT:      -7.3      1.754      2.332
REMARK  Name = 
REMARK  8 active torsions:
REMARK  status: ('A' for Active; 'I' for Inactive)
REMARK    1  A    between atoms: C_2  and  C_4
REMARK    2  A    between atoms: C_9  and  C_11
REMARK    3  A    between atoms: C_11  and  C_12
REMARK    4  A    between atoms: C_12  and  C_13
REMARK    5  A    between atoms: C_13  and  C_14
REMARK    6  A    between atoms: C_14  and  C_15
REMARK    7  A    between atoms: C_15  and  N_16
REMARK    8  A    between atoms: N_19  and  C_20
REMARK                            x       y       z     vdW  Elec       q    Type
REMARK                         _______ _______ _______ _____ _____    ______ ____
ROOT
ATOM      1  C   UNL     1       8.064   8.684  17.968  0.00  0.00    +0.000 C 
ENDROOT
BRANCH   1   2
ATOM      2  C   UNL     1       9.192   9.272  18.841  0.00  0.00    +0.000 C 
BRANCH   2   3
ATOM      3  C   UNL     1       8.991  10.766  19.112  0.00  0.00    +0.000 C 
BRANCH   3   9
ATOM      4  C   UNL     1      10.318  12.950  20.676  0.00  0.00    +0.000 C 
ATOM      5  C   UNL     1      10.774  14.402  20.871  0.00  0.00    +0.000 C 
ATOM      6  C   UNL     1      11.807  14.618  19.778  0.00  0.00    +0.000 C 
ATOM      7  C   UNL     1      11.378  13.688  18.653  0.00  0.00    +0.000 C 
ATOM      8  N   UNL     1      10.358  12.813  19.210  0.00  0.00    +0.000 N 
ATOM      9  C   UNL     1      10.032  11.669  18.484  0.00  0.00    +0.000 C 
ATOM     10  O   UNL     1      10.490  11.452  17.366  0.00  0.00    +0.000 OA
BRANCH   4  12
ATOM     11  N   UNL     1       8.902  11.703  22.277  0.00  0.00    +0.000 N 
ATOM     12  C   UNL     1       8.984  12.758  21.417  0.00  0.00    +0.000 C 
ATOM     13  O   UNL     1       7.993  13.444  21.179  0.00  0.00    +0.000 OA
ATOM     14  H   UNL     1       8.037  11.585  22.791  0.00  0.00    +0.000 HD
ATOM     15  H   UNL     1       9.722  11.195  22.579  0.00  0.00    +0.000 HD
ENDBRANCH   4  12
ENDBRANCH   3   9
ENDBRANCH   2   3
ENDBRANCH   1   2
BRANCH   1  16
ATOM     16  C   UNL     1       7.876   7.194  18.255  0.00  0.00    +0.000 C 
BRANCH  16  17
ATOM     17  C   UNL     1       7.194   6.374  17.154  0.00  0.00    +0.000 C 
BRANCH  17  18
ATOM     18  N   UNL     1       6.782   5.065  17.703  0.00  0.00    +0.000 NA
ATOM     19  C   UNL     1       6.318   5.128  19.111  0.00  0.00    +0.000 C 
ATOM     20  C   UNL     1       4.983   5.872  19.283  0.00  0.00    +0.000 C 
ATOM     21  N   UNL     1       3.922   5.216  18.508  0.00  0.00    +0.000 N 
ATOM     22  C   UNL     1       4.265   4.951  17.089  0.00  0.00    +0.000 C 
ATOM     23  C   UNL     1       5.714   4.415  16.908  0.00  0.00    +0.000 C 
BRANCH  21  24
ATOM     24  C   UNL     1       3.032   4.357  19.154  0.00  0.00    +0.000 A 
ATOM     25  C   UNL     1       1.796   4.863  19.592  0.00  0.00    +0.000 A 
ATOM     26  C   UNL     1       0.890   4.075  20.318  0.00  0.00    +0.000 A 
ATOM     27  C   UNL     1       1.190   2.753  20.612  0.00  0.00    +0.000 A 
ATOM     28  C   UNL     1       2.398   2.213  20.182  0.00  0.00    +0.000 A 
ATOM     29  C   UNL     1       3.302   3.010  19.476  0.00  0.00    +0.000 A 
ATOM     30  F   UNL     1       4.448   2.424  19.099  0.00  0.00    +0.000 F 
ENDBRANCH  21  24
ENDBRANCH  17  18
ENDBRANCH  16  17
ENDBRANCH   1  16
TORSDOF 8
ENDMDL
MODEL 7
REMARK VINA RESULT:      -7.3      6.465      9.971
REMARK  Name = 
REMARK  8 active torsions:
REMARK  status: ('A' for Active; 'I' for Inactive)
REMARK    1  A    between atoms: C_2  and  C_4
REMARK    2  A    between atoms: C_9  and  C_11
REMARK    3  A    between atoms: C_11  and  C_12
REMARK    4  A    between atoms: C_12  and  C_13
REMARK    5  A    between atoms: C_13  and  C_14
REMARK    6  A    between atoms: C_14  and  C_15
REMARK    7  A    between atoms: C_15  and  N_16
REMARK    8  A    between atoms: N_19  and  C_20
REMARK                            x       y       z     vdW  Elec       q    Type
REMARK                         _______ _______ _______ _____ _____    ______ ____
ROOT
ATOM      1  C   UNL     1       3.369   6.865  18.358  0.00  0.00    +0.000 C 
ENDROOT
BRANCH   1   2
ATOM      2  C   UNL     1       3.805   6.045  17.126  0.00  0.00    +0.000 C 
BRANCH   2   3
ATOM      3  C   UNL     1       3.520   4.550  17.300  0.00  0.00    +0.000 C 
BRANCH   3   9
ATOM      4  C   UNL     1       3.255   3.634  20.140  0.00  0.00    +0.000 C 
ATOM      5  C   UNL     1       2.735   2.676  21.220  0.00  0.00    +0.000 C 
ATOM      6  C   UNL     1       1.227   2.859  21.186  0.00  0.00    +0.000 C 
ATOM      7  C   UNL     1       0.919   3.249  19.748  0.00  0.00    +0.000 C 
ATOM      8  N   UNL     1       2.197   3.545  19.119  0.00  0.00    +0.000 N 
ATOM      9  C   UNL     1       2.169   4.230  17.906  0.00  0.00    +0.000 C 
ATOM     10  O   UNL     1       1.119   4.477  17.319  0.00  0.00    +0.000 OA
BRANCH   4  12
ATOM     11  N   UNL     1       4.989   1.892  19.849  0.00  0.00    +0.000 N 
ATOM     12  C   UNL     1       4.692   3.221  19.779  0.00  0.00    +0.000 C 
ATOM     13  O   UNL     1       5.574   4.043  19.544  0.00  0.00    +0.000 OA
ATOM     14  H   UNL     1       5.924   1.608  19.586  0.00  0.00    +0.000 HD
ATOM     15  H   UNL     1       4.269   1.187  19.926  0.00  0.00    +0.000 HD
ENDBRANCH   4  12
ENDBRANCH   3   9
ENDBRANCH   2   3
ENDBRANCH   1   2
BRANCH   1  16
ATOM     16  C   UNL     1       2.217   7.806  18.003  0.00  0.00    +0.000 C 
BRANCH  16  17
ATOM     17  C   UNL     1       2.429   9.289  18.332  0.00  0.00    +0.000 C 
BRANCH  17  18
ATOM     18  N   UNL     1       1.142  10.005  18.211  0.00  0.00    +0.000 NA
ATOM     19  C   UNL     1       0.036   9.378  18.975  0.00  0.00    +0.000 C 
ATOM     20  C   UNL     1       0.207   9.485  20.500  0.00  0.00    +0.000 C 
ATOM     21  N   UNL     1       0.276  10.892  20.915  0.00  0.00    +0.000 N 
ATOM     22  C   UNL     1       1.251  11.715  20.158  0.00  0.00    +0.000 C 
ATOM     23  C   UNL     1       1.228  11.423  18.630  0.00  0.00    +0.000 C 
BRANCH  21  24
ATOM     24  C   UNL     1      -0.863  11.510  21.433  0.00  0.00    +0.000 A 
ATOM     25  C   UNL     1      -1.547  12.449  20.643  0.00  0.00    +0.000 A 
ATOM     26  C   UNL     1      -2.651  13.164  21.131  0.00  0.00    +0.000 A 
ATOM     27  C   UNL     1      -3.110  12.948  22.422  0.00  0.00    +0.000 A 
ATOM     28  C   UNL     1      -2.467  12.015  23.230  0.00  0.00    +0.000 A 
ATOM     29  C   UNL     1      -1.358  11.321  22.742  0.00  0.00    +0.000 A 
ATOM     30  F   UNL     1      -0.785  10.443  23.579  0.00  0.00    +0.000 F 
ENDBRANCH  21  24
ENDBRANCH  17  18
ENDBRANCH  16  17
ENDBRANCH   1  16
TORSDOF 8
ENDMDL
MODEL 8
REMARK VINA RESULT:      -7.3      1.694      2.412
REMARK  Name = 
REMARK  8 active torsions:
REMARK  status: ('A' for Active; 'I' for Inactive)
REMARK    1  A    between atoms: C_2  and  C_4
REMARK    2  A    between atoms: C_9  and  C_11
REMARK    3  A    between atoms: C_11  and  C_12
REMARK    4  A    between atoms: C_12  and  C_13
REMARK    5  A    between atoms: C_13  and  C_14
REMARK    6  A    between atoms: C_14  and  C_15
REMARK    7  A    between atoms: C_15  and  N_16
REMARK    8  A    between atoms: N_19  and  C_20
REMARK                            x       y       z     vdW  Elec       q    Type
REMARK                         _______ _______ _______ _____ _____    ______ ____
ROOT
ATOM      1  C   UNL     1       8.338   9.919  18.078  0.00  0.00    +0.000 C 
ENDROOT
BRANCH   1   2
ATOM      2  C   UNL     1       9.206   9.636  19.322  0.00  0.00    +0.000 C 
BRANCH   2   3
ATOM      3  C   UNL     1       9.910  10.898  19.831  0.00  0.00    +0.000 C 
BRANCH   3   9
ATOM      4  C   UNL     1       8.934  13.637  19.110  0.00  0.00    +0.000 C 
ATOM      5  C   UNL     1       8.751  15.135  19.387  0.00  0.00    +0.000 C 
ATOM      6  C   UNL     1       7.841  15.180  20.602  0.00  0.00    +0.000 C 
ATOM      7  C   UNL     1       8.149  13.898  21.362  0.00  0.00    +0.000 C 
ATOM      8  N   UNL     1       8.952  13.075  20.471  0.00  0.00    +0.000 N 
ATOM      9  C   UNL     1       9.096  11.729  20.801  0.00  0.00    +0.000 C 
ATOM     10  O   UNL     1       8.670  11.265  21.855  0.00  0.00    +0.000 OA
BRANCH   4  12
ATOM     11  N   UNL     1      11.335  14.005  18.636  0.00  0.00    +0.000 N 
ATOM     12  C   UNL     1      10.163  13.460  18.202  0.00  0.00    +0.000 C 
ATOM     13  O   UNL     1      10.091  12.953  17.086  0.00  0.00    +0.000 OA
ATOM     14  H   UNL     1      12.156  13.870  18.059  0.00  0.00    +0.000 HD
ATOM     15  H   UNL     1      11.456  14.324  19.588  0.00  0.00    +0.000 HD
ENDBRANCH   4  12
ENDBRANCH   3   9
ENDBRANCH   2   3
ENDBRANCH   1   2
BRANCH   1  16
ATOM     16  C   UNL     1       7.948   8.616  17.381  0.00  0.00    +0.000 C 
BRANCH  16  17
ATOM     17  C   UNL     1       7.913   7.361  18.261  0.00  0.00    +0.000 C 
BRANCH  17  18
ATOM     18  N   UNL     1       7.284   6.255  17.510  0.00  0.00    +0.000 NA
ATOM     19  C   UNL     1       6.980   5.066  18.343  0.00  0.00    +0.000 C 
ATOM     20  C   UNL     1       5.857   5.307  19.367  0.00  0.00    +0.000 C 
ATOM     21  N   UNL     1       4.612   5.689  18.688  0.00  0.00    +0.000 N 
ATOM     22  C   UNL     1       4.755   6.793  17.707  0.00  0.00    +0.000 C 
ATOM     23  C   UNL     1       6.032   6.657  16.828  0.00  0.00    +0.000 C 
BRANCH  21  24
ATOM     24  C   UNL     1       3.623   4.727  18.476  0.00  0.00    +0.000 A 
ATOM     25  C   UNL     1       2.526   4.675  19.352  0.00  0.00    +0.000 A 
ATOM     26  C   UNL     1       1.539   3.684  19.244  0.00  0.00    +0.000 A 
ATOM     27  C   UNL     1       1.616   2.725  18.244  0.00  0.00    +0.000 A 
ATOM     28  C   UNL     1       2.681   2.753  17.349  0.00  0.00    +0.000 A 
ATOM     29  C   UNL     1       3.668   3.733  17.476  0.00  0.00    +0.000 A 
ATOM     30  F   UNL     1       4.667   3.695  16.581  0.00  0.00    +0.000 F 
ENDBRANCH  21  24
ENDBRANCH  17  18
ENDBRANCH  16  17
ENDBRANCH   1  16
TORSDOF 8
ENDMDL
MODEL 9
REMARK VINA RESULT:      -7.3      1.493      2.296
REMARK  Name = 
REMARK  8 active torsions:
REMARK  status: ('A' for Active; 'I' for Inactive)
REMARK    1  A    between atoms: C_2  and  C_4
REMARK    2  A    between atoms: C_9  and  C_11
REMARK    3  A    between atoms: C_11  and  C_12
REMARK    4  A    between atoms: C_12  and  C_13
REMARK    5  A    between atoms: C_13  and  C_14
REMARK    6  A    between atoms: C_14  and  C_15
REMARK    7  A    between atoms: C_15  and  N_16
REMARK    8  A    between atoms: N_19  and  C_20
REMARK                            x       y       z     vdW  Elec       q    Type
REMARK                         _______ _______ _______ _____ _____    ______ ____
ROOT
ATOM      1  C   UNL     1       7.942   8.422  17.683  0.00  0.00    +0.000 C 
ENDROOT
BRANCH   1   2
ATOM      2  C   UNL     1       8.937   9.031  18.692  0.00  0.00    +0.000 C 
BRANCH   2   3
ATOM      3  C   UNL     1       8.809  10.555  18.777  0.00  0.00    +0.000 C 
BRANCH   3   9
ATOM      4  C   UNL     1       8.935  13.521  19.186  0.00  0.00    +0.000 C 
ATOM      5  C   UNL     1       9.649  14.807  19.622  0.00  0.00    +0.000 C 
ATOM      6  C   UNL     1       9.839  14.638  21.120  0.00  0.00    +0.000 C 
ATOM      7  C   UNL     1       9.947  13.134  21.327  0.00  0.00    +0.000 C 
ATOM      8  N   UNL     1       9.547  12.517  20.072  0.00  0.00    +0.000 N 
ATOM      9  C   UNL     1       9.253  11.155  20.095  0.00  0.00    +0.000 C 
ATOM     10  O   UNL     1       9.430  10.465  21.096  0.00  0.00    +0.000 OA
BRANCH   4  12
ATOM     11  N   UNL     1       7.939  13.231  16.939  0.00  0.00    +0.000 N 
ATOM     12  C   UNL     1       9.086  13.377  17.662  0.00  0.00    +0.000 C 
ATOM     13  O   UNL     1      10.181  13.286  17.114  0.00  0.00    +0.000 OA
ATOM     14  H   UNL     1       8.026  13.164  15.933  0.00  0.00    +0.000 HD
ATOM     15  H   UNL     1       7.028  13.414  17.338  0.00  0.00    +0.000 HD
ENDBRANCH   4  12
ENDBRANCH   3   9
ENDBRANCH   2   3
ENDBRANCH   1   2
BRANCH   1  16
ATOM     16  C   UNL     1       7.709   6.940  17.978  0.00  0.00    +0.000 C 
BRANCH  16  17
ATOM     17  C   UNL     1       7.004   6.134  16.881  0.00  0.00    +0.000 C 
BRANCH  17  18
ATOM     18  N   UNL     1       5.545   6.337  16.986  0.00  0.00    +0.000 NA
ATOM     19  C   UNL     1       4.744   5.256  16.361  0.00  0.00    +0.000 C 
ATOM     20  C   UNL     1       4.836   3.915  17.111  0.00  0.00    +0.000 C 
ATOM     21  N   UNL     1       4.360   4.063  18.493  0.00  0.00    +0.000 N 
ATOM     22  C   UNL     1       4.965   5.193  19.240  0.00  0.00    +0.000 C 
ATOM     23  C   UNL     1       5.081   6.488  18.385  0.00  0.00    +0.000 C 
BRANCH  21  24
ATOM     24  C   UNL     1       3.063   3.662  18.817  0.00  0.00    +0.000 A 
ATOM     25  C   UNL     1       2.316   4.441  19.717  0.00  0.00    +0.000 A 
ATOM     26  C   UNL     1       1.038   4.054  20.147  0.00  0.00    +0.000 A 
ATOM     27  C   UNL     1       0.466   2.881  19.675  0.00  0.00    +0.000 A 
ATOM     28  C   UNL     1       1.170   2.091  18.772  0.00  0.00    +0.000 A 
ATOM     29  C   UNL     1       2.449   2.476  18.364  0.00  0.00    +0.000 A 
ATOM     30  F   UNL     1       3.070   1.662  17.497  0.00  0.00    +0.000 F 
ENDBRANCH  21  24
ENDBRANCH  17  18
ENDBRANCH  16  17
ENDBRANCH   1  16
TORSDOF 8
ENDMDL
