MODEL 1
REMARK VINA RESULT:      -8.1      0.000      0.000
REMARK  Name = 
REMARK  13 active torsions:
REMARK  status: ('A' for Active; 'I' for Inactive)
REMARK    1  A    between atoms: C_1  and  C_2
REMARK    2  A    between atoms: C_2  and  N_3
REMARK    3  A    between atoms: C_4  and  C_5
REMARK    4  A    between atoms: C_5  and  O_6
REMARK    5  A    between atoms: C_5  and  C_7
REMARK    6  A    between atoms: C_5  and  C_13
REMARK    7  A    between atoms: C_23  and  C_24
REMARK    8  A    between atoms: C_24  and  O_25
REMARK    9  A    between atoms: C_24  and  C_26
REMARK   10  A    between atoms: C_26  and  C_29
REMARK   11  A    between atoms: C_29  and  O_30
REMARK   12  A    between atoms: O_30  and  C_31
REMARK   13  A    between atoms: C_31  and  C_32
REMARK                            x       y       z     vdW  Elec       q    Type
REMARK                         _______ _______ _______ _____ _____    ______ ____
ROOT
ATOM      1  N   UNL     1       0.445   9.397  19.924  0.00  0.00    +0.000 N 
ATOM      2  C   UNL     1       0.375  10.366  18.939  0.00  0.00    +0.000 A 
ATOM      3  N   UNL     1       1.200  10.039  17.943  0.00  0.00    +0.000 NA
ATOM      4  C   UNL     1       1.831   8.886  18.295  0.00  0.00    +0.000 A 
ATOM      5  C   UNL     1       2.769   8.103  17.611  0.00  0.00    +0.000 A 
ATOM      6  C   UNL     1       3.206   6.909  18.215  0.00  0.00    +0.000 A 
ATOM      7  C   UNL     1       2.803   6.530  19.513  0.00  0.00    +0.000 A 
ATOM      8  C   UNL     1       1.956   7.394  20.210  0.00  0.00    +0.000 A 
ATOM      9  C   UNL     1       1.427   8.503  19.555  0.00  0.00    +0.000 A 
ENDROOT
BRANCH   1  11
ATOM     10  C   UNL     1       0.339   9.495  22.401  0.00  0.00    +0.000 C 
ATOM     11  C   UNL     1      -0.386   9.187  21.098  0.00  0.00    +0.000 C 
ENDBRANCH   1  11
BRANCH   2  12
ATOM     12  C   UNL     1      -0.475  11.658  18.959  0.00  0.00    +0.000 C 
BRANCH  12  13
ATOM     13  C   UNL     1      -1.955  11.293  18.696  0.00  0.00    +0.000 A 
ATOM     14  C   UNL     1      -2.273  10.146  17.944  0.00  0.00    +0.000 A 
ATOM     15  C   UNL     1      -3.582   9.881  17.534  0.00  0.00    +0.000 A 
ATOM     16  C   UNL     1      -4.611  10.748  17.882  0.00  0.00    +0.000 A 
ATOM     17  C   UNL     1      -4.338  11.865  18.663  0.00  0.00    +0.000 A 
ATOM     18  C   UNL     1      -3.029  12.126  19.080  0.00  0.00    +0.000 A 
ENDBRANCH  12  13
BRANCH  12  19
ATOM     19  C   UNL     1      -0.249  12.503  20.227  0.00  0.00    +0.000 A 
ATOM     20  C   UNL     1      -1.198  12.488  21.268  0.00  0.00    +0.000 A 
ATOM     21  C   UNL     1      -1.064  13.313  22.388  0.00  0.00    +0.000 A 
ATOM     22  C   UNL     1       0.033  14.159  22.506  0.00  0.00    +0.000 A 
ATOM     23  C   UNL     1       1.008  14.164  21.515  0.00  0.00    +0.000 A 
ATOM     24  C   UNL     1       0.871  13.340  20.394  0.00  0.00    +0.000 A 
ENDBRANCH  12  19
BRANCH  12  25
ATOM     25  O   UNL     1      -0.004  12.479  17.878  0.00  0.00    +0.000 OA
ATOM     26  H   UNL     1      -0.441  13.334  17.990  0.00  0.00    +0.000 HD
ENDBRANCH  12  25
ENDBRANCH   2  12
BRANCH   7  27
ATOM     27  C   UNL     1       3.212   5.186  20.112  0.00  0.00    +0.000 C 
BRANCH  27  28
ATOM     28  C   UNL     1       3.019   3.900  19.244  0.00  0.00    +0.000 C 
ATOM     29  F   UNL     1       2.536   2.906  20.055  0.00  0.00    +0.000 F 
ATOM     30  F   UNL     1       2.037   4.123  18.324  0.00  0.00    +0.000 F 
BRANCH  28  31
ATOM     31  C   UNL     1       4.278   3.331  18.563  0.00  0.00    +0.000 C 
BRANCH  31  32
ATOM     32  O   UNL     1       5.482   3.991  19.039  0.00  0.00    +0.000 OA
BRANCH  32  33
ATOM     33  C   UNL     1       6.345   4.437  18.086  0.00  0.00    +0.000 C 
ATOM     34  C   UNL     1       5.652   4.632  16.771  0.00  0.00    +0.000 C 
ATOM     35  O   UNL     1       7.546   4.607  18.250  0.00  0.00    +0.000 OA
ENDBRANCH  32  33
ENDBRANCH  31  32
ENDBRANCH  28  31
ENDBRANCH  27  28
BRANCH  27  36
ATOM     36  O   UNL     1       2.496   5.045  21.358  0.00  0.00    +0.000 OA
ATOM     37  H   UNL     1       2.494   4.094  21.571  0.00  0.00    +0.000 HD
ENDBRANCH  27  36
ENDBRANCH   7  27
TORSDOF 11
ENDMDL
MODEL 2
REMARK VINA RESULT:      -8.0      1.669      3.310
REMARK  Name = 
REMARK  13 active torsions:
REMARK  status: ('A' for Active; 'I' for Inactive)
REMARK    1  A    between atoms: C_1  and  C_2
REMARK    2  A    between atoms: C_2  and  N_3
REMARK    3  A    between atoms: C_4  and  C_5
REMARK    4  A    between atoms: C_5  and  O_6
REMARK    5  A    between atoms: C_5  and  C_7
REMARK    6  A    between atoms: C_5  and  C_13
REMARK    7  A    between atoms: C_23  and  C_24
REMARK    8  A    between atoms: C_24  and  O_25
REMARK    9  A    between atoms: C_24  and  C_26
REMARK   10  A    between atoms: C_26  and  C_29
REMARK   11  A    between atoms: C_29  and  O_30
REMARK   12  A    between atoms: O_30  and  C_31
REMARK   13  A    between atoms: C_31  and  C_32
REMARK                            x       y       z     vdW  Elec       q    Type
REMARK                         _______ _______ _______ _____ _____    ______ ____
ROOT
ATOM      1  N   UNL     1       1.082   9.598  20.649  0.00  0.00    +0.000 N 
ATOM      2  C   UNL     1       0.835  10.687  19.833  0.00  0.00    +0.000 A 
ATOM      3  N   UNL     1       1.147  10.373  18.575  0.00  0.00    +0.000 NA
ATOM      4  C   UNL     1       1.632   9.102  18.578  0.00  0.00    +0.000 A 
ATOM      5  C   UNL     1       2.077   8.282  17.533  0.00  0.00    +0.000 A 
ATOM      6  C   UNL     1       2.471   6.967  17.841  0.00  0.00    +0.000 A 
ATOM      7  C   UNL     1       2.520   6.485  19.166  0.00  0.00    +0.000 A 
ATOM      8  C   UNL     1       2.177   7.368  20.192  0.00  0.00    +0.000 A 
ATOM      9  C   UNL     1       1.664   8.622  19.869  0.00  0.00    +0.000 A 
ENDROOT
BRANCH   1  11
ATOM     10  C   UNL     1      -0.659   8.758  22.204  0.00  0.00    +0.000 C 
ATOM     11  C   UNL     1       0.728   9.363  22.039  0.00  0.00    +0.000 C 
ENDBRANCH   1  11
BRANCH   2  12
ATOM     12  C   UNL     1       0.319  12.079  20.267  0.00  0.00    +0.000 C 
BRANCH  12  13
ATOM     13  C   UNL     1       1.058  13.168  19.454  0.00  0.00    +0.000 A 
ATOM     14  C   UNL     1       2.354  12.918  18.961  0.00  0.00    +0.000 A 
ATOM     15  C   UNL     1       3.122  13.930  18.381  0.00  0.00    +0.000 A 
ATOM     16  C   UNL     1       2.607  15.216  18.262  0.00  0.00    +0.000 A 
ATOM     17  C   UNL     1       1.315  15.484  18.697  0.00  0.00    +0.000 A 
ATOM     18  C   UNL     1       0.543  14.470  19.271  0.00  0.00    +0.000 A 
ENDBRANCH  12  13
BRANCH  12  19
ATOM     19  C   UNL     1      -1.218  12.191  20.219  0.00  0.00    +0.000 A 
ATOM     20  C   UNL     1      -1.927  11.726  19.094  0.00  0.00    +0.000 A 
ATOM     21  C   UNL     1      -3.310  11.896  18.985  0.00  0.00    +0.000 A 
ATOM     22  C   UNL     1      -4.022  12.516  20.006  0.00  0.00    +0.000 A 
ATOM     23  C   UNL     1      -3.354  12.947  21.147  0.00  0.00    +0.000 A 
ATOM     24  C   UNL     1      -1.970  12.777  21.254  0.00  0.00    +0.000 A 
ENDBRANCH  12  19
BRANCH  12  25
ATOM     25  O   UNL     1       0.657  12.232  21.655  0.00  0.00    +0.000 OA
ATOM     26  H   UNL     1       1.622  12.275  21.686  0.00  0.00    +0.000 HD
ENDBRANCH  12  25
ENDBRANCH   2  12
BRANCH   7  27
ATOM     27  C   UNL     1       2.858   5.028  19.471  0.00  0.00    +0.000 C 
BRANCH  27  28
ATOM     28  C   UNL     1       4.231   4.468  18.975  0.00  0.00    +0.000 C 
ATOM     29  F   UNL     1       4.450   3.264  19.595  0.00  0.00    +0.000 F 
ATOM     30  F   UNL     1       4.142   4.177  17.646  0.00  0.00    +0.000 F 
BRANCH  28  31
ATOM     31  C   UNL     1       5.473   5.333  19.258  0.00  0.00    +0.000 C 
BRANCH  31  32
ATOM     32  O   UNL     1       6.699   4.618  18.944  0.00  0.00    +0.000 OA
BRANCH  32  33
ATOM     33  C   UNL     1       7.396   5.057  17.861  0.00  0.00    +0.000 C 
ATOM     34  C   UNL     1       7.280   6.545  17.705  0.00  0.00    +0.000 C 
ATOM     35  O   UNL     1       7.998   4.339  17.074  0.00  0.00    +0.000 OA
ENDBRANCH  32  33
ENDBRANCH  31  32
ENDBRANCH  28  31
ENDBRANCH  27  28
BRANCH  27  36
ATOM     36  O   UNL     1       1.782   4.225  18.938  0.00  0.00    +0.000 OA
ATOM     37  H   UNL     1       1.587   4.577  18.051  0.00  0.00    +0.000 HD
ENDBRANCH  27  36
ENDBRANCH   7  27
TORSDOF 11
ENDMDL
MODEL 3
REMARK VINA RESULT:      -7.9      0.941      1.342
REMARK  Name = 
REMARK  13 active torsions:
REMARK  status: ('A' for Active; 'I' for Inactive)
REMARK    1  A    between atoms: C_1  and  C_2
REMARK    2  A    between atoms: C_2  and  N_3
REMARK    3  A    between atoms: C_4  and  C_5
REMARK    4  A    between atoms: C_5  and  O_6
REMARK    5  A    between atoms: C_5  and  C_7
REMARK    6  A    between atoms: C_5  and  C_13
REMARK    7  A    between atoms: C_23  and  C_24
REMARK    8  A    between atoms: C_24  and  O_25
REMARK    9  A    between atoms: C_24  and  C_26
REMARK   10  A    between atoms: C_26  and  C_29
REMARK   11  A    between atoms: C_29  and  O_30
REMARK   12  A    between atoms: O_30  and  C_31
REMARK   13  A    between atoms: C_31  and  C_32
REMARK                            x       y       z     vdW  Elec       q    Type
REMARK                         _______ _______ _______ _____ _____    ______ ____
ROOT
ATOM      1  N   UNL     1       0.550   9.342  19.819  0.00  0.00    +0.000 N 
ATOM      2  C   UNL     1       0.452  10.323  18.849  0.00  0.00    +0.000 A 
ATOM      3  N   UNL     1       1.266  10.022  17.836  0.00  0.00    +0.000 NA
ATOM      4  C   UNL     1       1.918   8.873  18.162  0.00  0.00    +0.000 A 
ATOM      5  C   UNL     1       2.856   8.112  17.453  0.00  0.00    +0.000 A 
ATOM      6  C   UNL     1       3.317   6.916  18.032  0.00  0.00    +0.000 A 
ATOM      7  C   UNL     1       2.940   6.512  19.331  0.00  0.00    +0.000 A 
ATOM      8  C   UNL     1       2.091   7.354  20.052  0.00  0.00    +0.000 A 
ATOM      9  C   UNL     1       1.538   8.466  19.422  0.00  0.00    +0.000 A 
ENDROOT
BRANCH   1  11
ATOM     10  C   UNL     1       0.508   9.314  22.299  0.00  0.00    +0.000 C 
ATOM     11  C   UNL     1      -0.260   9.103  21.002  0.00  0.00    +0.000 C 
ENDBRANCH   1  11
BRANCH   2  12
ATOM     12  C   UNL     1      -0.414  11.603  18.902  0.00  0.00    +0.000 C 
BRANCH  12  13
ATOM     13  C   UNL     1      -1.844  11.266  18.418  0.00  0.00    +0.000 A 
ATOM     14  C   UNL     1      -2.919  12.108  18.764  0.00  0.00    +0.000 A 
ATOM     15  C   UNL     1      -4.243  11.746  18.502  0.00  0.00    +0.000 A 
ATOM     16  C   UNL     1      -4.526  10.541  17.870  0.00  0.00    +0.000 A 
ATOM     17  C   UNL     1      -3.484   9.709  17.474  0.00  0.00    +0.000 A 
ATOM     18  C   UNL     1      -2.159  10.074  17.730  0.00  0.00    +0.000 A 
ENDBRANCH  12  13
BRANCH  12  19
ATOM     19  C   UNL     1      -0.361  12.307  20.272  0.00  0.00    +0.000 A 
ATOM     20  C   UNL     1      -1.368  12.072  21.228  0.00  0.00    +0.000 A 
ATOM     21  C   UNL     1      -1.394  12.764  22.443  0.00  0.00    +0.000 A 
ATOM     22  C   UNL     1      -0.403  13.694  22.739  0.00  0.00    +0.000 A 
ATOM     23  C   UNL     1       0.627  13.915  21.832  0.00  0.00    +0.000 A 
ATOM     24  C   UNL     1       0.651  13.223  20.617  0.00  0.00    +0.000 A 
ENDBRANCH  12  19
BRANCH  12  25
ATOM     25  O   UNL     1       0.174  12.539  17.983  0.00  0.00    +0.000 OA
ATOM     26  H   UNL     1       0.875  12.985  18.476  0.00  0.00    +0.000 HD
ENDBRANCH  12  25
ENDBRANCH   2  12
BRANCH   7  27
ATOM     27  C   UNL     1       3.375   5.166  19.903  0.00  0.00    +0.000 C 
BRANCH  27  28
ATOM     28  C   UNL     1       4.604   4.448  19.254  0.00  0.00    +0.000 C 
ATOM     29  F   UNL     1       4.777   3.244  19.887  0.00  0.00    +0.000 F 
ATOM     30  F   UNL     1       4.309   4.136  17.961  0.00  0.00    +0.000 F 
BRANCH  28  31
ATOM     31  C   UNL     1       5.956   5.181  19.339  0.00  0.00    +0.000 C 
BRANCH  31  32
ATOM     32  O   UNL     1       6.997   4.456  18.631  0.00  0.00    +0.000 OA
BRANCH  32  33
ATOM     33  C   UNL     1       7.452   5.021  17.480  0.00  0.00    +0.000 C 
ATOM     34  C   UNL     1       7.269   6.509  17.494  0.00  0.00    +0.000 C 
ATOM     35  O   UNL     1       7.904   4.403  16.525  0.00  0.00    +0.000 OA
ENDBRANCH  32  33
ENDBRANCH  31  32
ENDBRANCH  28  31
ENDBRANCH  27  28
BRANCH  27  36
ATOM     36  O   UNL     1       2.223   4.296  19.858  0.00  0.00    +0.000 OA
ATOM     37  H   UNL     1       1.530   4.779  19.373  0.00  0.00    +0.000 HD
ENDBRANCH  27  36
ENDBRANCH   7  27
TORSDOF 11
ENDMDL
MODEL 4
REMARK VINA RESULT:      -7.9      1.486      3.419
REMARK  Name = 
REMARK  13 active torsions:
REMARK  status: ('A' for Active; 'I' for Inactive)
REMARK    1  A    between atoms: C_1  and  C_2
REMARK    2  A    between atoms: C_2  and  N_3
REMARK    3  A    between atoms: C_4  and  C_5
REMARK    4  A    between atoms: C_5  and  O_6
REMARK    5  A    between atoms: C_5  and  C_7
REMARK    6  A    between atoms: C_5  and  C_13
REMARK    7  A    between atoms: C_23  and  C_24
REMARK    8  A    between atoms: C_24  and  O_25
REMARK    9  A    between atoms: C_24  and  C_26
REMARK   10  A    between atoms: C_26  and  C_29
REMARK   11  A    between atoms: C_29  and  O_30
REMARK   12  A    between atoms: O_30  and  C_31
REMARK   13  A    between atoms: C_31  and  C_32
REMARK                            x       y       z     vdW  Elec       q    Type
REMARK                         _______ _______ _______ _____ _____    ______ ____
ROOT
ATOM      1  N   UNL     1       0.262   9.645  20.551  0.00  0.00    +0.000 N 
ATOM      2  C   UNL     1       0.072  10.799  19.813  0.00  0.00    +0.000 A 
ATOM      3  N   UNL     1       0.775  10.718  18.682  0.00  0.00    +0.000 NA
ATOM      4  C   UNL     1       1.449   9.536  18.703  0.00  0.00    +0.000 A 
ATOM      5  C   UNL     1       2.303   8.945  17.763  0.00  0.00    +0.000 A 
ATOM      6  C   UNL     1       2.813   7.663  18.041  0.00  0.00    +0.000 A 
ATOM      7  C   UNL     1       2.569   7.003  19.264  0.00  0.00    +0.000 A 
ATOM      8  C   UNL     1       1.805   7.673  20.223  0.00  0.00    +0.000 A 
ATOM      9  C   UNL     1       1.198   8.881  19.888  0.00  0.00    +0.000 A 
ENDROOT
BRANCH   1  11
ATOM     10  C   UNL     1       0.379   9.378  23.015  0.00  0.00    +0.000 C 
ATOM     11  C   UNL     1      -0.424   9.164  21.739  0.00  0.00    +0.000 C 
ENDBRANCH   1  11
BRANCH   2  12
ATOM     12  C   UNL     1      -0.775  12.031  20.209  0.00  0.00    +0.000 C 
BRANCH  12  13
ATOM     13  C   UNL     1       0.034  13.316  19.915  0.00  0.00    +0.000 A 
ATOM     14  C   UNL     1       1.155  13.637  20.705  0.00  0.00    +0.000 A 
ATOM     15  C   UNL     1       1.801  14.870  20.589  0.00  0.00    +0.000 A 
ATOM     16  C   UNL     1       1.354  15.808  19.666  0.00  0.00    +0.000 A 
ATOM     17  C   UNL     1       0.279  15.505  18.839  0.00  0.00    +0.000 A 
ATOM     18  C   UNL     1      -0.364  14.268  18.950  0.00  0.00    +0.000 A 
ENDBRANCH  12  13
BRANCH  12  19
ATOM     19  C   UNL     1      -2.184  12.016  19.585  0.00  0.00    +0.000 A 
ATOM     20  C   UNL     1      -3.261  12.631  20.252  0.00  0.00    +0.000 A 
ATOM     21  C   UNL     1      -4.565  12.554  19.754  0.00  0.00    +0.000 A 
ATOM     22  C   UNL     1      -4.821  11.879  18.565  0.00  0.00    +0.000 A 
ATOM     23  C   UNL     1      -3.771  11.299  17.863  0.00  0.00    +0.000 A 
ATOM     24  C   UNL     1      -2.468  11.375  18.364  0.00  0.00    +0.000 A 
ENDBRANCH  12  19
BRANCH  12  25
ATOM     25  O   UNL     1      -0.998  11.941  21.626  0.00  0.00    +0.000 OA
ATOM     26  H   UNL     1      -1.911  12.224  21.766  0.00  0.00    +0.000 HD
ENDBRANCH  12  25
ENDBRANCH   2  12
BRANCH   7  27
ATOM     27  C   UNL     1       3.051   5.576  19.508  0.00  0.00    +0.000 C 
BRANCH  27  28
ATOM     28  C   UNL     1       2.657   4.475  18.470  0.00  0.00    +0.000 C 
ATOM     29  F   UNL     1       2.342   3.331  19.160  0.00  0.00    +0.000 F 
ATOM     30  F   UNL     1       1.505   4.843  17.841  0.00  0.00    +0.000 F 
BRANCH  28  31
ATOM     31  C   UNL     1       3.732   4.077  17.441  0.00  0.00    +0.000 C 
BRANCH  31  32
ATOM     32  O   UNL     1       4.773   5.087  17.347  0.00  0.00    +0.000 OA
BRANCH  32  33
ATOM     33  C   UNL     1       5.281   5.320  16.106  0.00  0.00    +0.000 C 
ATOM     34  C   UNL     1       5.621   4.037  15.407  0.00  0.00    +0.000 C 
ATOM     35  O   UNL     1       5.490   6.427  15.629  0.00  0.00    +0.000 OA
ENDBRANCH  32  33
ENDBRANCH  31  32
ENDBRANCH  28  31
ENDBRANCH  27  28
BRANCH  27  36
ATOM     36  O   UNL     1       2.591   5.194  20.822  0.00  0.00    +0.000 OA
ATOM     37  H   UNL     1       3.187   5.624  21.461  0.00  0.00    +0.000 HD
ENDBRANCH  27  36
ENDBRANCH   7  27
TORSDOF 11
ENDMDL
MODEL 5
REMARK VINA RESULT:      -7.9      1.311      3.347
REMARK  Name = 
REMARK  13 active torsions:
REMARK  status: ('A' for Active; 'I' for Inactive)
REMARK    1  A    between atoms: C_1  and  C_2
REMARK    2  A    between atoms: C_2  and  N_3
REMARK    3  A    between atoms: C_4  and  C_5
REMARK    4  A    between atoms: C_5  and  O_6
REMARK    5  A    between atoms: C_5  and  C_7
REMARK    6  A    between atoms: C_5  and  C_13
REMARK    7  A    between atoms: C_23  and  C_24
REMARK    8  A    between atoms: C_24  and  O_25
REMARK    9  A    between atoms: C_24  and  C_26
REMARK   10  A    between atoms: C_26  and  C_29
REMARK   11  A    between atoms: C_29  and  O_30
REMARK   12  A    between atoms: O_30  and  C_31
REMARK   13  A    between atoms: C_31  and  C_32
REMARK                            x       y       z     vdW  Elec       q    Type
REMARK                         _______ _______ _______ _____ _____    ______ ____
ROOT
ATOM      1  N   UNL     1       0.125   9.677  20.670  0.00  0.00    +0.000 N 
ATOM      2  C   UNL     1      -0.129  10.810  19.918  0.00  0.00    +0.000 A 
ATOM      3  N   UNL     1       0.550  10.737  18.772  0.00  0.00    +0.000 NA
ATOM      4  C   UNL     1       1.270   9.584  18.795  0.00  0.00    +0.000 A 
ATOM      5  C   UNL     1       2.125   9.012  17.845  0.00  0.00    +0.000 A 
ATOM      6  C   UNL     1       2.693   7.756  18.130  0.00  0.00    +0.000 A 
ATOM      7  C   UNL     1       2.504   7.107  19.369  0.00  0.00    +0.000 A 
ATOM      8  C   UNL     1       1.737   7.762  20.335  0.00  0.00    +0.000 A 
ATOM      9  C   UNL     1       1.074   8.939  19.996  0.00  0.00    +0.000 A 
ENDROOT
BRANCH   1  11
ATOM     10  C   UNL     1       0.290   9.494  23.139  0.00  0.00    +0.000 C 
ATOM     11  C   UNL     1      -0.513   9.188  21.882  0.00  0.00    +0.000 C 
ENDBRANCH   1  11
BRANCH   2  12
ATOM     12  C   UNL     1      -1.015  12.013  20.315  0.00  0.00    +0.000 C 
BRANCH  12  13
ATOM     13  C   UNL     1      -0.202  13.318  20.143  0.00  0.00    +0.000 A 
ATOM     14  C   UNL     1      -0.551  14.235  19.132  0.00  0.00    +0.000 A 
ATOM     15  C   UNL     1       0.260  15.330  18.828  0.00  0.00    +0.000 A 
ATOM     16  C   UNL     1       1.434  15.549  19.541  0.00  0.00    +0.000 A 
ATOM     17  C   UNL     1       1.782  14.689  20.576  0.00  0.00    +0.000 A 
ATOM     18  C   UNL     1       0.966  13.596  20.885  0.00  0.00    +0.000 A 
ENDBRANCH  12  13
BRANCH  12  19
ATOM     19  C   UNL     1      -2.377  12.019  19.595  0.00  0.00    +0.000 A 
ATOM     20  C   UNL     1      -3.509  12.576  20.222  0.00  0.00    +0.000 A 
ATOM     21  C   UNL     1      -4.774  12.514  19.630  0.00  0.00    +0.000 A 
ATOM     22  C   UNL     1      -4.935  11.912  18.387  0.00  0.00    +0.000 A 
ATOM     23  C   UNL     1      -3.829  11.392  17.725  0.00  0.00    +0.000 A 
ATOM     24  C   UNL     1      -2.565  11.453  18.319  0.00  0.00    +0.000 A 
ENDBRANCH  12  19
BRANCH  12  25
ATOM     25  O   UNL     1      -1.335  11.850  21.707  0.00  0.00    +0.000 OA
ATOM     26  H   UNL     1      -0.665  11.250  22.061  0.00  0.00    +0.000 HD
ENDBRANCH  12  25
ENDBRANCH   2  12
BRANCH   7  27
ATOM     27  C   UNL     1       3.049   5.705  19.623  0.00  0.00    +0.000 C 
BRANCH  27  28
ATOM     28  C   UNL     1       2.807   4.608  18.534  0.00  0.00    +0.000 C 
ATOM     29  F   UNL     1       2.570   3.418  19.173  0.00  0.00    +0.000 F 
ATOM     30  F   UNL     1       1.655   4.891  17.862  0.00  0.00    +0.000 F 
BRANCH  28  31
ATOM     31  C   UNL     1       3.960   4.349  17.547  0.00  0.00    +0.000 C 
BRANCH  31  32
ATOM     32  O   UNL     1       5.195   4.035  18.245  0.00  0.00    +0.000 OA
BRANCH  32  33
ATOM     33  C   UNL     1       6.296   4.745  17.877  0.00  0.00    +0.000 C 
ATOM     34  C   UNL     1       5.919   5.964  17.089  0.00  0.00    +0.000 C 
ATOM     35  O   UNL     1       7.453   4.416  18.103  0.00  0.00    +0.000 OA
ENDBRANCH  32  33
ENDBRANCH  31  32
ENDBRANCH  28  31
ENDBRANCH  27  28
BRANCH  27  36
ATOM     36  O   UNL     1       2.506   5.264  20.887  0.00  0.00    +0.000 OA
ATOM     37  H   UNL     1       2.694   5.970  21.531  0.00  0.00    +0.000 HD
ENDBRANCH  27  36
ENDBRANCH   7  27
TORSDOF 11
ENDMDL
MODEL 6
REMARK VINA RESULT:      -7.9      1.856      3.759
REMARK  Name = 
REMARK  13 active torsions:
REMARK  status: ('A' for Active; 'I' for Inactive)
REMARK    1  A    between atoms: C_1  and  C_2
REMARK    2  A    between atoms: C_2  and  N_3
REMARK    3  A    between atoms: C_4  and  C_5
REMARK    4  A    between atoms: C_5  and  O_6
REMARK    5  A    between atoms: C_5  and  C_7
REMARK    6  A    between atoms: C_5  and  C_13
REMARK    7  A    between atoms: C_23  and  C_24
REMARK    8  A    between atoms: C_24  and  O_25
REMARK    9  A    between atoms: C_24  and  C_26
REMARK   10  A    between atoms: C_26  and  C_29
REMARK   11  A    between atoms: C_29  and  O_30
REMARK   12  A    between atoms: O_30  and  C_31
REMARK   13  A    between atoms: C_31  and  C_32
REMARK                            x       y       z     vdW  Elec       q    Type
REMARK                         _______ _______ _______ _____ _____    ______ ____
ROOT
ATOM      1  N   UNL     1       0.304   9.787  20.492  0.00  0.00    +0.000 N 
ATOM      2  C   UNL     1       0.131  11.009  19.867  0.00  0.00    +0.000 A 
ATOM      3  N   UNL     1       0.809  11.015  18.719  0.00  0.00    +0.000 NA
ATOM      4  C   UNL     1       1.450   9.819  18.615  0.00  0.00    +0.000 A 
ATOM      5  C   UNL     1       2.269   9.296  17.607  0.00  0.00    +0.000 A 
ATOM      6  C   UNL     1       2.749   7.982  17.754  0.00  0.00    +0.000 A 
ATOM      7  C   UNL     1       2.511   7.218  18.917  0.00  0.00    +0.000 A 
ATOM      8  C   UNL     1       1.786   7.815  19.950  0.00  0.00    +0.000 A 
ATOM      9  C   UNL     1       1.205   9.064  19.741  0.00  0.00    +0.000 A 
ENDROOT
BRANCH   1  11
ATOM     10  C   UNL     1       0.439   9.342  22.929  0.00  0.00    +0.000 C 
ATOM     11  C   UNL     1      -0.371   9.216  21.646  0.00  0.00    +0.000 C 
ENDBRANCH   1  11
BRANCH   2  12
ATOM     12  C   UNL     1      -0.674  12.220  20.394  0.00  0.00    +0.000 C 
BRANCH  12  13
ATOM     13  C   UNL     1       0.052  13.525  19.988  0.00  0.00    +0.000 A 
ATOM     14  C   UNL     1       1.183  13.953  20.710  0.00  0.00    +0.000 A 
ATOM     15  C   UNL     1       1.756  15.207  20.493  0.00  0.00    +0.000 A 
ATOM     16  C   UNL     1       1.224  16.061  19.532  0.00  0.00    +0.000 A 
ATOM     17  C   UNL     1       0.137  15.650  18.771  0.00  0.00    +0.000 A 
ATOM     18  C   UNL     1      -0.433  14.390  18.984  0.00  0.00    +0.000 A 
ENDBRANCH  12  13
BRANCH  12  19
ATOM     19  C   UNL     1      -2.160  12.174  19.990  0.00  0.00    +0.000 A 
ATOM     20  C   UNL     1      -2.551  11.526  18.802  0.00  0.00    +0.000 A 
ATOM     21  C   UNL     1      -3.879  11.546  18.365  0.00  0.00    +0.000 A 
ATOM     22  C   UNL     1      -4.853  12.196  19.116  0.00  0.00    +0.000 A 
ATOM     23  C   UNL     1      -4.503  12.808  20.314  0.00  0.00    +0.000 A 
ATOM     24  C   UNL     1      -3.174  12.788  20.749  0.00  0.00    +0.000 A 
ENDBRANCH  12  19
BRANCH  12  25
ATOM     25  O   UNL     1      -0.678  12.122  21.828  0.00  0.00    +0.000 OA
ATOM     26  H   UNL     1      -0.219  11.297  22.035  0.00  0.00    +0.000 HD
ENDBRANCH  12  25
ENDBRANCH   2  12
BRANCH   7  27
ATOM     27  C   UNL     1       2.959   5.762  19.017  0.00  0.00    +0.000 C 
BRANCH  27  28
ATOM     28  C   UNL     1       1.916   4.643  18.692  0.00  0.00    +0.000 C 
ATOM     29  F   UNL     1       0.968   4.642  19.684  0.00  0.00    +0.000 F 
ATOM     30  F   UNL     1       1.244   4.974  17.553  0.00  0.00    +0.000 F 
BRANCH  28  31
ATOM     31  C   UNL     1       2.453   3.202  18.604  0.00  0.00    +0.000 C 
BRANCH  31  32
ATOM     32  O   UNL     1       2.103   2.433  19.786  0.00  0.00    +0.000 OA
BRANCH  32  33
ATOM     33  C   UNL     1       3.020   2.414  20.791  0.00  0.00    +0.000 C 
ATOM     34  C   UNL     1       4.401   2.159  20.263  0.00  0.00    +0.000 C 
ATOM     35  O   UNL     1       2.762   2.532  21.981  0.00  0.00    +0.000 OA
ENDBRANCH  32  33
ENDBRANCH  31  32
ENDBRANCH  28  31
ENDBRANCH  27  28
BRANCH  27  36
ATOM     36  O   UNL     1       3.478   5.572  20.351  0.00  0.00    +0.000 OA
ATOM     37  H   UNL     1       3.519   4.610  20.498  0.00  0.00    +0.000 HD
ENDBRANCH  27  36
ENDBRANCH   7  27
TORSDOF 11
ENDMDL
MODEL 7
REMARK VINA RESULT:      -7.8      3.081      8.904
REMARK  Name = 
REMARK  13 active torsions:
REMARK  status: ('A' for Active; 'I' for Inactive)
REMARK    1  A    between atoms: C_1  and  C_2
REMARK    2  A    between atoms: C_2  and  N_3
REMARK    3  A    between atoms: C_4  and  C_5
REMARK    4  A    between atoms: C_5  and  O_6
REMARK    5  A    between atoms: C_5  and  C_7
REMARK    6  A    between atoms: C_5  and  C_13
REMARK    7  A    between atoms: C_23  and  C_24
REMARK    8  A    between atoms: C_24  and  O_25
REMARK    9  A    between atoms: C_24  and  C_26
REMARK   10  A    between atoms: C_26  and  C_29
REMARK   11  A    between atoms: C_29  and  O_30
REMARK   12  A    between atoms: O_30  and  C_31
REMARK   13  A    between atoms: C_31  and  C_32
REMARK                            x       y       z     vdW  Elec       q    Type
REMARK                         _______ _______ _______ _____ _____    ______ ____
ROOT
ATOM      1  N   UNL     1       2.823   6.572  19.471  0.00  0.00    +0.000 N 
ATOM      2  C   UNL     1       3.654   6.243  18.416  0.00  0.00    +0.000 A 
ATOM      3  N   UNL     1       3.645   7.236  17.525  0.00  0.00    +0.000 NA
ATOM      4  C   UNL     1       2.784   8.187  17.979  0.00  0.00    +0.000 A 
ATOM      5  C   UNL     1       2.423   9.432  17.451  0.00  0.00    +0.000 A 
ATOM      6  C   UNL     1       1.538  10.238  18.191  0.00  0.00    +0.000 A 
ATOM      7  C   UNL     1       0.936   9.795  19.387  0.00  0.00    +0.000 A 
ATOM      8  C   UNL     1       1.233   8.502  19.824  0.00  0.00    +0.000 A 
ATOM      9  C   UNL     1       2.209   7.765  19.157  0.00  0.00    +0.000 A 
ENDROOT
BRANCH   1  11
ATOM     10  C   UNL     1       1.404   5.051  20.824  0.00  0.00    +0.000 C 
ATOM     11  C   UNL     1       2.645   5.931  20.764  0.00  0.00    +0.000 C 
ENDBRANCH   1  11
BRANCH   2  12
ATOM     12  C   UNL     1       4.453   4.932  18.230  0.00  0.00    +0.000 C 
BRANCH  12  13
ATOM     13  C   UNL     1       3.484   3.730  18.338  0.00  0.00    +0.000 A 
ATOM     14  C   UNL     1       2.206   3.804  17.750  0.00  0.00    +0.000 A 
ATOM     15  C   UNL     1       1.241   2.820  17.976  0.00  0.00    +0.000 A 
ATOM     16  C   UNL     1       1.536   1.725  18.782  0.00  0.00    +0.000 A 
ATOM     17  C   UNL     1       2.803   1.600  19.339  0.00  0.00    +0.000 A 
ATOM     18  C   UNL     1       3.772   2.581  19.107  0.00  0.00    +0.000 A 
ENDBRANCH  12  13
BRANCH  12  19
ATOM     19  C   UNL     1       5.318   4.932  16.955  0.00  0.00    +0.000 A 
ATOM     20  C   UNL     1       4.802   4.419  15.749  0.00  0.00    +0.000 A 
ATOM     21  C   UNL     1       5.594   4.324  14.601  0.00  0.00    +0.000 A 
ATOM     22  C   UNL     1       6.915   4.759  14.624  0.00  0.00    +0.000 A 
ATOM     23  C   UNL     1       7.438   5.310  15.788  0.00  0.00    +0.000 A 
ATOM     24  C   UNL     1       6.645   5.402  16.936  0.00  0.00    +0.000 A 
ENDBRANCH  12  19
BRANCH  12  25
ATOM     25  O   UNL     1       5.393   4.864  19.315  0.00  0.00    +0.000 OA
ATOM     26  H   UNL     1       4.936   4.402  20.029  0.00  0.00    +0.000 HD
ENDBRANCH  12  25
ENDBRANCH   2  12
BRANCH   7  27
ATOM     27  C   UNL     1       0.054  10.718  20.224  0.00  0.00    +0.000 C 
BRANCH  27  28
ATOM     28  C   UNL     1      -1.161  11.412  19.525  0.00  0.00    +0.000 C 
ATOM     29  F   UNL     1      -2.053  11.789  20.497  0.00  0.00    +0.000 F 
ATOM     30  F   UNL     1      -0.742  12.576  18.951  0.00  0.00    +0.000 F 
BRANCH  28  31
ATOM     31  C   UNL     1      -1.955  10.564  18.514  0.00  0.00    +0.000 C 
BRANCH  31  32
ATOM     32  O   UNL     1      -1.980  11.189  17.203  0.00  0.00    +0.000 OA
BRANCH  32  33
ATOM     33  C   UNL     1      -3.110  11.008  16.467  0.00  0.00    +0.000 C 
ATOM     34  C   UNL     1      -2.846  10.149  15.266  0.00  0.00    +0.000 C 
ATOM     35  O   UNL     1      -4.196  11.518  16.709  0.00  0.00    +0.000 OA
ENDBRANCH  32  33
ENDBRANCH  31  32
ENDBRANCH  28  31
ENDBRANCH  27  28
BRANCH  27  36
ATOM     36  O   UNL     1       0.920  11.718  20.803  0.00  0.00    +0.000 OA
ATOM     37  H   UNL     1       0.377  12.517  20.927  0.00  0.00    +0.000 HD
ENDBRANCH  27  36
ENDBRANCH   7  27
TORSDOF 11
ENDMDL
MODEL 8
REMARK VINA RESULT:      -7.8      1.255      3.370
REMARK  Name = 
REMARK  13 active torsions:
REMARK  status: ('A' for Active; 'I' for Inactive)
REMARK    1  A    between atoms: C_1  and  C_2
REMARK    2  A    between atoms: C_2  and  N_3
REMARK    3  A    between atoms: C_4  and  C_5
REMARK    4  A    between atoms: C_5  and  O_6
REMARK    5  A    between atoms: C_5  and  C_7
REMARK    6  A    between atoms: C_5  and  C_13
REMARK    7  A    between atoms: C_23  and  C_24
REMARK    8  A    between atoms: C_24  and  O_25
REMARK    9  A    between atoms: C_24  and  C_26
REMARK   10  A    between atoms: C_26  and  C_29
REMARK   11  A    between atoms: C_29  and  O_30
REMARK   12  A    between atoms: O_30  and  C_31
REMARK   13  A    between atoms: C_31  and  C_32
REMARK                            x       y       z     vdW  Elec       q    Type
REMARK                         _______ _______ _______ _____ _____    ______ ____
ROOT
ATOM      1  N   UNL     1       0.338   9.367  20.338  0.00  0.00    +0.000 N 
ATOM      2  C   UNL     1       0.122  10.421  19.469  0.00  0.00    +0.000 A 
ATOM      3  N   UNL     1       0.862  10.246  18.374  0.00  0.00    +0.000 NA
ATOM      4  C   UNL     1       1.584   9.105  18.545  0.00  0.00    +0.000 A 
ATOM      5  C   UNL     1       2.492   8.453  17.701  0.00  0.00    +0.000 A 
ATOM      6  C   UNL     1       3.046   7.235  18.135  0.00  0.00    +0.000 A 
ATOM      7  C   UNL     1       2.793   6.705  19.418  0.00  0.00    +0.000 A 
ATOM      8  C   UNL     1       1.973   7.442  20.275  0.00  0.00    +0.000 A 
ATOM      9  C   UNL     1       1.325   8.576  19.790  0.00  0.00    +0.000 A 
ENDROOT
BRANCH   1  11
ATOM     10  C   UNL     1       0.385   9.392  22.818  0.00  0.00    +0.000 C 
ATOM     11  C   UNL     1      -0.363   8.990  21.555  0.00  0.00    +0.000 C 
ENDBRANCH   1  11
BRANCH   2  12
ATOM     12  C   UNL     1      -0.788  11.649  19.702  0.00  0.00    +0.000 C 
BRANCH  12  13
ATOM     13  C   UNL     1       0.040  12.939  19.489  0.00  0.00    +0.000 A 
ATOM     14  C   UNL     1      -0.615  14.160  19.236  0.00  0.00    +0.000 A 
ATOM     15  C   UNL     1       0.093  15.304  18.863  0.00  0.00    +0.000 A 
ATOM     16  C   UNL     1       1.478  15.263  18.752  0.00  0.00    +0.000 A 
ATOM     17  C   UNL     1       2.158  14.086  19.041  0.00  0.00    +0.000 A 
ATOM     18  C   UNL     1       1.450  12.942  19.421  0.00  0.00    +0.000 A 
ENDBRANCH  12  13
BRANCH  12  19
ATOM     19  C   UNL     1      -2.091  11.594  18.881  0.00  0.00    +0.000 A 
ATOM     20  C   UNL     1      -2.058  11.217  17.524  0.00  0.00    +0.000 A 
ATOM     21  C   UNL     1      -3.210  11.245  16.732  0.00  0.00    +0.000 A 
ATOM     22  C   UNL     1      -4.428  11.631  17.283  0.00  0.00    +0.000 A 
ATOM     23  C   UNL     1      -4.498  11.967  18.630  0.00  0.00    +0.000 A 
ATOM     24  C   UNL     1      -3.345  11.940  19.420  0.00  0.00    +0.000 A 
ENDBRANCH  12  19
BRANCH  12  25
ATOM     25  O   UNL     1      -1.213  11.596  21.073  0.00  0.00    +0.000 OA
ATOM     26  H   UNL     1      -1.181  12.507  21.393  0.00  0.00    +0.000 HD
ENDBRANCH  12  25
ENDBRANCH   2  12
BRANCH   7  27
ATOM     27  C   UNL     1       3.327   5.337  19.834  0.00  0.00    +0.000 C 
BRANCH  27  28
ATOM     28  C   UNL     1       3.164   4.144  18.836  0.00  0.00    +0.000 C 
ATOM     29  F   UNL     1       2.735   3.051  19.545  0.00  0.00    +0.000 F 
ATOM     30  F   UNL     1       2.155   4.425  17.963  0.00  0.00    +0.000 F 
BRANCH  28  31
ATOM     31  C   UNL     1       4.428   3.700  18.077  0.00  0.00    +0.000 C 
BRANCH  31  32
ATOM     32  O   UNL     1       5.635   4.065  18.799  0.00  0.00    +0.000 OA
BRANCH  32  33
ATOM     33  C   UNL     1       6.629   4.639  18.067  0.00  0.00    +0.000 C 
ATOM     34  C   UNL     1       6.077   5.371  16.880  0.00  0.00    +0.000 C 
ATOM     35  O   UNL     1       7.825   4.533  18.302  0.00  0.00    +0.000 OA
ENDBRANCH  32  33
ENDBRANCH  31  32
ENDBRANCH  28  31
ENDBRANCH  27  28
BRANCH  27  36
ATOM     36  O   UNL     1       2.705   5.007  21.094  0.00  0.00    +0.000 OA
ATOM     37  H   UNL     1       2.985   5.690  21.730  0.00  0.00    +0.000 HD
ENDBRANCH  27  36
ENDBRANCH   7  27
TORSDOF 11
ENDMDL
MODEL 9
REMARK VINA RESULT:      -7.8      1.440      3.326
REMARK  Name = 
REMARK  13 active torsions:
REMARK  status: ('A' for Active; 'I' for Inactive)
REMARK    1  A    between atoms: C_1  and  C_2
REMARK    2  A    between atoms: C_2  and  N_3
REMARK    3  A    between atoms: C_4  and  C_5
REMARK    4  A    between atoms: C_5  and  O_6
REMARK    5  A    between atoms: C_5  and  C_7
REMARK    6  A    between atoms: C_5  and  C_13
REMARK    7  A    between atoms: C_23  and  C_24
REMARK    8  A    between atoms: C_24  and  O_25
REMARK    9  A    between atoms: C_24  and  C_26
REMARK   10  A    between atoms: C_26  and  C_29
REMARK   11  A    between atoms: C_29  and  O_30
REMARK   12  A    between atoms: O_30  and  C_31
REMARK   13  A    between atoms: C_31  and  C_32
REMARK                            x       y       z     vdW  Elec       q    Type
REMARK                         _______ _______ _______ _____ _____    ______ ____
ROOT
ATOM      1  N   UNL     1       0.256   9.725  20.672  0.00  0.00    +0.000 N 
ATOM      2  C   UNL     1       0.167  10.875  19.909  0.00  0.00    +0.000 A 
ATOM      3  N   UNL     1       0.893  10.724  18.800  0.00  0.00    +0.000 NA
ATOM      4  C   UNL     1       1.481   9.499  18.859  0.00  0.00    +0.000 A 
ATOM      5  C   UNL     1       2.317   8.832  17.954  0.00  0.00    +0.000 A 
ATOM      6  C   UNL     1       2.728   7.524  18.268  0.00  0.00    +0.000 A 
ATOM      7  C   UNL     1       2.406   6.905  19.494  0.00  0.00    +0.000 A 
ATOM      8  C   UNL     1       1.666   7.644  20.420  0.00  0.00    +0.000 A 
ATOM      9  C   UNL     1       1.154   8.885  20.048  0.00  0.00    +0.000 A 
ENDROOT
BRANCH   1  11
ATOM     10  C   UNL     1       0.299   9.470  23.139  0.00  0.00    +0.000 C 
ATOM     11  C   UNL     1      -0.493   9.314  21.849  0.00  0.00    +0.000 C 
ENDBRANCH   1  11
BRANCH   2  12
ATOM     12  C   UNL     1      -0.602  12.170  20.261  0.00  0.00    +0.000 C 
BRANCH  12  13
ATOM     13  C   UNL     1       0.171  13.386  19.698  0.00  0.00    +0.000 A 
ATOM     14  C   UNL     1       1.529  13.568  20.026  0.00  0.00    +0.000 A 
ATOM     15  C   UNL     1       2.211  14.739  19.689  0.00  0.00    +0.000 A 
ATOM     16  C   UNL     1       1.557  15.753  18.997  0.00  0.00    +0.000 A 
ATOM     17  C   UNL     1       0.231  15.584  18.617  0.00  0.00    +0.000 A 
ATOM     18  C   UNL     1      -0.450  14.409  18.949  0.00  0.00    +0.000 A 
ENDBRANCH  12  13
BRANCH  12  19
ATOM     19  C   UNL     1      -2.085  12.118  19.845  0.00  0.00    +0.000 A 
ATOM     20  C   UNL     1      -2.465  11.466  18.655  0.00  0.00    +0.000 A 
ATOM     21  C   UNL     1      -3.789  11.481  18.208  0.00  0.00    +0.000 A 
ATOM     22  C   UNL     1      -4.771  12.131  18.949  0.00  0.00    +0.000 A 
ATOM     23  C   UNL     1      -4.432  12.746  20.149  0.00  0.00    +0.000 A 
ATOM     24  C   UNL     1      -3.107  12.731  20.594  0.00  0.00    +0.000 A 
ENDBRANCH  12  19
BRANCH  12  25
ATOM     25  O   UNL     1      -0.624  12.262  21.695  0.00  0.00    +0.000 OA
ATOM     26  H   UNL     1      -1.408  12.783  21.912  0.00  0.00    +0.000 HD
ENDBRANCH  12  25
ENDBRANCH   2  12
BRANCH   7  27
ATOM     27  C   UNL     1       2.780   5.453  19.776  0.00  0.00    +0.000 C 
BRANCH  27  28
ATOM     28  C   UNL     1       2.171   4.341  18.860  0.00  0.00    +0.000 C 
ATOM     29  F   UNL     1       1.139   3.747  19.540  0.00  0.00    +0.000 F 
ATOM     30  F   UNL     1       1.595   4.924  17.770  0.00  0.00    +0.000 F 
BRANCH  28  31
ATOM     31  C   UNL     1       3.117   3.205  18.429  0.00  0.00    +0.000 C 
BRANCH  31  32
ATOM     32  O   UNL     1       3.929   3.595  17.289  0.00  0.00    +0.000 OA
BRANCH  32  33
ATOM     33  C   UNL     1       5.060   4.301  17.562  0.00  0.00    +0.000 C 
ATOM     34  C   UNL     1       5.289   5.378  16.545  0.00  0.00    +0.000 C 
ATOM     35  O   UNL     1       5.830   4.064  18.483  0.00  0.00    +0.000 OA
ENDBRANCH  32  33
ENDBRANCH  31  32
ENDBRANCH  28  31
ENDBRANCH  27  28
BRANCH  27  36
ATOM     36  O   UNL     1       2.441   5.189  21.154  0.00  0.00    +0.000 OA
ATOM     37  H   UNL     1       1.486   5.360  21.243  0.00  0.00    +0.000 HD
ENDBRANCH  27  36
ENDBRANCH   7  27
TORSDOF 11
ENDMDL
