MODEL 1
REMARK VINA RESULT:      -7.9      0.000      0.000
REMARK  Name = 
REMARK  2 active torsions:
REMARK  status: ('A' for Active; 'I' for Inactive)
REMARK    1  A    between atoms: C_5  and  C_7
REMARK    2  A    between atoms: C_11  and  C_12
REMARK                            x       y       z     vdW  Elec       q    Type
REMARK                         _______ _______ _______ _____ _____    ______ ____
ROOT
ATOM      1  O   UNL     1       7.631   6.908  18.120  0.00  0.00    +0.000 OA
ATOM      2  C   UNL     1       7.193   6.105  17.299  0.00  0.00    +0.000 C 
ATOM      3  C   UNL     1       6.417   4.852  17.690  0.00  0.00    +0.000 C 
ATOM      4  N   UNL     1       5.402   4.521  16.675  0.00  0.00    +0.000 N 
ATOM      5  C   UNL     1       4.027   4.353  16.887  0.00  0.00    +0.000 C 
ATOM      6  O   UNL     1       3.226   4.023  16.011  0.00  0.00    +0.000 OA
ATOM      7  C   UNL     1       5.970   4.414  15.357  0.00  0.00    +0.000 A 
ATOM      8  C   UNL     1       5.494   3.524  14.391  0.00  0.00    +0.000 A 
ATOM      9  C   UNL     1       6.093   3.466  13.129  0.00  0.00    +0.000 A 
ATOM     10  C   UNL     1       7.149   4.319  12.809  0.00  0.00    +0.000 A 
ATOM     11  C   UNL     1       7.623   5.226  13.754  0.00  0.00    +0.000 A 
ATOM     12  C   UNL     1       7.055   5.252  15.028  0.00  0.00    +0.000 A 
ATOM     13  N   UNL     1       7.545   6.169  15.972  0.00  0.00    +0.000 N 
ATOM     14  H   UNL     1       8.192   6.897  15.702  0.00  0.00    +0.000 HD
ENDROOT
BRANCH   5  15
ATOM     15  C   UNL     1       3.413   4.585  18.230  0.00  0.00    +0.000 A 
ATOM     16  C   UNL     1       3.155   5.912  18.609  0.00  0.00    +0.000 A 
ATOM     17  C   UNL     1       2.588   6.203  19.851  0.00  0.00    +0.000 A 
ATOM     18  C   UNL     1       2.244   5.168  20.719  0.00  0.00    +0.000 A 
ATOM     19  C   UNL     1       2.520   3.837  20.376  0.00  0.00    +0.000 A 
ATOM     20  C   UNL     1       3.166   3.565  19.155  0.00  0.00    +0.000 A 
BRANCH  19  21
ATOM     21  C   UNL     1       2.094   2.693  21.264  0.00  0.00    +0.000 C 
ATOM     22  F   UNL     1       1.116   3.025  22.151  0.00  0.00    +0.000 F 
ATOM     23  F   UNL     1       1.602   1.649  20.542  0.00  0.00    +0.000 F 
ATOM     24  F   UNL     1       3.121   2.190  22.002  0.00  0.00    +0.000 F 
ENDBRANCH  19  21
ENDBRANCH   5  15
TORSDOF 2
ENDMDL
MODEL 2
REMARK VINA RESULT:      -7.8      4.082      6.969
REMARK  Name = 
REMARK  2 active torsions:
REMARK  status: ('A' for Active; 'I' for Inactive)
REMARK    1  A    between atoms: C_5  and  C_7
REMARK    2  A    between atoms: C_11  and  C_12
REMARK                            x       y       z     vdW  Elec       q    Type
REMARK                         _______ _______ _______ _____ _____    ______ ____
ROOT
ATOM      1  O   UNL     1       3.541   7.872  18.141  0.00  0.00    +0.000 OA
ATOM      2  C   UNL     1       3.201   6.706  18.331  0.00  0.00    +0.000 C 
ATOM      3  C   UNL     1       3.114   5.671  17.215  0.00  0.00    +0.000 C 
ATOM      4  N   UNL     1       3.457   4.327  17.713  0.00  0.00    +0.000 N 
ATOM      5  C   UNL     1       4.448   3.474  17.208  0.00  0.00    +0.000 C 
ATOM      6  O   UNL     1       4.660   2.334  17.628  0.00  0.00    +0.000 OA
ATOM      7  C   UNL     1       2.667   3.956  18.856  0.00  0.00    +0.000 A 
ATOM      8  C   UNL     1       2.270   2.641  19.115  0.00  0.00    +0.000 A 
ATOM      9  C   UNL     1       1.498   2.346  20.243  0.00  0.00    +0.000 A 
ATOM     10  C   UNL     1       1.144   3.354  21.140  0.00  0.00    +0.000 A 
ATOM     11  C   UNL     1       1.548   4.667  20.907  0.00  0.00    +0.000 A 
ATOM     12  C   UNL     1       2.279   4.968  19.757  0.00  0.00    +0.000 A 
ATOM     13  N   UNL     1       2.677   6.296  19.534  0.00  0.00    +0.000 N 
ATOM     14  H   UNL     1       2.568   6.999  20.253  0.00  0.00    +0.000 HD
ENDROOT
BRANCH   5  15
ATOM     15  C   UNL     1       5.356   3.904  16.101  0.00  0.00    +0.000 A 
ATOM     16  C   UNL     1       6.455   4.710  16.436  0.00  0.00    +0.000 A 
ATOM     17  C   UNL     1       7.342   5.153  15.453  0.00  0.00    +0.000 A 
ATOM     18  C   UNL     1       7.156   4.771  14.125  0.00  0.00    +0.000 A 
ATOM     19  C   UNL     1       6.047   3.992  13.761  0.00  0.00    +0.000 A 
ATOM     20  C   UNL     1       5.119   3.620  14.752  0.00  0.00    +0.000 A 
BRANCH  19  21
ATOM     21  C   UNL     1       5.861   3.505  12.345  0.00  0.00    +0.000 C 
ATOM     22  F   UNL     1       6.043   2.163  12.200  0.00  0.00    +0.000 F 
ATOM     23  F   UNL     1       4.606   3.762  11.884  0.00  0.00    +0.000 F 
ATOM     24  F   UNL     1       6.714   4.100  11.469  0.00  0.00    +0.000 F 
ENDBRANCH  19  21
ENDBRANCH   5  15
TORSDOF 2
ENDMDL
MODEL 3
REMARK VINA RESULT:      -7.6      3.922      5.424
REMARK  Name = 
REMARK  2 active torsions:
REMARK  status: ('A' for Active; 'I' for Inactive)
REMARK    1  A    between atoms: C_5  and  C_7
REMARK    2  A    between atoms: C_11  and  C_12
REMARK                            x       y       z     vdW  Elec       q    Type
REMARK                         _______ _______ _______ _____ _____    ______ ____
ROOT
ATOM      1  O   UNL     1       2.310   4.728  21.181  0.00  0.00    +0.000 OA
ATOM      2  C   UNL     1       2.806   5.067  20.109  0.00  0.00    +0.000 C 
ATOM      3  C   UNL     1       2.024   5.795  19.021  0.00  0.00    +0.000 C 
ATOM      4  N   UNL     1       2.893   6.723  18.277  0.00  0.00    +0.000 N 
ATOM      5  C   UNL     1       2.689   8.098  18.093  0.00  0.00    +0.000 C 
ATOM      6  O   UNL     1       3.421   8.822  17.415  0.00  0.00    +0.000 OA
ATOM      7  C   UNL     1       4.061   6.067  17.753  0.00  0.00    +0.000 A 
ATOM      8  C   UNL     1       4.663   6.431  16.545  0.00  0.00    +0.000 A 
ATOM      9  C   UNL     1       5.796   5.750  16.088  0.00  0.00    +0.000 A 
ATOM     10  C   UNL     1       6.358   4.725  16.849  0.00  0.00    +0.000 A 
ATOM     11  C   UNL     1       5.782   4.363  18.065  0.00  0.00    +0.000 A 
ATOM     12  C   UNL     1       4.625   5.012  18.498  0.00  0.00    +0.000 A 
ATOM     13  N   UNL     1       4.053   4.635  19.724  0.00  0.00    +0.000 N 
ATOM     14  H   UNL     1       4.540   4.013  20.355  0.00  0.00    +0.000 HD
ENDROOT
BRANCH   5  15
ATOM     15  C   UNL     1       1.544   8.808  18.740  0.00  0.00    +0.000 A 
ATOM     16  C   UNL     1       0.658   9.510  17.907  0.00  0.00    +0.000 A 
ATOM     17  C   UNL     1      -0.431  10.200  18.443  0.00  0.00    +0.000 A 
ATOM     18  C   UNL     1      -0.665  10.172  19.817  0.00  0.00    +0.000 A 
ATOM     19  C   UNL     1       0.223   9.503  20.672  0.00  0.00    +0.000 A 
ATOM     20  C   UNL     1       1.360   8.880  20.125  0.00  0.00    +0.000 A 
BRANCH  19  21
ATOM     21  C   UNL     1      -0.044   9.396  22.154  0.00  0.00    +0.000 C 
ATOM     22  F   UNL     1      -0.906   8.395  22.483  0.00  0.00    +0.000 F 
ATOM     23  F   UNL     1       1.096   9.151  22.856  0.00  0.00    +0.000 F 
ATOM     24  F   UNL     1      -0.571  10.537  22.676  0.00  0.00    +0.000 F 
ENDBRANCH  19  21
ENDBRANCH   5  15
TORSDOF 2
ENDMDL
MODEL 4
REMARK VINA RESULT:      -7.6      3.909      7.081
REMARK  Name = 
REMARK  2 active torsions:
REMARK  status: ('A' for Active; 'I' for Inactive)
REMARK    1  A    between atoms: C_5  and  C_7
REMARK    2  A    between atoms: C_11  and  C_12
REMARK                            x       y       z     vdW  Elec       q    Type
REMARK                         _______ _______ _______ _____ _____    ______ ____
ROOT
ATOM      1  O   UNL     1       3.745   1.167  17.922  0.00  0.00    +0.000 OA
ATOM      2  C   UNL     1       3.587   2.321  18.315  0.00  0.00    +0.000 C 
ATOM      3  C   UNL     1       4.688   3.375  18.273  0.00  0.00    +0.000 C 
ATOM      4  N   UNL     1       4.127   4.716  18.038  0.00  0.00    +0.000 N 
ATOM      5  C   UNL     1       4.475   5.602  17.009  0.00  0.00    +0.000 C 
ATOM      6  O   UNL     1       4.013   6.738  16.888  0.00  0.00    +0.000 OA
ATOM      7  C   UNL     1       3.101   5.047  18.990  0.00  0.00    +0.000 A 
ATOM      8  C   UNL     1       2.880   6.347  19.453  0.00  0.00    +0.000 A 
ATOM      9  C   UNL     1       1.868   6.603  20.383  0.00  0.00    +0.000 A 
ATOM     10  C   UNL     1       1.045   5.570  20.832  0.00  0.00    +0.000 A 
ATOM     11  C   UNL     1       1.238   4.271  20.366  0.00  0.00    +0.000 A 
ATOM     12  C   UNL     1       2.278   4.010  19.473  0.00  0.00    +0.000 A 
ATOM     13  N   UNL     1       2.464   2.696  19.013  0.00  0.00    +0.000 N 
ATOM     14  H   UNL     1       1.778   1.977  19.203  0.00  0.00    +0.000 HD
ENDROOT
BRANCH   5  15
ATOM     15  C   UNL     1       5.451   5.214  15.945  0.00  0.00    +0.000 A 
ATOM     16  C   UNL     1       6.809   5.483  16.176  0.00  0.00    +0.000 A 
ATOM     17  C   UNL     1       7.774   5.152  15.224  0.00  0.00    +0.000 A 
ATOM     18  C   UNL     1       7.396   4.520  14.039  0.00  0.00    +0.000 A 
ATOM     19  C   UNL     1       6.042   4.270  13.773  0.00  0.00    +0.000 A 
ATOM     20  C   UNL     1       5.074   4.682  14.707  0.00  0.00    +0.000 A 
BRANCH  19  21
ATOM     21  C   UNL     1       5.612   3.524  12.533  0.00  0.00    +0.000 C 
ATOM     22  F   UNL     1       4.291   3.672  12.238  0.00  0.00    +0.000 F 
ATOM     23  F   UNL     1       6.289   3.947  11.430  0.00  0.00    +0.000 F 
ATOM     24  F   UNL     1       5.834   2.185  12.622  0.00  0.00    +0.000 F 
ENDBRANCH  19  21
ENDBRANCH   5  15
TORSDOF 2
ENDMDL
MODEL 5
REMARK VINA RESULT:      -7.2      4.749      7.364
REMARK  Name = 
REMARK  2 active torsions:
REMARK  status: ('A' for Active; 'I' for Inactive)
REMARK    1  A    between atoms: C_5  and  C_7
REMARK    2  A    between atoms: C_11  and  C_12
REMARK                            x       y       z     vdW  Elec       q    Type
REMARK                         _______ _______ _______ _____ _____    ______ ____
ROOT
ATOM      1  O   UNL     1      -0.586   7.876  21.881  0.00  0.00    +0.000 OA
ATOM      2  C   UNL     1      -0.065   8.739  21.178  0.00  0.00    +0.000 C 
ATOM      3  C   UNL     1       1.387   8.675  20.718  0.00  0.00    +0.000 C 
ATOM      4  N   UNL     1       1.547   9.282  19.385  0.00  0.00    +0.000 N 
ATOM      5  C   UNL     1       2.097   8.675  18.247  0.00  0.00    +0.000 C 
ATOM      6  O   UNL     1       2.257   9.247  17.167  0.00  0.00    +0.000 OA
ATOM      7  C   UNL     1       1.025  10.622  19.336  0.00  0.00    +0.000 A 
ATOM      8  C   UNL     1       1.581  11.628  18.541  0.00  0.00    +0.000 A 
ATOM      9  C   UNL     1       1.029  12.913  18.541  0.00  0.00    +0.000 A 
ATOM     10  C   UNL     1      -0.103  13.195  19.306  0.00  0.00    +0.000 A 
ATOM     11  C   UNL     1      -0.682  12.198  20.089  0.00  0.00    +0.000 A 
ATOM     12  C   UNL     1      -0.102  10.929  20.124  0.00  0.00    +0.000 A 
ATOM     13  N   UNL     1      -0.694   9.934  20.920  0.00  0.00    +0.000 N 
ATOM     14  H   UNL     1      -1.599  10.080  21.346  0.00  0.00    +0.000 HD
ENDROOT
BRANCH   5  15
ATOM     15  C   UNL     1       2.526   7.244  18.260  0.00  0.00    +0.000 A 
ATOM     16  C   UNL     1       3.785   6.936  17.721  0.00  0.00    +0.000 A 
ATOM     17  C   UNL     1       4.248   5.619  17.695  0.00  0.00    +0.000 A 
ATOM     18  C   UNL     1       3.469   4.596  18.236  0.00  0.00    +0.000 A 
ATOM     19  C   UNL     1       2.195   4.875  18.751  0.00  0.00    +0.000 A 
ATOM     20  C   UNL     1       1.709   6.195  18.697  0.00  0.00    +0.000 A 
BRANCH  19  21
ATOM     21  C   UNL     1       1.361   3.800  19.406  0.00  0.00    +0.000 C 
ATOM     22  F   UNL     1       0.622   3.071  18.526  0.00  0.00    +0.000 F 
ATOM     23  F   UNL     1       2.134   2.902  20.077  0.00  0.00    +0.000 F 
ATOM     24  F   UNL     1       0.484   4.300  20.318  0.00  0.00    +0.000 F 
ENDBRANCH  19  21
ENDBRANCH   5  15
TORSDOF 2
ENDMDL
MODEL 6
REMARK VINA RESULT:      -7.1      4.997      7.855
REMARK  Name = 
REMARK  2 active torsions:
REMARK  status: ('A' for Active; 'I' for Inactive)
REMARK    1  A    between atoms: C_5  and  C_7
REMARK    2  A    between atoms: C_11  and  C_12
REMARK                            x       y       z     vdW  Elec       q    Type
REMARK                         _______ _______ _______ _____ _____    ______ ____
ROOT
ATOM      1  O   UNL     1       2.461  10.831  17.290  0.00  0.00    +0.000 OA
ATOM      2  C   UNL     1       1.854  10.360  18.250  0.00  0.00    +0.000 C 
ATOM      3  C   UNL     1       1.234   8.967  18.242  0.00  0.00    +0.000 C 
ATOM      4  N   UNL     1       1.281   8.361  19.584  0.00  0.00    +0.000 N 
ATOM      5  C   UNL     1       1.853   7.127  19.927  0.00  0.00    +0.000 C 
ATOM      6  O   UNL     1       1.819   6.639  21.058  0.00  0.00    +0.000 OA
ATOM      7  C   UNL     1       0.688   9.209  20.582  0.00  0.00    +0.000 A 
ATOM      8  C   UNL     1       0.000   8.714  21.694  0.00  0.00    +0.000 A 
ATOM      9  C   UNL     1      -0.559   9.593  22.627  0.00  0.00    +0.000 A 
ATOM     10  C   UNL     1      -0.406  10.971  22.477  0.00  0.00    +0.000 A 
ATOM     11  C   UNL     1       0.293  11.481  21.386  0.00  0.00    +0.000 A 
ATOM     12  C   UNL     1       0.811  10.605  20.431  0.00  0.00    +0.000 A 
ATOM     13  N   UNL     1       1.511  11.132  19.333  0.00  0.00    +0.000 N 
ATOM     14  H   UNL     1       1.766  12.111  19.302  0.00  0.00    +0.000 HD
ENDROOT
BRANCH   5  15
ATOM     15  C   UNL     1       2.581   6.299  18.918  0.00  0.00    +0.000 A 
ATOM     16  C   UNL     1       2.160   4.972  18.737  0.00  0.00    +0.000 A 
ATOM     17  C   UNL     1       2.797   4.140  17.815  0.00  0.00    +0.000 A 
ATOM     18  C   UNL     1       3.845   4.634  17.039  0.00  0.00    +0.000 A 
ATOM     19  C   UNL     1       4.303   5.946  17.223  0.00  0.00    +0.000 A 
ATOM     20  C   UNL     1       3.703   6.748  18.213  0.00  0.00    +0.000 A 
BRANCH  19  21
ATOM     21  C   UNL     1       5.387   6.529  16.349  0.00  0.00    +0.000 C 
ATOM     22  F   UNL     1       6.258   5.601  15.866  0.00  0.00    +0.000 F 
ATOM     23  F   UNL     1       4.870   7.158  15.257  0.00  0.00    +0.000 F 
ATOM     24  F   UNL     1       6.142   7.457  16.997  0.00  0.00    +0.000 F 
ENDBRANCH  19  21
ENDBRANCH   5  15
TORSDOF 2
ENDMDL
MODEL 7
REMARK VINA RESULT:      -7.1      6.529      9.581
REMARK  Name = 
REMARK  2 active torsions:
REMARK  status: ('A' for Active; 'I' for Inactive)
REMARK    1  A    between atoms: C_5  and  C_7
REMARK    2  A    between atoms: C_11  and  C_12
REMARK                            x       y       z     vdW  Elec       q    Type
REMARK                         _______ _______ _______ _____ _____    ______ ____
ROOT
ATOM      1  O   UNL     1      -2.061  11.463  17.173  0.00  0.00    +0.000 OA
ATOM      2  C   UNL     1      -1.900  11.539  18.389  0.00  0.00    +0.000 C 
ATOM      3  C   UNL     1      -1.524  10.343  19.257  0.00  0.00    +0.000 C 
ATOM      4  N   UNL     1      -0.677  10.756  20.388  0.00  0.00    +0.000 N 
ATOM      5  C   UNL     1       0.591  10.253  20.714  0.00  0.00    +0.000 C 
ATOM      6  O   UNL     1       1.238  10.596  21.706  0.00  0.00    +0.000 OA
ATOM      7  C   UNL     1      -1.279  11.812  21.158  0.00  0.00    +0.000 A 
ATOM      8  C   UNL     1      -1.111  11.941  22.539  0.00  0.00    +0.000 A 
ATOM      9  C   UNL     1      -1.728  12.988  23.231  0.00  0.00    +0.000 A 
ATOM     10  C   UNL     1      -2.488  13.935  22.545  0.00  0.00    +0.000 A 
ATOM     11  C   UNL     1      -2.650  13.833  21.165  0.00  0.00    +0.000 A 
ATOM     12  C   UNL     1      -2.072  12.761  20.483  0.00  0.00    +0.000 A 
ATOM     13  N   UNL     1      -2.246  12.668  19.092  0.00  0.00    +0.000 N 
ATOM     14  H   UNL     1      -2.653  13.431  18.567  0.00  0.00    +0.000 HD
ENDROOT
BRANCH   5  15
ATOM     15  C   UNL     1       1.275   9.246  19.847  0.00  0.00    +0.000 A 
ATOM     16  C   UNL     1       1.627   9.638  18.546  0.00  0.00    +0.000 A 
ATOM     17  C   UNL     1       2.263   8.747  17.680  0.00  0.00    +0.000 A 
ATOM     18  C   UNL     1       2.584   7.462  18.115  0.00  0.00    +0.000 A 
ATOM     19  C   UNL     1       2.214   7.037  19.399  0.00  0.00    +0.000 A 
ATOM     20  C   UNL     1       1.502   7.920  20.232  0.00  0.00    +0.000 A 
BRANCH  19  21
ATOM     21  C   UNL     1       2.610   5.677  19.921  0.00  0.00    +0.000 C 
ATOM     22  F   UNL     1       2.127   5.406  21.164  0.00  0.00    +0.000 F 
ATOM     23  F   UNL     1       2.154   4.677  19.118  0.00  0.00    +0.000 F 
ATOM     24  F   UNL     1       3.959   5.516  19.995  0.00  0.00    +0.000 F 
ENDBRANCH  19  21
ENDBRANCH   5  15
TORSDOF 2
ENDMDL
MODEL 8
REMARK VINA RESULT:      -7.0      3.778      5.392
REMARK  Name = 
REMARK  2 active torsions:
REMARK  status: ('A' for Active; 'I' for Inactive)
REMARK    1  A    between atoms: C_5  and  C_7
REMARK    2  A    between atoms: C_11  and  C_12
REMARK                            x       y       z     vdW  Elec       q    Type
REMARK                         _______ _______ _______ _____ _____    ______ ____
ROOT
ATOM      1  O   UNL     1       1.243   4.039  19.846  0.00  0.00    +0.000 OA
ATOM      2  C   UNL     1       2.011   4.544  19.030  0.00  0.00    +0.000 C 
ATOM      3  C   UNL     1       1.610   5.688  18.106  0.00  0.00    +0.000 C 
ATOM      4  N   UNL     1       2.754   6.578  17.840  0.00  0.00    +0.000 N 
ATOM      5  C   UNL     1       2.809   7.962  18.058  0.00  0.00    +0.000 C 
ATOM      6  O   UNL     1       3.774   8.671  17.768  0.00  0.00    +0.000 OA
ATOM      7  C   UNL     1       3.895   5.857  17.342  0.00  0.00    +0.000 A 
ATOM      8  C   UNL     1       4.799   6.399  16.424  0.00  0.00    +0.000 A 
ATOM      9  C   UNL     1       5.887   5.645  15.975  0.00  0.00    +0.000 A 
ATOM     10  C   UNL     1       6.103   4.357  16.465  0.00  0.00    +0.000 A 
ATOM     11  C   UNL     1       5.223   3.808  17.396  0.00  0.00    +0.000 A 
ATOM     12  C   UNL     1       4.112   4.545  17.808  0.00  0.00    +0.000 A 
ATOM     13  N   UNL     1       3.231   3.979  18.745  0.00  0.00    +0.000 N 
ATOM     14  H   UNL     1       3.465   3.120  19.225  0.00  0.00    +0.000 HD
ENDROOT
BRANCH   5  15
ATOM     15  C   UNL     1       1.671   8.695  18.691  0.00  0.00    +0.000 A 
ATOM     16  C   UNL     1       0.824   9.435  17.851  0.00  0.00    +0.000 A 
ATOM     17  C   UNL     1      -0.256  10.148  18.375  0.00  0.00    +0.000 A 
ATOM     18  C   UNL     1      -0.521  10.106  19.743  0.00  0.00    +0.000 A 
ATOM     19  C   UNL     1       0.329   9.399  20.606  0.00  0.00    +0.000 A 
ATOM     20  C   UNL     1       1.459   8.751  20.074  0.00  0.00    +0.000 A 
BRANCH  19  21
ATOM     21  C   UNL     1       0.026   9.277  22.080  0.00  0.00    +0.000 C 
ATOM     22  F   UNL     1       1.120   8.997  22.841  0.00  0.00    +0.000 F 
ATOM     23  F   UNL     1      -0.492  10.431  22.585  0.00  0.00    +0.000 F 
ATOM     24  F   UNL     1      -0.884   8.304  22.350  0.00  0.00    +0.000 F 
ENDBRANCH  19  21
ENDBRANCH   5  15
TORSDOF 2
ENDMDL
MODEL 9
REMARK VINA RESULT:      -7.0      4.798      6.141
REMARK  Name = 
REMARK  2 active torsions:
REMARK  status: ('A' for Active; 'I' for Inactive)
REMARK    1  A    between atoms: C_5  and  C_7
REMARK    2  A    between atoms: C_11  and  C_12
REMARK                            x       y       z     vdW  Elec       q    Type
REMARK                         _______ _______ _______ _____ _____    ______ ____
ROOT
ATOM      1  O   UNL     1       2.448   4.655  21.009  0.00  0.00    +0.000 OA
ATOM      2  C   UNL     1       2.915   5.042  19.940  0.00  0.00    +0.000 C 
ATOM      3  C   UNL     1       2.094   5.788  18.893  0.00  0.00    +0.000 C 
ATOM      4  N   UNL     1       2.927   6.761  18.164  0.00  0.00    +0.000 N 
ATOM      5  C   UNL     1       2.688   8.136  18.031  0.00  0.00    +0.000 C 
ATOM      6  O   UNL     1       3.388   8.899  17.364  0.00  0.00    +0.000 OA
ATOM      7  C   UNL     1       4.098   6.150  17.595  0.00  0.00    +0.000 A 
ATOM      8  C   UNL     1       4.667   6.568  16.389  0.00  0.00    +0.000 A 
ATOM      9  C   UNL     1       5.805   5.930  15.887  0.00  0.00    +0.000 A 
ATOM     10  C   UNL     1       6.406   4.893  16.601  0.00  0.00    +0.000 A 
ATOM     11  C   UNL     1       5.863   4.477  17.815  0.00  0.00    +0.000 A 
ATOM     12  C   UNL     1       4.701   5.084  18.293  0.00  0.00    +0.000 A 
ATOM     13  N   UNL     1       4.163   4.653  19.516  0.00  0.00    +0.000 N 
ATOM     14  H   UNL     1       4.677   4.021  20.116  0.00  0.00    +0.000 HD
ENDROOT
BRANCH   5  15
ATOM     15  C   UNL     1       1.540   8.796  18.724  0.00  0.00    +0.000 A 
ATOM     16  C   UNL     1       1.462   8.673  20.120  0.00  0.00    +0.000 A 
ATOM     17  C   UNL     1       0.415   9.260  20.832  0.00  0.00    +0.000 A 
ATOM     18  C   UNL     1      -0.553  10.004  20.159  0.00  0.00    +0.000 A 
ATOM     19  C   UNL     1      -0.515  10.116  18.762  0.00  0.00    +0.000 A 
ATOM     20  C   UNL     1       0.502   9.451  18.051  0.00  0.00    +0.000 A 
BRANCH  19  21
ATOM     21  C   UNL     1      -1.507  10.973  18.015  0.00  0.00    +0.000 C 
ATOM     22  F   UNL     1      -2.714  11.079  18.637  0.00  0.00    +0.000 F 
ATOM     23  F   UNL     1      -1.055  12.248  17.859  0.00  0.00    +0.000 F 
ATOM     24  F   UNL     1      -1.765  10.508  16.763  0.00  0.00    +0.000 F 
ENDBRANCH  19  21
ENDBRANCH   5  15
TORSDOF 2
ENDMDL
