MODEL 1
REMARK VINA RESULT:      -8.8      0.000      0.000
REMARK  Name = 
REMARK  8 active torsions:
REMARK  status: ('A' for Active; 'I' for Inactive)
REMARK    1  A    between atoms: C_1  and  C_2
REMARK    2  A    between atoms: C_2  and  O_3
REMARK    3  A    between atoms: O_3  and  C_4
REMARK    4  A    between atoms: C_7  and  O_8
REMARK    5  A    between atoms: O_8  and  C_9
REMARK    6  A    between atoms: C_11  and  C_12
REMARK    7  A    between atoms: N_13  and  O_14
REMARK    8  A    between atoms: N_15  and  C_16
REMARK                            x       y       z     vdW  Elec       q    Type
REMARK                         _______ _______ _______ _____ _____    ______ ____
ROOT
ATOM      1  C   UNL     1       7.050   5.511  16.313  0.00  0.00    +0.000 A 
ATOM      2  C   UNL     1       5.767   5.948  16.600  0.00  0.00    +0.000 A 
ATOM      3  C   UNL     1       5.319   5.826  17.921  0.00  0.00    +0.000 A 
ATOM      4  C   UNL     1       6.156   5.274  18.886  0.00  0.00    +0.000 A 
ATOM      5  C   UNL     1       7.399   4.824  18.488  0.00  0.00    +0.000 A 
ATOM      6  N   UNL     1       7.858   4.924  17.228  0.00  0.00    +0.000 NA
ENDROOT
BRANCH   3   7
ATOM      7  C   UNL     1       3.919   6.232  18.307  0.00  0.00    +0.000 C 
ATOM      8  N   UNL     1       3.518   7.319  17.718  0.00  0.00    +0.000 NA
ATOM      9  N   UNL     1       3.274   5.403  19.217  0.00  0.00    +0.000 N 
ATOM     10  H   UNL     1       3.855   4.709  19.670  0.00  0.00    +0.000 HD
BRANCH   9  11
ATOM     11  C   UNL     1       1.843   5.151  19.362  0.00  0.00    +0.000 C 
ATOM     12  C   UNL     1       1.339   4.185  18.279  0.00  0.00    +0.000 C 
ATOM     13  C   UNL     1       1.816   2.742  18.459  0.00  0.00    +0.000 C 
ATOM     14  C   UNL     1       1.549   2.208  19.863  0.00  0.00    +0.000 C 
ATOM     15  C   UNL     1       2.082   3.145  20.941  0.00  0.00    +0.000 C 
ATOM     16  C   UNL     1       1.563   4.572  20.760  0.00  0.00    +0.000 C 
ENDBRANCH   9  11
BRANCH   8  17
ATOM     17  O   UNL     1       2.252   7.745  18.108  0.00  0.00    +0.000 OA
ATOM     18  H   UNL     1       1.868   8.035  17.261  0.00  0.00    +0.000 HD
ENDBRANCH   8  17
ENDBRANCH   3   7
BRANCH   1  19
ATOM     19  O   UNL     1       7.510   5.671  15.010  0.00  0.00    +0.000 OA
BRANCH  19  23
ATOM     20  C   UNL     1       5.665   3.339  12.063  0.00  0.00    +0.000 A 
ATOM     21  C   UNL     1       5.073   3.526  13.314  0.00  0.00    +0.000 A 
ATOM     22  C   UNL     1       5.709   4.302  14.291  0.00  0.00    +0.000 A 
ATOM     23  C   UNL     1       6.952   4.879  14.025  0.00  0.00    +0.000 A 
ATOM     24  C   UNL     1       7.538   4.691  12.769  0.00  0.00    +0.000 A 
ATOM     25  C   UNL     1       6.916   3.896  11.805  0.00  0.00    +0.000 A 
BRANCH  20  26
ATOM     26  O   UNL     1       4.945   2.595  11.169  0.00  0.00    +0.000 OA
BRANCH  26  28
ATOM     27  C   UNL     1       3.375   3.949   9.988  0.00  0.00    +0.000 C 
ATOM     28  C   UNL     1       3.553   2.913  11.082  0.00  0.00    +0.000 C 
ENDBRANCH  26  28
ENDBRANCH  20  26
ENDBRANCH  19  23
ENDBRANCH   1  19
TORSDOF 7
ENDMDL
MODEL 2
REMARK VINA RESULT:      -8.5      0.961      1.241
REMARK  Name = 
REMARK  8 active torsions:
REMARK  status: ('A' for Active; 'I' for Inactive)
REMARK    1  A    between atoms: C_1  and  C_2
REMARK    2  A    between atoms: C_2  and  O_3
REMARK    3  A    between atoms: O_3  and  C_4
REMARK    4  A    between atoms: C_7  and  O_8
REMARK    5  A    between atoms: O_8  and  C_9
REMARK    6  A    between atoms: C_11  and  C_12
REMARK    7  A    between atoms: N_13  and  O_14
REMARK    8  A    between atoms: N_15  and  C_16
REMARK                            x       y       z     vdW  Elec       q    Type
REMARK                         _______ _______ _______ _____ _____    ______ ____
ROOT
ATOM      1  C   UNL     1       7.020   5.602  16.413  0.00  0.00    +0.000 A 
ATOM      2  C   UNL     1       5.719   5.979  16.698  0.00  0.00    +0.000 A 
ATOM      3  C   UNL     1       5.272   5.827  18.017  0.00  0.00    +0.000 A 
ATOM      4  C   UNL     1       6.131   5.306  18.981  0.00  0.00    +0.000 A 
ATOM      5  C   UNL     1       7.395   4.916  18.584  0.00  0.00    +0.000 A 
ATOM      6  N   UNL     1       7.851   5.046  17.326  0.00  0.00    +0.000 NA
ENDROOT
BRANCH   3   7
ATOM      7  C   UNL     1       3.854   6.167  18.402  0.00  0.00    +0.000 C 
ATOM      8  N   UNL     1       3.422   7.263  17.855  0.00  0.00    +0.000 NA
ATOM      9  N   UNL     1       3.228   5.276  19.265  0.00  0.00    +0.000 N 
ATOM     10  H   UNL     1       3.829   4.583  19.696  0.00  0.00    +0.000 HD
BRANCH   9  11
ATOM     11  C   UNL     1       1.806   4.967  19.381  0.00  0.00    +0.000 C 
ATOM     12  C   UNL     1       1.314   4.164  18.166  0.00  0.00    +0.000 C 
ATOM     13  C   UNL     1       1.828   2.724  18.122  0.00  0.00    +0.000 C 
ATOM     14  C   UNL     1       1.590   1.976  19.431  0.00  0.00    +0.000 C 
ATOM     15  C   UNL     1       2.111   2.753  20.635  0.00  0.00    +0.000 C 
ATOM     16  C   UNL     1       1.555   4.177  20.677  0.00  0.00    +0.000 C 
ENDBRANCH   9  11
BRANCH   8  17
ATOM     17  O   UNL     1       2.137   7.627  18.245  0.00  0.00    +0.000 OA
ATOM     18  H   UNL     1       2.227   7.676  19.214  0.00  0.00    +0.000 HD
ENDBRANCH   8  17
ENDBRANCH   3   7
BRANCH   1  19
ATOM     19  O   UNL     1       7.477   5.792  15.113  0.00  0.00    +0.000 OA
BRANCH  19  23
ATOM     20  C   UNL     1       6.110   3.071  12.239  0.00  0.00    +0.000 A 
ATOM     21  C   UNL     1       5.569   3.098  13.527  0.00  0.00    +0.000 A 
ATOM     22  C   UNL     1       6.044   4.009  14.477  0.00  0.00    +0.000 A 
ATOM     23  C   UNL     1       7.080   4.885  14.148  0.00  0.00    +0.000 A 
ATOM     24  C   UNL     1       7.614   4.857  12.856  0.00  0.00    +0.000 A 
ATOM     25  C   UNL     1       7.158   3.931  11.917  0.00  0.00    +0.000 A 
BRANCH  20  26
ATOM     26  O   UNL     1       5.549   2.169  11.377  0.00  0.00    +0.000 OA
BRANCH  26  28
ATOM     27  C   UNL     1       6.082  -0.156  11.299  0.00  0.00    +0.000 C 
ATOM     28  C   UNL     1       6.455   1.226  10.797  0.00  0.00    +0.000 C 
ENDBRANCH  26  28
ENDBRANCH  20  26
ENDBRANCH  19  23
ENDBRANCH   1  19
TORSDOF 7
ENDMDL
MODEL 3
REMARK VINA RESULT:      -8.0      5.226      8.710
REMARK  Name = 
REMARK  8 active torsions:
REMARK  status: ('A' for Active; 'I' for Inactive)
REMARK    1  A    between atoms: C_1  and  C_2
REMARK    2  A    between atoms: C_2  and  O_3
REMARK    3  A    between atoms: O_3  and  C_4
REMARK    4  A    between atoms: C_7  and  O_8
REMARK    5  A    between atoms: O_8  and  C_9
REMARK    6  A    between atoms: C_11  and  C_12
REMARK    7  A    between atoms: N_13  and  O_14
REMARK    8  A    between atoms: N_15  and  C_16
REMARK                            x       y       z     vdW  Elec       q    Type
REMARK                         _______ _______ _______ _____ _____    ______ ____
ROOT
ATOM      1  C   UNL     1       0.928   9.784  19.029  0.00  0.00    +0.000 A 
ATOM      2  C   UNL     1       1.638   8.894  18.239  0.00  0.00    +0.000 A 
ATOM      3  C   UNL     1       2.143   7.741  18.852  0.00  0.00    +0.000 A 
ATOM      4  C   UNL     1       1.926   7.529  20.210  0.00  0.00    +0.000 A 
ATOM      5  C   UNL     1       1.246   8.500  20.920  0.00  0.00    +0.000 A 
ATOM      6  N   UNL     1       0.753   9.619  20.361  0.00  0.00    +0.000 NA
ENDROOT
BRANCH   3   7
ATOM      7  C   UNL     1       2.969   6.746  18.076  0.00  0.00    +0.000 C 
ATOM      8  N   UNL     1       4.036   7.264  17.546  0.00  0.00    +0.000 NA
ATOM      9  N   UNL     1       2.480   5.445  18.041  0.00  0.00    +0.000 N 
ATOM     10  H   UNL     1       1.535   5.320  18.384  0.00  0.00    +0.000 HD
BRANCH   9  11
ATOM     11  C   UNL     1       3.225   4.196  17.914  0.00  0.00    +0.000 C 
ATOM     12  C   UNL     1       3.900   3.818  19.242  0.00  0.00    +0.000 C 
ATOM     13  C   UNL     1       2.926   3.361  20.329  0.00  0.00    +0.000 C 
ATOM     14  C   UNL     1       1.978   2.268  19.844  0.00  0.00    +0.000 C 
ATOM     15  C   UNL     1       1.276   2.655  18.547  0.00  0.00    +0.000 C 
ATOM     16  C   UNL     1       2.273   3.073  17.466  0.00  0.00    +0.000 C 
ENDBRANCH   9  11
BRANCH   8  17
ATOM     17  O   UNL     1       4.779   6.377  16.775  0.00  0.00    +0.000 OA
ATOM     18  H   UNL     1       4.315   6.416  15.919  0.00  0.00    +0.000 HD
ENDBRANCH   8  17
ENDBRANCH   3   7
BRANCH   1  19
ATOM     19  O   UNL     1       0.391  10.908  18.411  0.00  0.00    +0.000 OA
BRANCH  19  23
ATOM     20  C   UNL     1      -3.766  10.903  17.914  0.00  0.00    +0.000 A 
ATOM     21  C   UNL     1      -2.950  10.018  17.205  0.00  0.00    +0.000 A 
ATOM     22  C   UNL     1      -1.561  10.040  17.377  0.00  0.00    +0.000 A 
ATOM     23  C   UNL     1      -0.980  10.963  18.247  0.00  0.00    +0.000 A 
ATOM     24  C   UNL     1      -1.801  11.844  18.958  0.00  0.00    +0.000 A 
ATOM     25  C   UNL     1      -3.184  11.839  18.766  0.00  0.00    +0.000 A 
BRANCH  20  26
ATOM     26  O   UNL     1      -5.111  10.774  17.700  0.00  0.00    +0.000 OA
BRANCH  26  28
ATOM     27  C   UNL     1      -6.843  10.057  19.176  0.00  0.00    +0.000 C 
ATOM     28  C   UNL     1      -5.951  11.214  18.771  0.00  0.00    +0.000 C 
ENDBRANCH  26  28
ENDBRANCH  20  26
ENDBRANCH  19  23
ENDBRANCH   1  19
TORSDOF 7
ENDMDL
MODEL 4
REMARK VINA RESULT:      -7.9      5.189      8.682
REMARK  Name = 
REMARK  8 active torsions:
REMARK  status: ('A' for Active; 'I' for Inactive)
REMARK    1  A    between atoms: C_1  and  C_2
REMARK    2  A    between atoms: C_2  and  O_3
REMARK    3  A    between atoms: O_3  and  C_4
REMARK    4  A    between atoms: C_7  and  O_8
REMARK    5  A    between atoms: O_8  and  C_9
REMARK    6  A    between atoms: C_11  and  C_12
REMARK    7  A    between atoms: N_13  and  O_14
REMARK    8  A    between atoms: N_15  and  C_16
REMARK                            x       y       z     vdW  Elec       q    Type
REMARK                         _______ _______ _______ _____ _____    ______ ____
ROOT
ATOM      1  C   UNL     1       1.187   9.536  18.960  0.00  0.00    +0.000 A 
ATOM      2  C   UNL     1       1.907   8.668  18.157  0.00  0.00    +0.000 A 
ATOM      3  C   UNL     1       2.373   7.481  18.737  0.00  0.00    +0.000 A 
ATOM      4  C   UNL     1       2.108   7.217  20.077  0.00  0.00    +0.000 A 
ATOM      5  C   UNL     1       1.422   8.170  20.805  0.00  0.00    +0.000 A 
ATOM      6  N   UNL     1       0.965   9.319  20.278  0.00  0.00    +0.000 NA
ENDROOT
BRANCH   3   7
ATOM      7  C   UNL     1       3.206   6.504  17.946  0.00  0.00    +0.000 C 
ATOM      8  N   UNL     1       4.295   7.027  17.466  0.00  0.00    +0.000 NA
ATOM      9  N   UNL     1       2.701   5.213  17.847  0.00  0.00    +0.000 N 
ATOM     10  H   UNL     1       1.746   5.089  18.159  0.00  0.00    +0.000 HD
BRANCH   9  11
ATOM     11  C   UNL     1       3.432   3.959  17.694  0.00  0.00    +0.000 C 
ATOM     12  C   UNL     1       4.197   3.604  18.978  0.00  0.00    +0.000 C 
ATOM     13  C   UNL     1       3.300   3.171  20.139  0.00  0.00    +0.000 C 
ATOM     14  C   UNL     1       2.318   2.073  19.742  0.00  0.00    +0.000 C 
ATOM     15  C   UNL     1       1.529   2.437  18.489  0.00  0.00    +0.000 C 
ATOM     16  C   UNL     1       2.449   2.832  17.333  0.00  0.00    +0.000 C 
ENDBRANCH   9  11
BRANCH   8  17
ATOM     17  O   UNL     1       5.047   6.159  16.682  0.00  0.00    +0.000 OA
ATOM     18  H   UNL     1       5.953   6.489  16.828  0.00  0.00    +0.000 HD
ENDBRANCH   8  17
ENDBRANCH   3   7
BRANCH   1  19
ATOM     19  O   UNL     1       0.689  10.695  18.373  0.00  0.00    +0.000 OA
BRANCH  19  23
ATOM     20  C   UNL     1      -3.414  11.518  18.526  0.00  0.00    +0.000 A 
ATOM     21  C   UNL     1      -2.501  12.232  19.306  0.00  0.00    +0.000 A 
ATOM     22  C   UNL     1      -1.134  11.938  19.249  0.00  0.00    +0.000 A 
ATOM     23  C   UNL     1      -0.675  10.910  18.423  0.00  0.00    +0.000 A 
ATOM     24  C   UNL     1      -1.593  10.201  17.641  0.00  0.00    +0.000 A 
ATOM     25  C   UNL     1      -2.958  10.478  17.719  0.00  0.00    +0.000 A 
BRANCH  20  26
ATOM     26  O   UNL     1      -4.720  11.909  18.630  0.00  0.00    +0.000 OA
BRANCH  26  28
ATOM     27  C   UNL     1      -6.740  10.639  18.592  0.00  0.00    +0.000 C 
ATOM     28  C   UNL     1      -5.634  11.247  17.751  0.00  0.00    +0.000 C 
ENDBRANCH  26  28
ENDBRANCH  20  26
ENDBRANCH  19  23
ENDBRANCH   1  19
TORSDOF 7
ENDMDL
MODEL 5
REMARK VINA RESULT:      -7.9      0.921      1.465
REMARK  Name = 
REMARK  8 active torsions:
REMARK  status: ('A' for Active; 'I' for Inactive)
REMARK    1  A    between atoms: C_1  and  C_2
REMARK    2  A    between atoms: C_2  and  O_3
REMARK    3  A    between atoms: O_3  and  C_4
REMARK    4  A    between atoms: C_7  and  O_8
REMARK    5  A    between atoms: O_8  and  C_9
REMARK    6  A    between atoms: C_11  and  C_12
REMARK    7  A    between atoms: N_13  and  O_14
REMARK    8  A    between atoms: N_15  and  C_16
REMARK                            x       y       z     vdW  Elec       q    Type
REMARK                         _______ _______ _______ _____ _____    ______ ____
ROOT
ATOM      1  C   UNL     1       7.078   5.645  16.686  0.00  0.00    +0.000 A 
ATOM      2  C   UNL     1       5.746   5.978  16.870  0.00  0.00    +0.000 A 
ATOM      3  C   UNL     1       5.232   5.906  18.171  0.00  0.00    +0.000 A 
ATOM      4  C   UNL     1       6.056   5.503  19.218  0.00  0.00    +0.000 A 
ATOM      5  C   UNL     1       7.357   5.146  18.921  0.00  0.00    +0.000 A 
ATOM      6  N   UNL     1       7.879   5.202  17.683  0.00  0.00    +0.000 NA
ENDROOT
BRANCH   3   7
ATOM      7  C   UNL     1       3.781   6.204  18.451  0.00  0.00    +0.000 C 
ATOM      8  N   UNL     1       3.355   7.282  17.864  0.00  0.00    +0.000 NA
ATOM      9  N   UNL     1       3.123   5.302  19.277  0.00  0.00    +0.000 N 
ATOM     10  H   UNL     1       3.712   4.631  19.756  0.00  0.00    +0.000 HD
BRANCH   9  11
ATOM     11  C   UNL     1       1.706   4.950  19.295  0.00  0.00    +0.000 C 
ATOM     12  C   UNL     1       1.332   4.100  18.070  0.00  0.00    +0.000 C 
ATOM     13  C   UNL     1       1.892   2.677  18.104  0.00  0.00    +0.000 C 
ATOM     14  C   UNL     1       1.578   1.956  19.412  0.00  0.00    +0.000 C 
ATOM     15  C   UNL     1       1.983   2.779  20.629  0.00  0.00    +0.000 C 
ATOM     16  C   UNL     1       1.382   4.184  20.590  0.00  0.00    +0.000 C 
ENDBRANCH   9  11
BRANCH   8  17
ATOM     17  O   UNL     1       2.036   7.609  18.159  0.00  0.00    +0.000 OA
ATOM     18  H   UNL     1       1.760   6.855  18.711  0.00  0.00    +0.000 HD
ENDBRANCH   8  17
ENDBRANCH   3   7
BRANCH   1  19
ATOM     19  O   UNL     1       7.599   5.757  15.401  0.00  0.00    +0.000 OA
BRANCH  19  23
ATOM     20  C   UNL     1       5.890   3.543  12.286  0.00  0.00    +0.000 A 
ATOM     21  C   UNL     1       7.071   4.265  12.098  0.00  0.00    +0.000 A 
ATOM     22  C   UNL     1       7.624   5.006  13.149  0.00  0.00    +0.000 A 
ATOM     23  C   UNL     1       6.984   5.045  14.389  0.00  0.00    +0.000 A 
ATOM     24  C   UNL     1       5.804   4.317  14.572  0.00  0.00    +0.000 A 
ATOM     25  C   UNL     1       5.240   3.599  13.516  0.00  0.00    +0.000 A 
BRANCH  20  26
ATOM     26  O   UNL     1       5.455   2.823  11.207  0.00  0.00    +0.000 OA
BRANCH  26  28
ATOM     27  C   UNL     1       7.040   1.069  10.885  0.00  0.00    +0.000 C 
ATOM     28  C   UNL     1       5.621   1.406  11.303  0.00  0.00    +0.000 C 
ENDBRANCH  26  28
ENDBRANCH  20  26
ENDBRANCH  19  23
ENDBRANCH   1  19
TORSDOF 7
ENDMDL
MODEL 6
REMARK VINA RESULT:      -7.9      3.608      7.963
REMARK  Name = 
REMARK  8 active torsions:
REMARK  status: ('A' for Active; 'I' for Inactive)
REMARK    1  A    between atoms: C_1  and  C_2
REMARK    2  A    between atoms: C_2  and  O_3
REMARK    3  A    between atoms: O_3  and  C_4
REMARK    4  A    between atoms: C_7  and  O_8
REMARK    5  A    between atoms: O_8  and  C_9
REMARK    6  A    between atoms: C_11  and  C_12
REMARK    7  A    between atoms: N_13  and  O_14
REMARK    8  A    between atoms: N_15  and  C_16
REMARK                            x       y       z     vdW  Elec       q    Type
REMARK                         _______ _______ _______ _____ _____    ______ ____
ROOT
ATOM      1  C   UNL     1       2.135   6.497  20.311  0.00  0.00    +0.000 A 
ATOM      2  C   UNL     1       3.153   6.000  19.516  0.00  0.00    +0.000 A 
ATOM      3  C   UNL     1       3.081   4.654  19.133  0.00  0.00    +0.000 A 
ATOM      4  C   UNL     1       2.012   3.872  19.558  0.00  0.00    +0.000 A 
ATOM      5  C   UNL     1       1.072   4.450  20.389  0.00  0.00    +0.000 A 
ATOM      6  N   UNL     1       1.115   5.737  20.777  0.00  0.00    +0.000 NA
ENDROOT
BRANCH   3   7
ATOM      7  C   UNL     1       4.173   4.021  18.309  0.00  0.00    +0.000 C 
ATOM      8  N   UNL     1       3.748   3.067  17.536  0.00  0.00    +0.000 NA
ATOM      9  N   UNL     1       5.450   4.539  18.490  0.00  0.00    +0.000 N 
ATOM     10  H   UNL     1       5.564   5.165  19.278  0.00  0.00    +0.000 HD
BRANCH   9  11
ATOM     11  C   UNL     1       6.554   4.596  17.535  0.00  0.00    +0.000 C 
ATOM     12  C   UNL     1       6.278   5.629  16.432  0.00  0.00    +0.000 C 
ATOM     13  C   UNL     1       6.349   7.082  16.907  0.00  0.00    +0.000 C 
ATOM     14  C   UNL     1       7.640   7.389  17.662  0.00  0.00    +0.000 C 
ATOM     15  C   UNL     1       7.898   6.387  18.782  0.00  0.00    +0.000 C 
ATOM     16  C   UNL     1       7.856   4.945  18.276  0.00  0.00    +0.000 C 
ENDBRANCH   9  11
BRANCH   8  17
ATOM     17  O   UNL     1       4.750   2.429  16.813  0.00  0.00    +0.000 OA
ATOM     18  H   UNL     1       4.892   1.620  17.336  0.00  0.00    +0.000 HD
ENDBRANCH   8  17
ENDBRANCH   3   7
BRANCH   1  19
ATOM     19  O   UNL     1       2.185   7.844  20.657  0.00  0.00    +0.000 OA
BRANCH  19  23
ATOM     20  C   UNL     1      -0.532  10.336  18.674  0.00  0.00    +0.000 A 
ATOM     21  C   UNL     1       0.526   9.731  17.992  0.00  0.00    +0.000 A 
ATOM     22  C   UNL     1       1.430   8.907  18.673  0.00  0.00    +0.000 A 
ATOM     23  C   UNL     1       1.290   8.702  20.047  0.00  0.00    +0.000 A 
ATOM     24  C   UNL     1       0.227   9.308  20.723  0.00  0.00    +0.000 A 
ATOM     25  C   UNL     1      -0.659  10.150  20.048  0.00  0.00    +0.000 A 
BRANCH  20  26
ATOM     26  O   UNL     1      -1.378  11.092  17.909  0.00  0.00    +0.000 OA
BRANCH  26  28
ATOM     27  C   UNL     1      -3.346   9.812  17.481  0.00  0.00    +0.000 C 
ATOM     28  C   UNL     1      -2.076  10.384  16.880  0.00  0.00    +0.000 C 
ENDBRANCH  26  28
ENDBRANCH  20  26
ENDBRANCH  19  23
ENDBRANCH   1  19
TORSDOF 7
ENDMDL
MODEL 7
REMARK VINA RESULT:      -7.7      3.740      8.151
REMARK  Name = 
REMARK  8 active torsions:
REMARK  status: ('A' for Active; 'I' for Inactive)
REMARK    1  A    between atoms: C_1  and  C_2
REMARK    2  A    between atoms: C_2  and  O_3
REMARK    3  A    between atoms: O_3  and  C_4
REMARK    4  A    between atoms: C_7  and  O_8
REMARK    5  A    between atoms: O_8  and  C_9
REMARK    6  A    between atoms: C_11  and  C_12
REMARK    7  A    between atoms: N_13  and  O_14
REMARK    8  A    between atoms: N_15  and  C_16
REMARK                            x       y       z     vdW  Elec       q    Type
REMARK                         _______ _______ _______ _____ _____    ______ ____
ROOT
ATOM      1  C   UNL     1       2.134   6.362  20.343  0.00  0.00    +0.000 A 
ATOM      2  C   UNL     1       3.159   5.894  19.538  0.00  0.00    +0.000 A 
ATOM      3  C   UNL     1       3.086   4.566  19.098  0.00  0.00    +0.000 A 
ATOM      4  C   UNL     1       2.011   3.770  19.481  0.00  0.00    +0.000 A 
ATOM      5  C   UNL     1       1.064   4.317  20.325  0.00  0.00    +0.000 A 
ATOM      6  N   UNL     1       1.108   5.586  20.767  0.00  0.00    +0.000 NA
ENDROOT
BRANCH   3   7
ATOM      7  C   UNL     1       4.185   3.964  18.259  0.00  0.00    +0.000 C 
ATOM      8  N   UNL     1       3.770   3.018  17.471  0.00  0.00    +0.000 NA
ATOM      9  N   UNL     1       5.455   4.497  18.445  0.00  0.00    +0.000 N 
ATOM     10  H   UNL     1       5.562   5.111  19.244  0.00  0.00    +0.000 HD
BRANCH   9  11
ATOM     11  C   UNL     1       6.554   4.588  17.488  0.00  0.00    +0.000 C 
ATOM     12  C   UNL     1       6.268   5.652  16.417  0.00  0.00    +0.000 C 
ATOM     13  C   UNL     1       6.335   7.091  16.935  0.00  0.00    +0.000 C 
ATOM     14  C   UNL     1       7.627   7.381  17.693  0.00  0.00    +0.000 C 
ATOM     15  C   UNL     1       7.895   6.348  18.782  0.00  0.00    +0.000 C 
ATOM     16  C   UNL     1       7.858   4.921  18.233  0.00  0.00    +0.000 C 
ENDBRANCH   9  11
BRANCH   8  17
ATOM     17  O   UNL     1       4.779   2.408  16.733  0.00  0.00    +0.000 OA
ATOM     18  H   UNL     1       4.292   2.090  15.951  0.00  0.00    +0.000 HD
ENDBRANCH   8  17
ENDBRANCH   3   7
BRANCH   1  19
ATOM     19  O   UNL     1       2.185   7.692  20.745  0.00  0.00    +0.000 OA
BRANCH  19  23
ATOM     20  C   UNL     1      -0.385  10.307  18.723  0.00  0.00    +0.000 A 
ATOM     21  C   UNL     1       0.714   9.731  18.081  0.00  0.00    +0.000 A 
ATOM     22  C   UNL     1       1.568   8.865  18.776  0.00  0.00    +0.000 A 
ATOM     23  C   UNL     1       1.336   8.589  20.124  0.00  0.00    +0.000 A 
ATOM     24  C   UNL     1       0.232   9.165  20.760  0.00  0.00    +0.000 A 
ATOM     25  C   UNL     1      -0.603  10.048  20.074  0.00  0.00    +0.000 A 
BRANCH  20  26
ATOM     26  O   UNL     1      -1.175  11.108  17.945  0.00  0.00    +0.000 OA
BRANCH  26  28
ATOM     27  C   UNL     1      -0.360  13.320  18.314  0.00  0.00    +0.000 C 
ATOM     28  C   UNL     1      -1.525  12.371  18.517  0.00  0.00    +0.000 C 
ENDBRANCH  26  28
ENDBRANCH  20  26
ENDBRANCH  19  23
ENDBRANCH   1  19
TORSDOF 7
ENDMDL
MODEL 8
REMARK VINA RESULT:      -7.6      4.943      8.863
REMARK  Name = 
REMARK  8 active torsions:
REMARK  status: ('A' for Active; 'I' for Inactive)
REMARK    1  A    between atoms: C_1  and  C_2
REMARK    2  A    between atoms: C_2  and  O_3
REMARK    3  A    between atoms: O_3  and  C_4
REMARK    4  A    between atoms: C_7  and  O_8
REMARK    5  A    between atoms: O_8  and  C_9
REMARK    6  A    between atoms: C_11  and  C_12
REMARK    7  A    between atoms: N_13  and  O_14
REMARK    8  A    between atoms: N_15  and  C_16
REMARK                            x       y       z     vdW  Elec       q    Type
REMARK                         _______ _______ _______ _____ _____    ______ ____
ROOT
ATOM      1  C   UNL     1       1.473   9.141  19.152  0.00  0.00    +0.000 A 
ATOM      2  C   UNL     1       2.118   8.143  18.440  0.00  0.00    +0.000 A 
ATOM      3  C   UNL     1       2.346   6.924  19.090  0.00  0.00    +0.000 A 
ATOM      4  C   UNL     1       1.930   6.755  20.408  0.00  0.00    +0.000 A 
ATOM      5  C   UNL     1       1.338   7.828  21.045  0.00  0.00    +0.000 A 
ATOM      6  N   UNL     1       1.109   9.012  20.450  0.00  0.00    +0.000 NA
ENDROOT
BRANCH   3   7
ATOM      7  C   UNL     1       3.085   5.802  18.404  0.00  0.00    +0.000 C 
ATOM      8  N   UNL     1       2.302   4.987  17.763  0.00  0.00    +0.000 NA
ATOM      9  N   UNL     1       4.466   5.804  18.552  0.00  0.00    +0.000 N 
ATOM     10  H   UNL     1       4.835   6.445  19.244  0.00  0.00    +0.000 HD
BRANCH   9  11
ATOM     11  C   UNL     1       5.481   5.288  17.637  0.00  0.00    +0.000 C 
ATOM     12  C   UNL     1       5.959   6.381  16.668  0.00  0.00    +0.000 C 
ATOM     13  C   UNL     1       6.816   7.465  17.325  0.00  0.00    +0.000 C 
ATOM     14  C   UNL     1       7.968   6.887  18.141  0.00  0.00    +0.000 C 
ATOM     15  C   UNL     1       7.492   5.829  19.131  0.00  0.00    +0.000 C 
ATOM     16  C   UNL     1       6.669   4.738  18.445  0.00  0.00    +0.000 C 
ENDBRANCH   9  11
BRANCH   8  17
ATOM     17  O   UNL     1       2.959   3.911  17.174  0.00  0.00    +0.000 OA
ATOM     18  H   UNL     1       3.862   4.010  17.525  0.00  0.00    +0.000 HD
ENDBRANCH   8  17
ENDBRANCH   3   7
BRANCH   1  19
ATOM     19  O   UNL     1       1.211  10.337  18.492  0.00  0.00    +0.000 OA
BRANCH  19  23
ATOM     20  C   UNL     1      -2.778  11.610  18.542  0.00  0.00    +0.000 A 
ATOM     21  C   UNL     1      -2.381  10.497  17.795  0.00  0.00    +0.000 A 
ATOM     22  C   UNL     1      -1.042  10.091  17.784  0.00  0.00    +0.000 A 
ATOM     23  C   UNL     1      -0.087  10.811  18.505  0.00  0.00    +0.000 A 
ATOM     24  C   UNL     1      -0.491  11.921  19.253  0.00  0.00    +0.000 A 
ATOM     25  C   UNL     1      -1.822  12.341  19.243  0.00  0.00    +0.000 A 
BRANCH  20  26
ATOM     26  O   UNL     1      -4.114  11.899  18.514  0.00  0.00    +0.000 OA
BRANCH  26  28
ATOM     27  C   UNL     1      -6.212  10.763  18.528  0.00  0.00    +0.000 C 
ATOM     28  C   UNL     1      -4.926  10.994  17.760  0.00  0.00    +0.000 C 
ENDBRANCH  26  28
ENDBRANCH  20  26
ENDBRANCH  19  23
ENDBRANCH   1  19
TORSDOF 7
ENDMDL
MODEL 9
REMARK VINA RESULT:      -7.6      5.188      9.011
REMARK  Name = 
REMARK  8 active torsions:
REMARK  status: ('A' for Active; 'I' for Inactive)
REMARK    1  A    between atoms: C_1  and  C_2
REMARK    2  A    between atoms: C_2  and  O_3
REMARK    3  A    between atoms: O_3  and  C_4
REMARK    4  A    between atoms: C_7  and  O_8
REMARK    5  A    between atoms: O_8  and  C_9
REMARK    6  A    between atoms: C_11  and  C_12
REMARK    7  A    between atoms: N_13  and  O_14
REMARK    8  A    between atoms: N_15  and  C_16
REMARK                            x       y       z     vdW  Elec       q    Type
REMARK                         _______ _______ _______ _____ _____    ______ ____
ROOT
ATOM      1  C   UNL     1       1.244   9.243  19.103  0.00  0.00    +0.000 A 
ATOM      2  C   UNL     1       1.881   8.233  18.402  0.00  0.00    +0.000 A 
ATOM      3  C   UNL     1       2.246   7.081  19.111  0.00  0.00    +0.000 A 
ATOM      4  C   UNL     1       1.969   6.990  20.471  0.00  0.00    +0.000 A 
ATOM      5  C   UNL     1       1.372   8.073  21.087  0.00  0.00    +0.000 A 
ATOM      6  N   UNL     1       1.013   9.193  20.436  0.00  0.00    +0.000 NA
ENDROOT
BRANCH   3   7
ATOM      7  C   UNL     1       2.988   5.955  18.434  0.00  0.00    +0.000 C 
ATOM      8  N   UNL     1       2.203   5.098  17.854  0.00  0.00    +0.000 NA
ATOM      9  N   UNL     1       4.374   5.997  18.527  0.00  0.00    +0.000 N 
ATOM     10  H   UNL     1       4.752   6.671  19.181  0.00  0.00    +0.000 HD
BRANCH   9  11
ATOM     11  C   UNL     1       5.365   5.474  17.591  0.00  0.00    +0.000 C 
ATOM     12  C   UNL     1       5.944   6.596  16.715  0.00  0.00    +0.000 C 
ATOM     13  C   UNL     1       6.866   7.559  17.465  0.00  0.00    +0.000 C 
ATOM     14  C   UNL     1       7.954   6.835  18.252  0.00  0.00    +0.000 C 
ATOM     15  C   UNL     1       7.380   5.747  19.151  0.00  0.00    +0.000 C 
ATOM     16  C   UNL     1       6.491   4.776  18.372  0.00  0.00    +0.000 C 
ENDBRANCH   9  11
BRANCH   8  17
ATOM     17  O   UNL     1       2.864   4.019  17.277  0.00  0.00    +0.000 OA
ATOM     18  H   UNL     1       2.341   3.264  17.604  0.00  0.00    +0.000 HD
ENDBRANCH   8  17
ENDBRANCH   3   7
BRANCH   1  19
ATOM     19  O   UNL     1       0.844  10.369  18.391  0.00  0.00    +0.000 OA
BRANCH  19  23
ATOM     20  C   UNL     1      -3.176  11.540  18.425  0.00  0.00    +0.000 A 
ATOM     21  C   UNL     1      -2.215  12.227  19.171  0.00  0.00    +0.000 A 
ATOM     22  C   UNL     1      -0.877  11.816  19.154  0.00  0.00    +0.000 A 
ATOM     23  C   UNL     1      -0.498  10.701  18.405  0.00  0.00    +0.000 A 
ATOM     24  C   UNL     1      -1.464  10.020  17.657  0.00  0.00    +0.000 A 
ATOM     25  C   UNL     1      -2.802  10.415  17.695  0.00  0.00    +0.000 A 
BRANCH  20  26
ATOM     26  O   UNL     1      -4.446  12.045  18.482  0.00  0.00    +0.000 OA
BRANCH  26  28
ATOM     27  C   UNL     1      -6.700  11.872  17.720  0.00  0.00    +0.000 C 
ATOM     28  C   UNL     1      -5.241  11.850  17.309  0.00  0.00    +0.000 C 
ENDBRANCH  26  28
ENDBRANCH  20  26
ENDBRANCH  19  23
ENDBRANCH   1  19
TORSDOF 7
ENDMDL
