MODEL 1
REMARK VINA RESULT:      -6.9      0.000      0.000
REMARK  Name = 
REMARK  6 active torsions:
REMARK  status: ('A' for Active; 'I' for Inactive)
REMARK    1  A    between atoms: N_1  and  C_2
REMARK    2  A    between atoms: C_2  and  C_3
REMARK    3  A    between atoms: C_3  and  O_4
REMARK    4  A    between atoms: C_3  and  C_5
REMARK    5  A    between atoms: C_5  and  C_6
REMARK    6  A    between atoms: C_5  and  C_12
REMARK                            x       y       z     vdW  Elec       q    Type
REMARK                         _______ _______ _______ _____ _____    ______ ____
ROOT
ATOM      1  C   UNL     1       6.023   4.506  16.818  0.00  0.00    +0.000 C 
ENDROOT
BRANCH   1   2
ATOM      2  C   UNL     1       4.738   5.264  17.162  0.00  0.00    +0.000 A 
ATOM      3  C   UNL     1       4.676   6.665  17.088  0.00  0.00    +0.000 A 
ATOM      4  C   UNL     1       3.553   7.356  17.546  0.00  0.00    +0.000 A 
ATOM      5  C   UNL     1       2.469   6.657  18.069  0.00  0.00    +0.000 A 
ATOM      6  C   UNL     1       2.497   5.265  18.118  0.00  0.00    +0.000 A 
ATOM      7  C   UNL     1       3.623   4.572  17.663  0.00  0.00    +0.000 A 
ENDBRANCH   1   2
BRANCH   1   8
ATOM      8  C   UNL     1       6.317   4.491  15.309  0.00  0.00    +0.000 A 
ATOM      9  C   UNL     1       5.528   3.706  14.450  0.00  0.00    +0.000 A 
ATOM     10  C   UNL     1       5.830   3.607  13.090  0.00  0.00    +0.000 A 
ATOM     11  C   UNL     1       6.914   4.295  12.558  0.00  0.00    +0.000 A 
ATOM     12  C   UNL     1       7.689   5.104  13.386  0.00  0.00    +0.000 A 
ATOM     13  C   UNL     1       7.387   5.207  14.745  0.00  0.00    +0.000 A 
ENDBRANCH   1   8
BRANCH   1  14
ATOM     14  C   UNL     1       7.215   5.023  17.700  0.00  0.00    +0.000 C 
BRANCH  14  15
ATOM     15  O   UNL     1       8.282   4.060  17.769  0.00  0.00    +0.000 OA
ATOM     16  H   UNL     1       7.964   3.348  18.356  0.00  0.00    +0.000 HD
ENDBRANCH  14  15
BRANCH  14  17
ATOM     17  C   UNL     1       6.829   5.370  19.155  0.00  0.00    +0.000 C 
BRANCH  17  18
ATOM     18  N   UNL     1       7.986   5.415  20.062  0.00  0.00    +0.000 NA
ATOM     19  H   UNL     1       7.999   4.547  20.599  0.00  0.00    +0.000 HD
ATOM     20  H   UNL     1       7.823   6.146  20.757  0.00  0.00    +0.000 HD
ENDBRANCH  17  18
ENDBRANCH  14  17
ENDBRANCH   1  14
TORSDOF 6
ENDMDL
MODEL 2
REMARK VINA RESULT:      -6.8      2.436      4.339
REMARK  Name = 
REMARK  6 active torsions:
REMARK  status: ('A' for Active; 'I' for Inactive)
REMARK    1  A    between atoms: N_1  and  C_2
REMARK    2  A    between atoms: C_2  and  C_3
REMARK    3  A    between atoms: C_3  and  O_4
REMARK    4  A    between atoms: C_3  and  C_5
REMARK    5  A    between atoms: C_5  and  C_6
REMARK    6  A    between atoms: C_5  and  C_12
REMARK                            x       y       z     vdW  Elec       q    Type
REMARK                         _______ _______ _______ _____ _____    ______ ____
ROOT
ATOM      1  C   UNL     1       5.352   5.167  16.346  0.00  0.00    +0.000 C 
ENDROOT
BRANCH   1   2
ATOM      2  C   UNL     1       4.193   4.526  17.111  0.00  0.00    +0.000 A 
ATOM      3  C   UNL     1       4.070   3.130  17.212  0.00  0.00    +0.000 A 
ATOM      4  C   UNL     1       2.933   2.552  17.781  0.00  0.00    +0.000 A 
ATOM      5  C   UNL     1       1.910   3.359  18.271  0.00  0.00    +0.000 A 
ATOM      6  C   UNL     1       2.030   4.745  18.212  0.00  0.00    +0.000 A 
ATOM      7  C   UNL     1       3.166   5.326  17.639  0.00  0.00    +0.000 A 
ENDBRANCH   1   2
BRANCH   1   8
ATOM      8  C   UNL     1       6.346   5.890  17.269  0.00  0.00    +0.000 A 
ATOM      9  C   UNL     1       6.777   7.190  16.953  0.00  0.00    +0.000 A 
ATOM     10  C   UNL     1       7.745   7.832  17.727  0.00  0.00    +0.000 A 
ATOM     11  C   UNL     1       8.293   7.199  18.837  0.00  0.00    +0.000 A 
ATOM     12  C   UNL     1       7.855   5.924  19.187  0.00  0.00    +0.000 A 
ATOM     13  C   UNL     1       6.885   5.281  18.415  0.00  0.00    +0.000 A 
ENDBRANCH   1   8
BRANCH   1  14
ATOM     14  C   UNL     1       6.015   4.122  15.381  0.00  0.00    +0.000 C 
BRANCH  14  15
ATOM     15  O   UNL     1       7.433   4.337  15.256  0.00  0.00    +0.000 OA
ATOM     16  H   UNL     1       7.553   4.874  14.450  0.00  0.00    +0.000 HD
ENDBRANCH  14  15
BRANCH  14  17
ATOM     17  C   UNL     1       5.435   4.116  13.949  0.00  0.00    +0.000 C 
BRANCH  17  18
ATOM     18  N   UNL     1       6.261   3.358  12.996  0.00  0.00    +0.000 NA
ATOM     19  H   UNL     1       5.783   3.362  12.094  0.00  0.00    +0.000 HD
ATOM     20  H   UNL     1       6.264   2.377  13.281  0.00  0.00    +0.000 HD
ENDBRANCH  17  18
ENDBRANCH  14  17
ENDBRANCH   1  14
TORSDOF 6
ENDMDL
MODEL 3
REMARK VINA RESULT:      -6.8      0.081      1.170
REMARK  Name = 
REMARK  6 active torsions:
REMARK  status: ('A' for Active; 'I' for Inactive)
REMARK    1  A    between atoms: N_1  and  C_2
REMARK    2  A    between atoms: C_2  and  C_3
REMARK    3  A    between atoms: C_3  and  O_4
REMARK    4  A    between atoms: C_3  and  C_5
REMARK    5  A    between atoms: C_5  and  C_6
REMARK    6  A    between atoms: C_5  and  C_12
REMARK                            x       y       z     vdW  Elec       q    Type
REMARK                         _______ _______ _______ _____ _____    ______ ____
ROOT
ATOM      1  C   UNL     1       6.028   4.484  16.882  0.00  0.00    +0.000 C 
ENDROOT
BRANCH   1   2
ATOM      2  C   UNL     1       4.752   5.273  17.182  0.00  0.00    +0.000 A 
ATOM      3  C   UNL     1       4.720   6.674  17.081  0.00  0.00    +0.000 A 
ATOM      4  C   UNL     1       3.601   7.396  17.501  0.00  0.00    +0.000 A 
ATOM      5  C   UNL     1       2.491   6.729  18.012  0.00  0.00    +0.000 A 
ATOM      6  C   UNL     1       2.490   5.338  18.087  0.00  0.00    +0.000 A 
ATOM      7  C   UNL     1       3.612   4.614  17.671  0.00  0.00    +0.000 A 
ENDBRANCH   1   2
BRANCH   1   8
ATOM      8  C   UNL     1       6.329   4.392  15.377  0.00  0.00    +0.000 A 
ATOM      9  C   UNL     1       7.395   5.127  14.831  0.00  0.00    +0.000 A 
ATOM     10  C   UNL     1       7.634   5.129  13.455  0.00  0.00    +0.000 A 
ATOM     11  C   UNL     1       6.825   4.390  12.599  0.00  0.00    +0.000 A 
ATOM     12  C   UNL     1       5.784   3.629  13.124  0.00  0.00    +0.000 A 
ATOM     13  C   UNL     1       5.545   3.624  14.500  0.00  0.00    +0.000 A 
ENDBRANCH   1   8
BRANCH   1  14
ATOM     14  C   UNL     1       7.222   5.027  17.744  0.00  0.00    +0.000 C 
BRANCH  14  15
ATOM     15  O   UNL     1       8.293   4.069  17.833  0.00  0.00    +0.000 OA
ATOM     16  H   UNL     1       7.967   3.354  18.412  0.00  0.00    +0.000 HD
ENDBRANCH  14  15
BRANCH  14  17
ATOM     17  C   UNL     1       6.843   5.411  19.191  0.00  0.00    +0.000 C 
BRANCH  17  18
ATOM     18  N   UNL     1       8.001   5.457  20.097  0.00  0.00    +0.000 NA
ATOM     19  H   UNL     1       8.822   5.151  19.573  0.00  0.00    +0.000 HD
ATOM     20  H   UNL     1       7.876   4.745  20.818  0.00  0.00    +0.000 HD
ENDBRANCH  17  18
ENDBRANCH  14  17
ENDBRANCH   1  14
TORSDOF 6
ENDMDL
MODEL 4
REMARK VINA RESULT:      -6.8      2.980      5.841
REMARK  Name = 
REMARK  6 active torsions:
REMARK  status: ('A' for Active; 'I' for Inactive)
REMARK    1  A    between atoms: N_1  and  C_2
REMARK    2  A    between atoms: C_2  and  C_3
REMARK    3  A    between atoms: C_3  and  O_4
REMARK    4  A    between atoms: C_3  and  C_5
REMARK    5  A    between atoms: C_5  and  C_6
REMARK    6  A    between atoms: C_5  and  C_12
REMARK                            x       y       z     vdW  Elec       q    Type
REMARK                         _______ _______ _______ _____ _____    ______ ____
ROOT
ATOM      1  C   UNL     1       3.472   4.451  18.309  0.00  0.00    +0.000 C 
ENDROOT
BRANCH   1   2
ATOM      2  C   UNL     1       4.893   4.422  17.743  0.00  0.00    +0.000 A 
ATOM      3  C   UNL     1       5.999   4.779  18.531  0.00  0.00    +0.000 A 
ATOM      4  C   UNL     1       7.271   4.895  17.967  0.00  0.00    +0.000 A 
ATOM      5  C   UNL     1       7.460   4.640  16.611  0.00  0.00    +0.000 A 
ATOM      6  C   UNL     1       6.381   4.250  15.821  0.00  0.00    +0.000 A 
ATOM      7  C   UNL     1       5.106   4.137  16.384  0.00  0.00    +0.000 A 
ENDBRANCH   1   2
BRANCH   1   8
ATOM      8  C   UNL     1       2.985   5.877  18.617  0.00  0.00    +0.000 A 
ATOM      9  C   UNL     1       2.391   6.160  19.860  0.00  0.00    +0.000 A 
ATOM     10  C   UNL     1       1.862   7.424  20.130  0.00  0.00    +0.000 A 
ATOM     11  C   UNL     1       1.925   8.432  19.175  0.00  0.00    +0.000 A 
ATOM     12  C   UNL     1       2.538   8.181  17.950  0.00  0.00    +0.000 A 
ATOM     13  C   UNL     1       3.070   6.919  17.679  0.00  0.00    +0.000 A 
ENDBRANCH   1   8
BRANCH   1  14
ATOM     14  C   UNL     1       2.501   3.625  17.393  0.00  0.00    +0.000 C 
BRANCH  14  15
ATOM     15  O   UNL     1       1.156   4.136  17.446  0.00  0.00    +0.000 OA
ATOM     16  H   UNL     1       0.746   3.903  16.591  0.00  0.00    +0.000 HD
ENDBRANCH  14  15
BRANCH  14  17
ATOM     17  C   UNL     1       2.421   2.121  17.739  0.00  0.00    +0.000 C 
BRANCH  17  18
ATOM     18  N   UNL     1       1.448   1.825  18.800  0.00  0.00    +0.000 NA
ATOM     19  H   UNL     1       1.587   2.502  19.552  0.00  0.00    +0.000 HD
ATOM     20  H   UNL     1       1.689   0.925  19.218  0.00  0.00    +0.000 HD
ENDBRANCH  17  18
ENDBRANCH  14  17
ENDBRANCH   1  14
TORSDOF 6
ENDMDL
MODEL 5
REMARK VINA RESULT:      -6.8      2.686      5.778
REMARK  Name = 
REMARK  6 active torsions:
REMARK  status: ('A' for Active; 'I' for Inactive)
REMARK    1  A    between atoms: N_1  and  C_2
REMARK    2  A    between atoms: C_2  and  C_3
REMARK    3  A    between atoms: C_3  and  O_4
REMARK    4  A    between atoms: C_3  and  C_5
REMARK    5  A    between atoms: C_5  and  C_6
REMARK    6  A    between atoms: C_5  and  C_12
REMARK                            x       y       z     vdW  Elec       q    Type
REMARK                         _______ _______ _______ _____ _____    ______ ____
ROOT
ATOM      1  C   UNL     1       3.618   4.419  18.229  0.00  0.00    +0.000 C 
ENDROOT
BRANCH   1   2
ATOM      2  C   UNL     1       4.901   4.518  17.401  0.00  0.00    +0.000 A 
ATOM      3  C   UNL     1       4.899   4.261  16.020  0.00  0.00    +0.000 A 
ATOM      4  C   UNL     1       6.095   4.205  15.302  0.00  0.00    +0.000 A 
ATOM      5  C   UNL     1       7.309   4.420  15.948  0.00  0.00    +0.000 A 
ATOM      6  C   UNL     1       7.328   4.712  17.310  0.00  0.00    +0.000 A 
ATOM      7  C   UNL     1       6.132   4.765  18.032  0.00  0.00    +0.000 A 
ENDBRANCH   1   2
BRANCH   1   8
ATOM      8  C   UNL     1       3.063   5.796  18.630  0.00  0.00    +0.000 A 
ATOM      9  C   UNL     1       2.452   5.966  19.885  0.00  0.00    +0.000 A 
ATOM     10  C   UNL     1       1.863   7.182  20.237  0.00  0.00    +0.000 A 
ATOM     11  C   UNL     1       1.881   8.254  19.353  0.00  0.00    +0.000 A 
ATOM     12  C   UNL     1       2.509   8.117  18.118  0.00  0.00    +0.000 A 
ATOM     13  C   UNL     1       3.102   6.903  17.765  0.00  0.00    +0.000 A 
ENDBRANCH   1   8
BRANCH   1  14
ATOM     14  C   UNL     1       2.575   3.490  17.513  0.00  0.00    +0.000 C 
BRANCH  14  15
ATOM     15  O   UNL     1       1.276   4.106  17.439  0.00  0.00    +0.000 OA
ATOM     16  H   UNL     1       1.420   4.993  17.057  0.00  0.00    +0.000 HD
ENDBRANCH  14  15
BRANCH  14  17
ATOM     17  C   UNL     1       2.379   2.113  18.185  0.00  0.00    +0.000 C 
BRANCH  17  18
ATOM     18  N   UNL     1       3.602   1.297  18.194  0.00  0.00    +0.000 NA
ATOM     19  H   UNL     1       4.344   1.838  17.745  0.00  0.00    +0.000 HD
ATOM     20  H   UNL     1       3.460   0.495  17.578  0.00  0.00    +0.000 HD
ENDBRANCH  17  18
ENDBRANCH  14  17
ENDBRANCH   1  14
TORSDOF 6
ENDMDL
MODEL 6
REMARK VINA RESULT:      -6.8      2.750      5.831
REMARK  Name = 
REMARK  6 active torsions:
REMARK  status: ('A' for Active; 'I' for Inactive)
REMARK    1  A    between atoms: N_1  and  C_2
REMARK    2  A    between atoms: C_2  and  C_3
REMARK    3  A    between atoms: C_3  and  O_4
REMARK    4  A    between atoms: C_3  and  C_5
REMARK    5  A    between atoms: C_5  and  C_6
REMARK    6  A    between atoms: C_5  and  C_12
REMARK                            x       y       z     vdW  Elec       q    Type
REMARK                         _______ _______ _______ _____ _____    ______ ____
ROOT
ATOM      1  C   UNL     1       3.540   4.400  18.378  0.00  0.00    +0.000 C 
ENDROOT
BRANCH   1   2
ATOM      2  C   UNL     1       4.851   4.525  17.598  0.00  0.00    +0.000 A 
ATOM      3  C   UNL     1       4.918   4.211  16.231  0.00  0.00    +0.000 A 
ATOM      4  C   UNL     1       6.144   4.182  15.563  0.00  0.00    +0.000 A 
ATOM      5  C   UNL     1       7.319   4.482  16.248  0.00  0.00    +0.000 A 
ATOM      6  C   UNL     1       7.268   4.830  17.596  0.00  0.00    +0.000 A 
ATOM      7  C   UNL     1       6.041   4.856  18.266  0.00  0.00    +0.000 A 
ENDBRANCH   1   2
BRANCH   1   8
ATOM      8  C   UNL     1       2.912   5.765  18.706  0.00  0.00    +0.000 A 
ATOM      9  C   UNL     1       2.982   6.811  17.769  0.00  0.00    +0.000 A 
ATOM     10  C   UNL     1       2.497   8.083  18.077  0.00  0.00    +0.000 A 
ATOM     11  C   UNL     1       1.922   8.336  19.317  0.00  0.00    +0.000 A 
ATOM     12  C   UNL     1       1.813   7.305  20.247  0.00  0.00    +0.000 A 
ATOM     13  C   UNL     1       2.295   6.031  19.940  0.00  0.00    +0.000 A 
ENDBRANCH   1   8
BRANCH   1  14
ATOM     14  C   UNL     1       2.567   3.402  17.656  0.00  0.00    +0.000 C 
BRANCH  14  15
ATOM     15  O   UNL     1       1.240   3.946  17.536  0.00  0.00    +0.000 OA
ATOM     16  H   UNL     1       1.030   3.936  16.583  0.00  0.00    +0.000 HD
ENDBRANCH  14  15
BRANCH  14  17
ATOM     17  C   UNL     1       2.427   2.030  18.352  0.00  0.00    +0.000 C 
BRANCH  17  18
ATOM     18  N   UNL     1       3.634   1.198  18.234  0.00  0.00    +0.000 NA
ATOM     19  H   UNL     1       4.360   1.612  18.823  0.00  0.00    +0.000 HD
ATOM     20  H   UNL     1       3.995   1.286  17.283  0.00  0.00    +0.000 HD
ENDBRANCH  17  18
ENDBRANCH  14  17
ENDBRANCH   1  14
TORSDOF 6
ENDMDL
MODEL 7
REMARK VINA RESULT:      -6.8      2.276      4.106
REMARK  Name = 
REMARK  6 active torsions:
REMARK  status: ('A' for Active; 'I' for Inactive)
REMARK    1  A    between atoms: N_1  and  C_2
REMARK    2  A    between atoms: C_2  and  C_3
REMARK    3  A    between atoms: C_3  and  O_4
REMARK    4  A    between atoms: C_3  and  C_5
REMARK    5  A    between atoms: C_5  and  C_6
REMARK    6  A    between atoms: C_5  and  C_12
REMARK                            x       y       z     vdW  Elec       q    Type
REMARK                         _______ _______ _______ _____ _____    ______ ____
ROOT
ATOM      1  C   UNL     1       4.595   5.369  16.795  0.00  0.00    +0.000 C 
ENDROOT
BRANCH   1   2
ATOM      2  C   UNL     1       3.436   5.039  17.737  0.00  0.00    +0.000 A 
ATOM      3  C   UNL     1       3.124   5.869  18.827  0.00  0.00    +0.000 A 
ATOM      4  C   UNL     1       2.166   5.484  19.767  0.00  0.00    +0.000 A 
ATOM      5  C   UNL     1       1.494   4.273  19.625  0.00  0.00    +0.000 A 
ATOM      6  C   UNL     1       1.765   3.453  18.531  0.00  0.00    +0.000 A 
ATOM      7  C   UNL     1       2.727   3.835  17.591  0.00  0.00    +0.000 A 
ENDBRANCH   1   2
BRANCH   1   8
ATOM      8  C   UNL     1       5.824   5.922  17.535  0.00  0.00    +0.000 A 
ATOM      9  C   UNL     1       6.488   7.057  17.039  0.00  0.00    +0.000 A 
ATOM     10  C   UNL     1       7.656   7.526  17.643  0.00  0.00    +0.000 A 
ATOM     11  C   UNL     1       8.179   6.881  18.758  0.00  0.00    +0.000 A 
ATOM     12  C   UNL     1       7.519   5.774  19.285  0.00  0.00    +0.000 A 
ATOM     13  C   UNL     1       6.348   5.306  18.684  0.00  0.00    +0.000 A 
ENDBRANCH   1   8
BRANCH   1  14
ATOM     14  C   UNL     1       4.904   4.147  15.860  0.00  0.00    +0.000 C 
BRANCH  14  15
ATOM     15  O   UNL     1       5.892   3.272  16.436  0.00  0.00    +0.000 OA
ATOM     16  H   UNL     1       6.758   3.626  16.161  0.00  0.00    +0.000 HD
ENDBRANCH  14  15
BRANCH  14  17
ATOM     17  C   UNL     1       5.415   4.531  14.453  0.00  0.00    +0.000 C 
BRANCH  17  18
ATOM     18  N   UNL     1       6.343   3.541  13.886  0.00  0.00    +0.000 NA
ATOM     19  H   UNL     1       6.100   2.627  14.271  0.00  0.00    +0.000 HD
ATOM     20  H   UNL     1       7.279   3.732  14.248  0.00  0.00    +0.000 HD
ENDBRANCH  17  18
ENDBRANCH  14  17
ENDBRANCH   1  14
TORSDOF 6
ENDMDL
MODEL 8
REMARK VINA RESULT:      -6.7      2.447      4.251
REMARK  Name = 
REMARK  6 active torsions:
REMARK  status: ('A' for Active; 'I' for Inactive)
REMARK    1  A    between atoms: N_1  and  C_2
REMARK    2  A    between atoms: C_2  and  C_3
REMARK    3  A    between atoms: C_3  and  O_4
REMARK    4  A    between atoms: C_3  and  C_5
REMARK    5  A    between atoms: C_5  and  C_6
REMARK    6  A    between atoms: C_5  and  C_12
REMARK                            x       y       z     vdW  Elec       q    Type
REMARK                         _______ _______ _______ _____ _____    ______ ____
ROOT
ATOM      1  C   UNL     1       5.434   5.282  16.283  0.00  0.00    +0.000 C 
ENDROOT
BRANCH   1   2
ATOM      2  C   UNL     1       4.241   4.652  17.005  0.00  0.00    +0.000 A 
ATOM      3  C   UNL     1       3.279   5.446  17.651  0.00  0.00    +0.000 A 
ATOM      4  C   UNL     1       2.280   4.863  18.434  0.00  0.00    +0.000 A 
ATOM      5  C   UNL     1       2.217   3.480  18.570  0.00  0.00    +0.000 A 
ATOM      6  C   UNL     1       3.141   2.674  17.908  0.00  0.00    +0.000 A 
ATOM      7  C   UNL     1       4.145   3.256  17.127  0.00  0.00    +0.000 A 
ENDBRANCH   1   2
BRANCH   1   8
ATOM      8  C   UNL     1       6.411   5.978  17.245  0.00  0.00    +0.000 A 
ATOM      9  C   UNL     1       6.830   7.294  16.985  0.00  0.00    +0.000 A 
ATOM     10  C   UNL     1       7.783   7.916  17.794  0.00  0.00    +0.000 A 
ATOM     11  C   UNL     1       8.327   7.245  18.883  0.00  0.00    +0.000 A 
ATOM     12  C   UNL     1       7.901   5.953  19.177  0.00  0.00    +0.000 A 
ATOM     13  C   UNL     1       6.947   5.330  18.371  0.00  0.00    +0.000 A 
ENDBRANCH   1   8
BRANCH   1  14
ATOM     14  C   UNL     1       6.110   4.234  15.328  0.00  0.00    +0.000 C 
BRANCH  14  15
ATOM     15  O   UNL     1       7.516   4.495  15.162  0.00  0.00    +0.000 OA
ATOM     16  H   UNL     1       7.585   5.143  14.436  0.00  0.00    +0.000 HD
ENDBRANCH  14  15
BRANCH  14  17
ATOM     17  C   UNL     1       5.496   4.171  13.912  0.00  0.00    +0.000 C 
BRANCH  17  18
ATOM     18  N   UNL     1       6.220   3.263  13.011  0.00  0.00    +0.000 NA
ATOM     19  H   UNL     1       6.273   3.707  12.092  0.00  0.00    +0.000 HD
ATOM     20  H   UNL     1       5.646   2.431  12.861  0.00  0.00    +0.000 HD
ENDBRANCH  17  18
ENDBRANCH  14  17
ENDBRANCH   1  14
TORSDOF 6
ENDMDL
MODEL 9
REMARK VINA RESULT:      -6.7      3.076      5.911
REMARK  Name = 
REMARK  6 active torsions:
REMARK  status: ('A' for Active; 'I' for Inactive)
REMARK    1  A    between atoms: N_1  and  C_2
REMARK    2  A    between atoms: C_2  and  C_3
REMARK    3  A    between atoms: C_3  and  O_4
REMARK    4  A    between atoms: C_3  and  C_5
REMARK    5  A    between atoms: C_5  and  C_6
REMARK    6  A    between atoms: C_5  and  C_12
REMARK                            x       y       z     vdW  Elec       q    Type
REMARK                         _______ _______ _______ _____ _____    ______ ____
ROOT
ATOM      1  C   UNL     1       3.376   4.464  18.454  0.00  0.00    +0.000 C 
ENDROOT
BRANCH   1   2
ATOM      2  C   UNL     1       4.839   4.503  18.010  0.00  0.00    +0.000 A 
ATOM      3  C   UNL     1       5.849   4.972  18.868  0.00  0.00    +0.000 A 
ATOM      4  C   UNL     1       7.155   5.146  18.405  0.00  0.00    +0.000 A 
ATOM      5  C   UNL     1       7.475   4.841  17.086  0.00  0.00    +0.000 A 
ATOM      6  C   UNL     1       6.496   4.341  16.231  0.00  0.00    +0.000 A 
ATOM      7  C   UNL     1       5.187   4.169  16.691  0.00  0.00    +0.000 A 
ENDBRANCH   1   2
BRANCH   1   8
ATOM      8  C   UNL     1       2.803   5.862  18.737  0.00  0.00    +0.000 A 
ATOM      9  C   UNL     1       2.897   6.868  17.760  0.00  0.00    +0.000 A 
ATOM     10  C   UNL     1       2.464   8.169  18.025  0.00  0.00    +0.000 A 
ATOM     11  C   UNL     1       1.918   8.490  19.263  0.00  0.00    +0.000 A 
ATOM     12  C   UNL     1       1.786   7.500  20.233  0.00  0.00    +0.000 A 
ATOM     13  C   UNL     1       2.216   6.198  19.969  0.00  0.00    +0.000 A 
ENDBRANCH   1   8
BRANCH   1  14
ATOM     14  C   UNL     1       2.522   3.612  17.449  0.00  0.00    +0.000 C 
BRANCH  14  15
ATOM     15  O   UNL     1       1.150   4.046  17.415  0.00  0.00    +0.000 OA
ATOM     16  H   UNL     1       0.615   3.239  17.292  0.00  0.00    +0.000 HD
ENDBRANCH  14  15
BRANCH  14  17
ATOM     17  C   UNL     1       2.504   2.096  17.751  0.00  0.00    +0.000 C 
BRANCH  17  18
ATOM     18  N   UNL     1       1.537   1.729  18.796  0.00  0.00    +0.000 NA
ATOM     19  H   UNL     1       0.601   1.934  18.444  0.00  0.00    +0.000 HD
ATOM     20  H   UNL     1       1.660   2.363  19.587  0.00  0.00    +0.000 HD
ENDBRANCH  17  18
ENDBRANCH  14  17
ENDBRANCH   1  14
TORSDOF 6
ENDMDL
