MODEL 1
REMARK VINA RESULT:      -7.8      0.000      0.000
REMARK  Name = 
REMARK  6 active torsions:
REMARK  status: ('A' for Active; 'I' for Inactive)
REMARK    1  A    between atoms: O_1  and  N_2
REMARK    2  A    between atoms: C_3  and  C_4
REMARK    3  A    between atoms: C_3  and  C_18
REMARK    4  A    between atoms: C_4  and  S_5
REMARK    5  A    between atoms: S_5  and  C_6
REMARK    6  A    between atoms: C_11  and  C_12
REMARK                            x       y       z     vdW  Elec       q    Type
REMARK                         _______ _______ _______ _____ _____    ______ ____
ROOT
ATOM      1  S   UNL     1       4.375   4.997  17.109  0.00  0.00    +0.000 S 
ENDROOT
BRANCH   1   2
ATOM      2  C   UNL     1       3.350   6.324  17.795  0.00  0.00    +0.000 A 
ATOM      3  C   UNL     1       3.523   7.584  17.181  0.00  0.00    +0.000 A 
ATOM      4  C   UNL     1       2.881   8.723  17.662  0.00  0.00    +0.000 A 
ATOM      5  C   UNL     1       2.036   8.619  18.754  0.00  0.00    +0.000 A 
ATOM      6  C   UNL     1       1.801   7.367  19.329  0.00  0.00    +0.000 A 
ATOM      7  C   UNL     1       2.432   6.181  18.873  0.00  0.00    +0.000 A 
BRANCH   7   8
ATOM      8  C   UNL     1       2.084   4.893  19.551  0.00  0.00    +0.000 A 
ATOM      9  C   UNL     1       2.447   4.617  20.880  0.00  0.00    +0.000 A 
ATOM     10  C   UNL     1       2.094   3.419  21.514  0.00  0.00    +0.000 A 
ATOM     11  C   UNL     1       1.422   2.429  20.811  0.00  0.00    +0.000 A 
ATOM     12  C   UNL     1       1.100   2.639  19.477  0.00  0.00    +0.000 A 
ATOM     13  C   UNL     1       1.416   3.857  18.862  0.00  0.00    +0.000 A 
ENDBRANCH   7   8
ENDBRANCH   1   2
BRANCH   1  14
ATOM     14  C   UNL     1       5.665   5.993  16.281  0.00  0.00    +0.000 C 
BRANCH  14  16
ATOM     15  N   UNL     1       7.722   4.558  16.300  0.00  0.00    +0.000 NA
ATOM     16  C   UNL     1       6.716   5.079  15.653  0.00  0.00    +0.000 C 
BRANCH  16  17
ATOM     17  C   UNL     1       6.669   4.658  14.243  0.00  0.00    +0.000 A 
ATOM     18  C   UNL     1       5.702   3.699  13.742  0.00  0.00    +0.000 A 
ATOM     19  C   UNL     1       5.881   3.415  12.415  0.00  0.00    +0.000 A 
ATOM     20 CL   UNL     1       4.962   2.322  11.465  0.00  0.00    +0.000 Cl
ATOM     21  S   UNL     1       7.167   4.261  11.728  0.00  0.00    +0.000 S 
ATOM     22  C   UNL     1       7.527   5.010  13.217  0.00  0.00    +0.000 A 
ATOM     23 CL   UNL     1       8.941   5.990  13.243  0.00  0.00    +0.000 Cl
ENDBRANCH  16  17
BRANCH  15  24
ATOM     24  O   UNL     1       7.776   4.944  17.635  0.00  0.00    +0.000 OA
ATOM     25  H   UNL     1       8.725   4.870  17.834  0.00  0.00    +0.000 HD
ENDBRANCH  15  24
ENDBRANCH  14  16
ENDBRANCH   1  14
TORSDOF 6
ENDMDL
MODEL 2
REMARK VINA RESULT:      -7.4      1.890      2.841
REMARK  Name = 
REMARK  6 active torsions:
REMARK  status: ('A' for Active; 'I' for Inactive)
REMARK    1  A    between atoms: O_1  and  N_2
REMARK    2  A    between atoms: C_3  and  C_4
REMARK    3  A    between atoms: C_3  and  C_18
REMARK    4  A    between atoms: C_4  and  S_5
REMARK    5  A    between atoms: S_5  and  C_6
REMARK    6  A    between atoms: C_11  and  C_12
REMARK                            x       y       z     vdW  Elec       q    Type
REMARK                         _______ _______ _______ _____ _____    ______ ____
ROOT
ATOM      1  S   UNL     1       3.740   6.348  17.793  0.00  0.00    +0.000 S 
ENDROOT
BRANCH   1   2
ATOM      2  C   UNL     1       2.560   7.115  18.933  0.00  0.00    +0.000 A 
ATOM      3  C   UNL     1       2.396   8.508  18.768  0.00  0.00    +0.000 A 
ATOM      4  C   UNL     1       1.601   9.254  19.635  0.00  0.00    +0.000 A 
ATOM      5  C   UNL     1       0.936   8.618  20.669  0.00  0.00    +0.000 A 
ATOM      6  C   UNL     1       1.032   7.230  20.802  0.00  0.00    +0.000 A 
ATOM      7  C   UNL     1       1.830   6.430  19.945  0.00  0.00    +0.000 A 
BRANCH   7   8
ATOM      8  C   UNL     1       1.838   4.950  20.169  0.00  0.00    +0.000 A 
ATOM      9  C   UNL     1       1.338   4.041  19.220  0.00  0.00    +0.000 A 
ATOM     10  C   UNL     1       1.373   2.656  19.427  0.00  0.00    +0.000 A 
ATOM     11  C   UNL     1       1.850   2.141  20.624  0.00  0.00    +0.000 A 
ATOM     12  C   UNL     1       2.295   3.010  21.611  0.00  0.00    +0.000 A 
ATOM     13  C   UNL     1       2.300   4.391  21.380  0.00  0.00    +0.000 A 
ENDBRANCH   7   8
ENDBRANCH   1   2
BRANCH   1  14
ATOM     14  C   UNL     1       4.924   5.643  18.994  0.00  0.00    +0.000 C 
BRANCH  14  16
ATOM     15  N   UNL     1       7.365   5.085  18.845  0.00  0.00    +0.000 NA
ATOM     16  C   UNL     1       6.194   5.185  18.278  0.00  0.00    +0.000 C 
BRANCH  16  17
ATOM     17  C   UNL     1       6.209   4.767  16.866  0.00  0.00    +0.000 A 
ATOM     18  C   UNL     1       7.117   5.338  15.888  0.00  0.00    +0.000 A 
ATOM     19  C   UNL     1       6.915   4.841  14.630  0.00  0.00    +0.000 A 
ATOM     20 CL   UNL     1       7.765   5.275  13.204  0.00  0.00    +0.000 Cl
ATOM     21  S   UNL     1       5.675   3.701  14.562  0.00  0.00    +0.000 S 
ATOM     22  C   UNL     1       5.366   3.874  16.230  0.00  0.00    +0.000 A 
ATOM     23 CL   UNL     1       4.011   3.007  16.838  0.00  0.00    +0.000 Cl
ENDBRANCH  16  17
BRANCH  15  24
ATOM     24  O   UNL     1       7.364   5.473  20.181  0.00  0.00    +0.000 OA
ATOM     25  H   UNL     1       7.186   6.428  20.119  0.00  0.00    +0.000 HD
ENDBRANCH  15  24
ENDBRANCH  14  16
ENDBRANCH   1  14
TORSDOF 6
ENDMDL
MODEL 3
REMARK VINA RESULT:      -7.3      1.989      4.132
REMARK  Name = 
REMARK  6 active torsions:
REMARK  status: ('A' for Active; 'I' for Inactive)
REMARK    1  A    between atoms: O_1  and  N_2
REMARK    2  A    between atoms: C_3  and  C_4
REMARK    3  A    between atoms: C_3  and  C_18
REMARK    4  A    between atoms: C_4  and  S_5
REMARK    5  A    between atoms: S_5  and  C_6
REMARK    6  A    between atoms: C_11  and  C_12
REMARK                            x       y       z     vdW  Elec       q    Type
REMARK                         _______ _______ _______ _____ _____    ______ ____
ROOT
ATOM      1  S   UNL     1       4.776   5.767  19.317  0.00  0.00    +0.000 S 
ENDROOT
BRANCH   1   2
ATOM      2  C   UNL     1       3.289   4.907  19.893  0.00  0.00    +0.000 A 
ATOM      3  C   UNL     1       3.456   3.524  20.125  0.00  0.00    +0.000 A 
ATOM      4  C   UNL     1       2.381   2.710  20.472  0.00  0.00    +0.000 A 
ATOM      5  C   UNL     1       1.122   3.266  20.616  0.00  0.00    +0.000 A 
ATOM      6  C   UNL     1       0.954   4.645  20.458  0.00  0.00    +0.000 A 
ATOM      7  C   UNL     1       2.018   5.513  20.103  0.00  0.00    +0.000 A 
BRANCH   7   8
ATOM      8  C   UNL     1       1.725   6.976  19.986  0.00  0.00    +0.000 A 
ATOM      9  C   UNL     1       1.186   7.726  21.045  0.00  0.00    +0.000 A 
ATOM     10  C   UNL     1       0.939   9.099  20.934  0.00  0.00    +0.000 A 
ATOM     11  C   UNL     1       1.164   9.753  19.731  0.00  0.00    +0.000 A 
ATOM     12  C   UNL     1       1.638   9.035  18.642  0.00  0.00    +0.000 A 
ATOM     13  C   UNL     1       1.925   7.670  18.773  0.00  0.00    +0.000 A 
ENDBRANCH   7   8
ENDBRANCH   1   2
BRANCH   1  14
ATOM     14  C   UNL     1       5.853   4.331  18.967  0.00  0.00    +0.000 C 
BRANCH  14  16
ATOM     15  N   UNL     1       8.088   5.111  18.140  0.00  0.00    +0.000 NA
ATOM     16  C   UNL     1       6.878   4.690  17.893  0.00  0.00    +0.000 C 
BRANCH  16  17
ATOM     17  C   UNL     1       6.608   4.551  16.452  0.00  0.00    +0.000 A 
ATOM     18  C   UNL     1       7.542   4.993  15.433  0.00  0.00    +0.000 A 
ATOM     19  C   UNL     1       7.057   4.818  14.165  0.00  0.00    +0.000 A 
ATOM     20 CL   UNL     1       7.845   5.231  12.698  0.00  0.00    +0.000 Cl
ATOM     21  S   UNL     1       5.518   4.132  14.136  0.00  0.00    +0.000 S 
ATOM     22  C   UNL     1       5.461   4.081  15.839  0.00  0.00    +0.000 A 
ATOM     23 CL   UNL     1       3.972   3.561  16.527  0.00  0.00    +0.000 Cl
ENDBRANCH  16  17
BRANCH  15  24
ATOM     24  O   UNL     1       8.358   5.243  19.498  0.00  0.00    +0.000 OA
ATOM     25  H   UNL     1       7.547   4.893  19.906  0.00  0.00    +0.000 HD
ENDBRANCH  15  24
ENDBRANCH  14  16
ENDBRANCH   1  14
TORSDOF 6
ENDMDL
MODEL 4
REMARK VINA RESULT:      -7.3      5.688      8.623
REMARK  Name = 
REMARK  6 active torsions:
REMARK  status: ('A' for Active; 'I' for Inactive)
REMARK    1  A    between atoms: O_1  and  N_2
REMARK    2  A    between atoms: C_3  and  C_4
REMARK    3  A    between atoms: C_3  and  C_18
REMARK    4  A    between atoms: C_4  and  S_5
REMARK    5  A    between atoms: S_5  and  C_6
REMARK    6  A    between atoms: C_11  and  C_12
REMARK                            x       y       z     vdW  Elec       q    Type
REMARK                         _______ _______ _______ _____ _____    ______ ____
ROOT
ATOM      1  S   UNL     1       2.189   7.571  19.802  0.00  0.00    +0.000 S 
ENDROOT
BRANCH   1   2
ATOM      2  C   UNL     1       2.329   5.767  19.883  0.00  0.00    +0.000 A 
ATOM      3  C   UNL     1       1.220   5.112  20.463  0.00  0.00    +0.000 A 
ATOM      4  C   UNL     1       1.222   3.738  20.687  0.00  0.00    +0.000 A 
ATOM      5  C   UNL     1       2.324   2.988  20.316  0.00  0.00    +0.000 A 
ATOM      6  C   UNL     1       3.401   3.611  19.677  0.00  0.00    +0.000 A 
ATOM      7  C   UNL     1       3.443   5.007  19.429  0.00  0.00    +0.000 A 
BRANCH   7   8
ATOM      8  C   UNL     1       4.637   5.559  18.715  0.00  0.00    +0.000 A 
ATOM      9  C   UNL     1       4.542   6.198  17.467  0.00  0.00    +0.000 A 
ATOM     10  C   UNL     1       5.661   6.735  16.819  0.00  0.00    +0.000 A 
ATOM     11  C   UNL     1       6.925   6.589  17.374  0.00  0.00    +0.000 A 
ATOM     12  C   UNL     1       7.068   5.910  18.576  0.00  0.00    +0.000 A 
ATOM     13  C   UNL     1       5.939   5.415  19.241  0.00  0.00    +0.000 A 
ENDBRANCH   7   8
ENDBRANCH   1   2
BRANCH   1  14
ATOM     14  C   UNL     1       0.933   7.848  21.101  0.00  0.00    +0.000 C 
BRANCH  14  16
ATOM     15  N   UNL     1       1.462  10.033  22.212  0.00  0.00    +0.000 NA
ATOM     16  C   UNL     1       0.758   9.344  21.357  0.00  0.00    +0.000 C 
BRANCH  16  17
ATOM     17  C   UNL     1      -0.210  10.173  20.619  0.00  0.00    +0.000 A 
ATOM     18  C   UNL     1      -0.512   9.966  19.215  0.00  0.00    +0.000 A 
ATOM     19  C   UNL     1      -1.396  10.889  18.726  0.00  0.00    +0.000 A 
ATOM     20 CL   UNL     1      -1.985  10.995  17.118  0.00  0.00    +0.000 Cl
ATOM     21  S   UNL     1      -1.894  12.005  19.886  0.00  0.00    +0.000 S 
ATOM     22  C   UNL     1      -0.905  11.280  21.071  0.00  0.00    +0.000 A 
ATOM     23 CL   UNL     1      -0.841  12.084  22.591  0.00  0.00    +0.000 Cl
ENDBRANCH  16  17
BRANCH  15  24
ATOM     24  O   UNL     1       2.384   9.262  22.913  0.00  0.00    +0.000 OA
ATOM     25  H   UNL     1       1.955   8.389  22.928  0.00  0.00    +0.000 HD
ENDBRANCH  15  24
ENDBRANCH  14  16
ENDBRANCH   1  14
TORSDOF 6
ENDMDL
MODEL 5
REMARK VINA RESULT:      -7.3      3.860      7.384
REMARK  Name = 
REMARK  6 active torsions:
REMARK  status: ('A' for Active; 'I' for Inactive)
REMARK    1  A    between atoms: O_1  and  N_2
REMARK    2  A    between atoms: C_3  and  C_4
REMARK    3  A    between atoms: C_3  and  C_18
REMARK    4  A    between atoms: C_4  and  S_5
REMARK    5  A    between atoms: S_5  and  C_6
REMARK    6  A    between atoms: C_11  and  C_12
REMARK                            x       y       z     vdW  Elec       q    Type
REMARK                         _______ _______ _______ _____ _____    ______ ____
ROOT
ATOM      1  S   UNL     1       4.360   3.252  16.571  0.00  0.00    +0.000 S 
ENDROOT
BRANCH   1   2
ATOM      2  C   UNL     1       5.670   4.390  17.092  0.00  0.00    +0.000 A 
ATOM      3  C   UNL     1       5.707   4.656  18.478  0.00  0.00    +0.000 A 
ATOM      4  C   UNL     1       6.591   5.587  19.017  0.00  0.00    +0.000 A 
ATOM      5  C   UNL     1       7.471   6.254  18.182  0.00  0.00    +0.000 A 
ATOM      6  C   UNL     1       7.495   5.950  16.818  0.00  0.00    +0.000 A 
ATOM      7  C   UNL     1       6.613   5.011  16.225  0.00  0.00    +0.000 A 
BRANCH   7   8
ATOM      8  C   UNL     1       6.747   4.748  14.758  0.00  0.00    +0.000 A 
ATOM      9  C   UNL     1       6.001   3.757  14.097  0.00  0.00    +0.000 A 
ATOM     10  C   UNL     1       6.113   3.536  12.719  0.00  0.00    +0.000 A 
ATOM     11  C   UNL     1       7.030   4.260  11.969  0.00  0.00    +0.000 A 
ATOM     12  C   UNL     1       7.829   5.206  12.597  0.00  0.00    +0.000 A 
ATOM     13  C   UNL     1       7.679   5.453  13.967  0.00  0.00    +0.000 A 
ENDBRANCH   7   8
ENDBRANCH   1   2
BRANCH   1  14
ATOM     14  C   UNL     1       3.659   2.812  18.200  0.00  0.00    +0.000 C 
BRANCH  14  16
ATOM     15  N   UNL     1       1.157   2.956  18.290  0.00  0.00    +0.000 NA
ATOM     16  C   UNL     1       2.325   3.525  18.412  0.00  0.00    +0.000 C 
BRANCH  16  17
ATOM     17  C   UNL     1       2.228   4.936  18.821  0.00  0.00    +0.000 A 
ATOM     18  C   UNL     1       2.291   6.034  17.874  0.00  0.00    +0.000 A 
ATOM     19  C   UNL     1       2.239   7.258  18.483  0.00  0.00    +0.000 A 
ATOM     20 CL   UNL     1       2.306   8.791  17.717  0.00  0.00    +0.000 Cl
ATOM     21  S   UNL     1       2.109   7.154  20.161  0.00  0.00    +0.000 S 
ATOM     22  C   UNL     1       2.147   5.451  20.102  0.00  0.00    +0.000 A 
ATOM     23 CL   UNL     1       2.185   4.647  21.623  0.00  0.00    +0.000 Cl
ENDBRANCH  16  17
BRANCH  15  24
ATOM     24  O   UNL     1       1.234   1.620  17.908  0.00  0.00    +0.000 OA
ATOM     25  H   UNL     1       1.718   1.673  17.065  0.00  0.00    +0.000 HD
ENDBRANCH  15  24
ENDBRANCH  14  16
ENDBRANCH   1  14
TORSDOF 6
ENDMDL
MODEL 6
REMARK VINA RESULT:      -7.2      3.797      7.284
REMARK  Name = 
REMARK  6 active torsions:
REMARK  status: ('A' for Active; 'I' for Inactive)
REMARK    1  A    between atoms: O_1  and  N_2
REMARK    2  A    between atoms: C_3  and  C_4
REMARK    3  A    between atoms: C_3  and  C_18
REMARK    4  A    between atoms: C_4  and  S_5
REMARK    5  A    between atoms: S_5  and  C_6
REMARK    6  A    between atoms: C_11  and  C_12
REMARK                            x       y       z     vdW  Elec       q    Type
REMARK                         _______ _______ _______ _____ _____    ______ ____
ROOT
ATOM      1  S   UNL     1       4.854   3.011  16.846  0.00  0.00    +0.000 S 
ENDROOT
BRANCH   1   2
ATOM      2  C   UNL     1       5.963   4.402  17.186  0.00  0.00    +0.000 A 
ATOM      3  C   UNL     1       6.053   4.770  18.547  0.00  0.00    +0.000 A 
ATOM      4  C   UNL     1       6.785   5.883  18.952  0.00  0.00    +0.000 A 
ATOM      5  C   UNL     1       7.460   6.637  18.008  0.00  0.00    +0.000 A 
ATOM      6  C   UNL     1       7.437   6.245  16.666  0.00  0.00    +0.000 A 
ATOM      7  C   UNL     1       6.705   5.121  16.206  0.00  0.00    +0.000 A 
BRANCH   7   8
ATOM      8  C   UNL     1       6.774   4.782  14.750  0.00  0.00    +0.000 A 
ATOM      9  C   UNL     1       7.683   5.400  13.874  0.00  0.00    +0.000 A 
ATOM     10  C   UNL     1       7.759   5.058  12.518  0.00  0.00    +0.000 A 
ATOM     11  C   UNL     1       6.876   4.130  11.983  0.00  0.00    +0.000 A 
ATOM     12  C   UNL     1       5.922   3.544  12.803  0.00  0.00    +0.000 A 
ATOM     13  C   UNL     1       5.882   3.857  14.167  0.00  0.00    +0.000 A 
ENDBRANCH   7   8
ENDBRANCH   1   2
BRANCH   1  14
ATOM     14  C   UNL     1       3.994   2.894  18.455  0.00  0.00    +0.000 C 
BRANCH  14  16
ATOM     15  N   UNL     1       1.534   3.002  17.980  0.00  0.00    +0.000 NA
ATOM     16  C   UNL     1       2.632   3.583  18.378  0.00  0.00    +0.000 C 
BRANCH  16  17
ATOM     17  C   UNL     1       2.418   4.980  18.791  0.00  0.00    +0.000 A 
ATOM     18  C   UNL     1       2.495   6.093  17.864  0.00  0.00    +0.000 A 
ATOM     19  C   UNL     1       2.319   7.303  18.479  0.00  0.00    +0.000 A 
ATOM     20 CL   UNL     1       2.358   8.849  17.737  0.00  0.00    +0.000 Cl
ATOM     21  S   UNL     1       2.056   7.167  20.138  0.00  0.00    +0.000 S 
ATOM     22  C   UNL     1       2.200   5.470  20.066  0.00  0.00    +0.000 A 
ATOM     23 CL   UNL     1       2.159   4.646  21.576  0.00  0.00    +0.000 Cl
ENDBRANCH  16  17
BRANCH  15  24
ATOM     24  O   UNL     1       1.721   1.680  17.590  0.00  0.00    +0.000 OA
ATOM     25  H   UNL     1       2.226   1.777  16.764  0.00  0.00    +0.000 HD
ENDBRANCH  15  24
ENDBRANCH  14  16
ENDBRANCH   1  14
TORSDOF 6
ENDMDL
MODEL 7
REMARK VINA RESULT:      -7.2      5.454      8.492
REMARK  Name = 
REMARK  6 active torsions:
REMARK  status: ('A' for Active; 'I' for Inactive)
REMARK    1  A    between atoms: O_1  and  N_2
REMARK    2  A    between atoms: C_3  and  C_4
REMARK    3  A    between atoms: C_3  and  C_18
REMARK    4  A    between atoms: C_4  and  S_5
REMARK    5  A    between atoms: S_5  and  C_6
REMARK    6  A    between atoms: C_11  and  C_12
REMARK                            x       y       z     vdW  Elec       q    Type
REMARK                         _______ _______ _______ _____ _____    ______ ____
ROOT
ATOM      1  S   UNL     1       2.314   7.493  19.717  0.00  0.00    +0.000 S 
ENDROOT
BRANCH   1   2
ATOM      2  C   UNL     1       2.472   5.699  19.910  0.00  0.00    +0.000 A 
ATOM      3  C   UNL     1       1.373   5.071  20.537  0.00  0.00    +0.000 A 
ATOM      4  C   UNL     1       1.390   3.713  20.846  0.00  0.00    +0.000 A 
ATOM      5  C   UNL     1       2.497   2.952  20.514  0.00  0.00    +0.000 A 
ATOM      6  C   UNL     1       3.564   3.544  19.831  0.00  0.00    +0.000 A 
ATOM      7  C   UNL     1       3.591   4.922  19.496  0.00  0.00    +0.000 A 
BRANCH   7   8
ATOM      8  C   UNL     1       4.775   5.440  18.742  0.00  0.00    +0.000 A 
ATOM      9  C   UNL     1       4.671   5.970  17.444  0.00  0.00    +0.000 A 
ATOM     10  C   UNL     1       5.780   6.477  16.756  0.00  0.00    +0.000 A 
ATOM     11  C   UNL     1       7.044   6.406  17.324  0.00  0.00    +0.000 A 
ATOM     12  C   UNL     1       7.198   5.833  18.579  0.00  0.00    +0.000 A 
ATOM     13  C   UNL     1       6.078   5.370  19.280  0.00  0.00    +0.000 A 
ENDBRANCH   7   8
ENDBRANCH   1   2
BRANCH   1  14
ATOM     14  C   UNL     1       0.996   7.826  20.939  0.00  0.00    +0.000 C 
BRANCH  14  16
ATOM     15  N   UNL     1       1.530   9.972  22.121  0.00  0.00    +0.000 NA
ATOM     16  C   UNL     1       0.877   9.327  21.193  0.00  0.00    +0.000 C 
BRANCH  16  17
ATOM     17  C   UNL     1       0.032  10.212  20.374  0.00  0.00    +0.000 A 
ATOM     18  C   UNL     1      -0.993  11.066  20.944  0.00  0.00    +0.000 A 
ATOM     19  C   UNL     1      -1.692  11.756  19.991  0.00  0.00    +0.000 A 
ATOM     20 CL   UNL     1      -2.989  12.847  20.257  0.00  0.00    +0.000 Cl
ATOM     21  S   UNL     1      -1.167  11.431  18.423  0.00  0.00    +0.000 S 
ATOM     22  C   UNL     1       0.001  10.329  18.996  0.00  0.00    +0.000 A 
ATOM     23 CL   UNL     1       0.875   9.465  17.792  0.00  0.00    +0.000 Cl
ENDBRANCH  16  17
BRANCH  15  24
ATOM     24  O   UNL     1       2.336   9.149  22.900  0.00  0.00    +0.000 OA
ATOM     25  H   UNL     1       3.063   8.933  22.290  0.00  0.00    +0.000 HD
ENDBRANCH  15  24
ENDBRANCH  14  16
ENDBRANCH   1  14
TORSDOF 6
ENDMDL
MODEL 8
REMARK VINA RESULT:      -7.2      1.975      2.576
REMARK  Name = 
REMARK  6 active torsions:
REMARK  status: ('A' for Active; 'I' for Inactive)
REMARK    1  A    between atoms: O_1  and  N_2
REMARK    2  A    between atoms: C_3  and  C_4
REMARK    3  A    between atoms: C_3  and  C_18
REMARK    4  A    between atoms: C_4  and  S_5
REMARK    5  A    between atoms: S_5  and  C_6
REMARK    6  A    between atoms: C_11  and  C_12
REMARK                            x       y       z     vdW  Elec       q    Type
REMARK                         _______ _______ _______ _____ _____    ______ ____
ROOT
ATOM      1  S   UNL     1       3.237   6.341  17.800  0.00  0.00    +0.000 S 
ENDROOT
BRANCH   1   2
ATOM      2  C   UNL     1       2.238   7.134  19.086  0.00  0.00    +0.000 A 
ATOM      3  C   UNL     1       2.070   8.528  18.932  0.00  0.00    +0.000 A 
ATOM      4  C   UNL     1       1.414   9.292  19.893  0.00  0.00    +0.000 A 
ATOM      5  C   UNL     1       0.892   8.674  21.016  0.00  0.00    +0.000 A 
ATOM      6  C   UNL     1       0.989   7.286  21.149  0.00  0.00    +0.000 A 
ATOM      7  C   UNL     1       1.649   6.467  20.198  0.00  0.00    +0.000 A 
BRANCH   7   8
ATOM      8  C   UNL     1       1.669   4.989  20.433  0.00  0.00    +0.000 A 
ATOM      9  C   UNL     1       1.064   4.077  19.552  0.00  0.00    +0.000 A 
ATOM     10  C   UNL     1       1.110   2.694  19.767  0.00  0.00    +0.000 A 
ATOM     11  C   UNL     1       1.709   2.185  20.911  0.00  0.00    +0.000 A 
ATOM     12  C   UNL     1       2.264   3.059  21.836  0.00  0.00    +0.000 A 
ATOM     13  C   UNL     1       2.254   4.438  21.592  0.00  0.00    +0.000 A 
ENDBRANCH   7   8
ENDBRANCH   1   2
BRANCH   1  14
ATOM     14  C   UNL     1       4.587   5.658  18.826  0.00  0.00    +0.000 C 
BRANCH  14  16
ATOM     15  N   UNL     1       5.485   3.334  18.540  0.00  0.00    +0.000 NA
ATOM     16  C   UNL     1       5.308   4.541  18.075  0.00  0.00    +0.000 C 
BRANCH  16  17
ATOM     17  C   UNL     1       5.847   4.709  16.715  0.00  0.00    +0.000 A 
ATOM     18  C   UNL     1       5.506   3.820  15.620  0.00  0.00    +0.000 A 
ATOM     19  C   UNL     1       6.167   4.133  14.464  0.00  0.00    +0.000 A 
ATOM     20 CL   UNL     1       6.053   3.313  12.961  0.00  0.00    +0.000 Cl
ATOM     21  S   UNL     1       7.186   5.466  14.626  0.00  0.00    +0.000 S 
ATOM     22  C   UNL     1       6.776   5.633  16.273  0.00  0.00    +0.000 A 
ATOM     23 CL   UNL     1       7.643   6.837  17.145  0.00  0.00    +0.000 Cl
ENDBRANCH  16  17
BRANCH  15  24
ATOM     24  O   UNL     1       4.977   3.160  19.823  0.00  0.00    +0.000 OA
ATOM     25  H   UNL     1       5.786   3.105  20.361  0.00  0.00    +0.000 HD
ENDBRANCH  15  24
ENDBRANCH  14  16
ENDBRANCH   1  14
TORSDOF 6
ENDMDL
MODEL 9
REMARK VINA RESULT:      -7.1      5.412      8.396
REMARK  Name = 
REMARK  6 active torsions:
REMARK  status: ('A' for Active; 'I' for Inactive)
REMARK    1  A    between atoms: O_1  and  N_2
REMARK    2  A    between atoms: C_3  and  C_4
REMARK    3  A    between atoms: C_3  and  C_18
REMARK    4  A    between atoms: C_4  and  S_5
REMARK    5  A    between atoms: S_5  and  C_6
REMARK    6  A    between atoms: C_11  and  C_12
REMARK                            x       y       z     vdW  Elec       q    Type
REMARK                         _______ _______ _______ _____ _____    ______ ____
ROOT
ATOM      1  S   UNL     1       2.415   7.435  19.860  0.00  0.00    +0.000 S 
ENDROOT
BRANCH   1   2
ATOM      2  C   UNL     1       2.400   5.624  19.911  0.00  0.00    +0.000 A 
ATOM      3  C   UNL     1       1.285   5.059  20.568  0.00  0.00    +0.000 A 
ATOM      4  C   UNL     1       1.183   3.686  20.777  0.00  0.00    +0.000 A 
ATOM      5  C   UNL     1       2.183   2.849  20.313  0.00  0.00    +0.000 A 
ATOM      6  C   UNL     1       3.258   3.387  19.599  0.00  0.00    +0.000 A 
ATOM      7  C   UNL     1       3.405   4.778  19.364  0.00  0.00    +0.000 A 
BRANCH   7   8
ATOM      8  C   UNL     1       4.585   5.237  18.566  0.00  0.00    +0.000 A 
ATOM      9  C   UNL     1       5.861   5.400  19.131  0.00  0.00    +0.000 A 
ATOM     10  C   UNL     1       6.966   5.805  18.371  0.00  0.00    +0.000 A 
ATOM     11  C   UNL     1       6.810   6.124  17.030  0.00  0.00    +0.000 A 
ATOM     12  C   UNL     1       5.552   6.034  16.449  0.00  0.00    +0.000 A 
ATOM     13  C   UNL     1       4.461   5.585  17.204  0.00  0.00    +0.000 A 
ENDBRANCH   7   8
ENDBRANCH   1   2
BRANCH   1  14
ATOM     14  C   UNL     1       1.009   7.792  20.972  0.00  0.00    +0.000 C 
BRANCH  14  16
ATOM     15  N   UNL     1       1.535   9.948  22.141  0.00  0.00    +0.000 NA
ATOM     16  C   UNL     1       0.892   9.297  21.211  0.00  0.00    +0.000 C 
BRANCH  16  17
ATOM     17  C   UNL     1       0.060  10.177  20.373  0.00  0.00    +0.000 A 
ATOM     18  C   UNL     1      -0.976  11.033  20.921  0.00  0.00    +0.000 A 
ATOM     19  C   UNL     1      -1.658  11.718  19.952  0.00  0.00    +0.000 A 
ATOM     20 CL   UNL     1      -2.960  12.808  20.190  0.00  0.00    +0.000 Cl
ATOM     21  S   UNL     1      -1.105  11.386  18.395  0.00  0.00    +0.000 S 
ATOM     22  C   UNL     1       0.053  10.287  18.994  0.00  0.00    +0.000 A 
ATOM     23 CL   UNL     1       0.950   9.419  17.810  0.00  0.00    +0.000 Cl
ENDBRANCH  16  17
BRANCH  15  24
ATOM     24  O   UNL     1       2.328   9.128  22.938  0.00  0.00    +0.000 OA
ATOM     25  H   UNL     1       1.715   8.878  23.651  0.00  0.00    +0.000 HD
ENDBRANCH  15  24
ENDBRANCH  14  16
ENDBRANCH   1  14
TORSDOF 6
ENDMDL
