MODEL 1
REMARK VINA RESULT:      -7.4      0.000      0.000
REMARK  Name = 
REMARK  5 active torsions:
REMARK  status: ('A' for Active; 'I' for Inactive)
REMARK    1  A    between atoms: C_1  and  O_2
REMARK    2  A    between atoms: O_2  and  C_3
REMARK    3  A    between atoms: C_8  and  O_9
REMARK    4  A    between atoms: O_9  and  C_10
REMARK    5  A    between atoms: C_15  and  C_16
REMARK                            x       y       z     vdW  Elec       q    Type
REMARK                         _______ _______ _______ _____ _____    ______ ____
ROOT
ATOM      1  C   UNL     1       5.141   5.369  17.606  0.00  0.00    +0.000 A 
ATOM      2  C   UNL     1       3.998   5.051  18.368  0.00  0.00    +0.000 A 
ATOM      3  C   UNL     1       3.007   5.999  18.669  0.00  0.00    +0.000 A 
ATOM      4  C   UNL     1       3.127   7.255  18.066  0.00  0.00    +0.000 A 
ATOM      5  C   UNL     1       4.251   7.580  17.297  0.00  0.00    +0.000 A 
ATOM      6  C   UNL     1       5.296   6.674  17.127  0.00  0.00    +0.000 A 
ATOM      7  C   UNL     1       2.133   8.337  18.189  0.00  0.00    +0.000 C 
ATOM      8  O   UNL     1       1.905   9.047  17.213  0.00  0.00    +0.000 OA
ATOM      9  N   UNL     1       1.569   8.540  19.428  0.00  0.00    +0.000 N 
ATOM     10  C   UNL     1       0.734   9.591  19.694  0.00  0.00    +0.000 C 
ATOM     11  C   UNL     1       0.396   9.648  20.985  0.00  0.00    +0.000 C 
ATOM     12  C   UNL     1       1.073   8.536  21.749  0.00  0.00    +0.000 C 
ATOM     13  C   UNL     1       1.886   7.810  20.656  0.00  0.00    +0.000 C 
ATOM     14  C   UNL     1       1.448   6.381  20.402  0.00  0.00    +0.000 C 
ATOM     15  N   UNL     1       1.953   5.580  19.509  0.00  0.00    +0.000 NA
ENDROOT
BRANCH  11  16
ATOM     16  C   UNL     1      -0.474  10.667  21.570  0.00  0.00    +0.000 A 
ATOM     17  C   UNL     1      -0.960  10.574  22.876  0.00  0.00    +0.000 A 
ATOM     18  C   UNL     1      -1.806  11.565  23.378  0.00  0.00    +0.000 A 
ATOM     19  C   UNL     1      -2.151  12.623  22.555  0.00  0.00    +0.000 A 
ATOM     20  N   UNL     1      -1.708  12.758  21.293  0.00  0.00    +0.000 NA
ATOM     21  C   UNL     1      -0.883  11.784  20.834  0.00  0.00    +0.000 A 
ENDBRANCH  11  16
BRANCH   1  23
ATOM     22  C   UNL     1       6.032   3.703  16.139  0.00  0.00    +0.000 C 
ATOM     23  O   UNL     1       5.979   4.299  17.428  0.00  0.00    +0.000 OA
ENDBRANCH   1  23
BRANCH   6  24
ATOM     24  O   UNL     1       6.435   7.051  16.464  0.00  0.00    +0.000 OA
ATOM     25  C   UNL     1       7.483   7.513  17.323  0.00  0.00    +0.000 C 
ENDBRANCH   6  24
TORSDOF 3
ENDMDL
MODEL 2
REMARK VINA RESULT:      -7.3      0.940      1.212
REMARK  Name = 
REMARK  5 active torsions:
REMARK  status: ('A' for Active; 'I' for Inactive)
REMARK    1  A    between atoms: C_1  and  O_2
REMARK    2  A    between atoms: O_2  and  C_3
REMARK    3  A    between atoms: C_8  and  O_9
REMARK    4  A    between atoms: O_9  and  C_10
REMARK    5  A    between atoms: C_15  and  C_16
REMARK                            x       y       z     vdW  Elec       q    Type
REMARK                         _______ _______ _______ _____ _____    ______ ____
ROOT
ATOM      1  C   UNL     1       5.468   5.048  17.072  0.00  0.00    +0.000 A 
ATOM      2  C   UNL     1       4.228   4.702  17.646  0.00  0.00    +0.000 A 
ATOM      3  C   UNL     1       3.281   5.665  18.029  0.00  0.00    +0.000 A 
ATOM      4  C   UNL     1       3.556   6.994  17.693  0.00  0.00    +0.000 A 
ATOM      5  C   UNL     1       4.779   7.351  17.112  0.00  0.00    +0.000 A 
ATOM      6  C   UNL     1       5.769   6.400  16.870  0.00  0.00    +0.000 A 
ATOM      7  C   UNL     1       2.636   8.122  17.928  0.00  0.00    +0.000 C 
ATOM      8  O   UNL     1       2.569   9.017  17.090  0.00  0.00    +0.000 OA
ATOM      9  N   UNL     1       1.954   8.143  19.123  0.00  0.00    +0.000 N 
ATOM     10  C   UNL     1       1.173   9.199  19.506  0.00  0.00    +0.000 C 
ATOM     11  C   UNL     1       0.699   9.048  20.747  0.00  0.00    +0.000 C 
ATOM     12  C   UNL     1       1.206   7.757  21.342  0.00  0.00    +0.000 C 
ATOM     13  C   UNL     1       2.080   7.173  20.212  0.00  0.00    +0.000 C 
ATOM     14  C   UNL     1       1.571   5.862  19.647  0.00  0.00    +0.000 C 
ATOM     15  N   UNL     1       2.113   5.197  18.669  0.00  0.00    +0.000 NA
ENDROOT
BRANCH  11  16
ATOM     16  C   UNL     1      -0.155  10.017  21.432  0.00  0.00    +0.000 A 
ATOM     17  C   UNL     1      -0.755  11.087  20.764  0.00  0.00    +0.000 A 
ATOM     18  C   UNL     1      -1.544  11.996  21.472  0.00  0.00    +0.000 A 
ATOM     19  C   UNL     1      -1.707  11.815  22.834  0.00  0.00    +0.000 A 
ATOM     20  N   UNL     1      -1.151  10.802  23.521  0.00  0.00    +0.000 NA
ATOM     21  C   UNL     1      -0.395   9.930  22.807  0.00  0.00    +0.000 A 
ENDBRANCH  11  16
BRANCH   1  23
ATOM     22  C   UNL     1       6.353   3.577  15.407  0.00  0.00    +0.000 C 
ATOM     23  O   UNL     1       6.242   3.957  16.771  0.00  0.00    +0.000 OA
ENDBRANCH   1  23
BRANCH   6  24
ATOM     24  O   UNL     1       6.998   6.786  16.404  0.00  0.00    +0.000 OA
ATOM     25  C   UNL     1       7.710   7.656  17.290  0.00  0.00    +0.000 C 
ENDBRANCH   6  24
TORSDOF 3
ENDMDL
MODEL 3
REMARK VINA RESULT:      -7.1      2.693      8.250
REMARK  Name = 
REMARK  5 active torsions:
REMARK  status: ('A' for Active; 'I' for Inactive)
REMARK    1  A    between atoms: C_1  and  O_2
REMARK    2  A    between atoms: O_2  and  C_3
REMARK    3  A    between atoms: C_8  and  O_9
REMARK    4  A    between atoms: O_9  and  C_10
REMARK    5  A    between atoms: C_15  and  C_16
REMARK                            x       y       z     vdW  Elec       q    Type
REMARK                         _______ _______ _______ _____ _____    ______ ____
ROOT
ATOM      1  C   UNL     1      -1.939  12.135  21.286  0.00  0.00    +0.000 A 
ATOM      2  C   UNL     1      -0.893  11.522  22.007  0.00  0.00    +0.000 A 
ATOM      3  C   UNL     1       0.080  10.723  21.387  0.00  0.00    +0.000 A 
ATOM      4  C   UNL     1       0.055  10.663  19.990  0.00  0.00    +0.000 A 
ATOM      5  C   UNL     1      -0.971  11.276  19.261  0.00  0.00    +0.000 A 
ATOM      6  C   UNL     1      -2.012  11.945  19.902  0.00  0.00    +0.000 A 
ATOM      7  C   UNL     1       1.054   9.955  19.168  0.00  0.00    +0.000 C 
ATOM      8  O   UNL     1       1.402  10.451  18.100  0.00  0.00    +0.000 OA
ATOM      9  N   UNL     1       1.484   8.726  19.614  0.00  0.00    +0.000 N 
ATOM     10  C   UNL     1       2.308   7.922  18.876  0.00  0.00    +0.000 C 
ATOM     11  C   UNL     1       2.505   6.736  19.459  0.00  0.00    +0.000 C 
ATOM     12  C   UNL     1       1.724   6.655  20.748  0.00  0.00    +0.000 C 
ATOM     13  C   UNL     1       1.019   8.027  20.813  0.00  0.00    +0.000 C 
ATOM     14  C   UNL     1       1.449   8.892  21.980  0.00  0.00    +0.000 C 
ATOM     15  N   UNL     1       1.027  10.098  22.226  0.00  0.00    +0.000 NA
ENDROOT
BRANCH  11  16
ATOM     16  C   UNL     1       3.329   5.664  18.902  0.00  0.00    +0.000 A 
ATOM     17  C   UNL     1       2.933   4.919  17.790  0.00  0.00    +0.000 A 
ATOM     18  C   UNL     1       3.749   3.891  17.311  0.00  0.00    +0.000 A 
ATOM     19  C   UNL     1       4.941   3.632  17.965  0.00  0.00    +0.000 A 
ATOM     20  N   UNL     1       5.367   4.322  19.037  0.00  0.00    +0.000 NA
ATOM     21  C   UNL     1       4.557   5.318  19.476  0.00  0.00    +0.000 A 
ENDBRANCH  11  16
BRANCH   1  23
ATOM     22  C   UNL     1      -2.741  12.636  23.484  0.00  0.00    +0.000 C 
ATOM     23  O   UNL     1      -2.777  12.872  22.083  0.00  0.00    +0.000 OA
ENDBRANCH   1  23
BRANCH   6  24
ATOM     24  O   UNL     1      -3.063  12.443  19.177  0.00  0.00    +0.000 OA
ATOM     25  C   UNL     1      -3.452  11.616  18.074  0.00  0.00    +0.000 C 
ENDBRANCH   6  24
TORSDOF 3
ENDMDL
MODEL 4
REMARK VINA RESULT:      -7.0      2.665      7.935
REMARK  Name = 
REMARK  5 active torsions:
REMARK  status: ('A' for Active; 'I' for Inactive)
REMARK    1  A    between atoms: C_1  and  O_2
REMARK    2  A    between atoms: O_2  and  C_3
REMARK    3  A    between atoms: C_8  and  O_9
REMARK    4  A    between atoms: O_9  and  C_10
REMARK    5  A    between atoms: C_15  and  C_16
REMARK                            x       y       z     vdW  Elec       q    Type
REMARK                         _______ _______ _______ _____ _____    ______ ____
ROOT
ATOM      1  C   UNL     1      -1.675  12.174  19.738  0.00  0.00    +0.000 A 
ATOM      2  C   UNL     1      -0.760  11.734  20.716  0.00  0.00    +0.000 A 
ATOM      3  C   UNL     1       0.197  10.740  20.458  0.00  0.00    +0.000 A 
ATOM      4  C   UNL     1       0.302  10.288  19.139  0.00  0.00    +0.000 A 
ATOM      5  C   UNL     1      -0.593  10.724  18.155  0.00  0.00    +0.000 A 
ATOM      6  C   UNL     1      -1.630  11.604  18.461  0.00  0.00    +0.000 A 
ATOM      7  C   UNL     1       1.312   9.322  18.666  0.00  0.00    +0.000 C 
ATOM      8  O   UNL     1       1.802   9.475  17.551  0.00  0.00    +0.000 OA
ATOM      9  N   UNL     1       1.590   8.249  19.481  0.00  0.00    +0.000 N 
ATOM     10  C   UNL     1       2.411   7.225  19.094  0.00  0.00    +0.000 C 
ATOM     11  C   UNL     1       2.448   6.243  20.001  0.00  0.00    +0.000 C 
ATOM     12  C   UNL     1       1.543   6.573  21.162  0.00  0.00    +0.000 C 
ATOM     13  C   UNL     1       0.954   7.944  20.763  0.00  0.00    +0.000 C 
ATOM     14  C   UNL     1       1.342   9.080  21.688  0.00  0.00    +0.000 C 
ATOM     15  N   UNL     1       1.002  10.327  21.542  0.00  0.00    +0.000 NA
ENDROOT
BRANCH  11  16
ATOM     16  C   UNL     1       3.228   5.014  19.860  0.00  0.00    +0.000 A 
ATOM     17  C   UNL     1       2.738   3.769  20.260  0.00  0.00    +0.000 A 
ATOM     18  C   UNL     1       3.534   2.630  20.123  0.00  0.00    +0.000 A 
ATOM     19  C   UNL     1       4.806   2.767  19.595  0.00  0.00    +0.000 A 
ATOM     20  N   UNL     1       5.321   3.943  19.195  0.00  0.00    +0.000 NA
ATOM     21  C   UNL     1       4.524   5.032  19.334  0.00  0.00    +0.000 A 
ENDBRANCH  11  16
BRANCH   1  23
ATOM     22  C   UNL     1      -1.955  14.226  20.935  0.00  0.00    +0.000 C 
ATOM     23  O   UNL     1      -2.520  13.151  20.197  0.00  0.00    +0.000 OA
ENDBRANCH   1  23
BRANCH   6  24
ATOM     24  O   UNL     1      -2.560  11.932  17.509  0.00  0.00    +0.000 OA
ATOM     25  C   UNL     1      -2.633  11.004  16.422  0.00  0.00    +0.000 C 
ENDBRANCH   6  24
TORSDOF 3
ENDMDL
MODEL 5
REMARK VINA RESULT:      -6.9      3.115      8.757
REMARK  Name = 
REMARK  5 active torsions:
REMARK  status: ('A' for Active; 'I' for Inactive)
REMARK    1  A    between atoms: C_1  and  O_2
REMARK    2  A    between atoms: O_2  and  C_3
REMARK    3  A    between atoms: C_8  and  O_9
REMARK    4  A    between atoms: O_9  and  C_10
REMARK    5  A    between atoms: C_15  and  C_16
REMARK                            x       y       z     vdW  Elec       q    Type
REMARK                         _______ _______ _______ _____ _____    ______ ____
ROOT
ATOM      1  C   UNL     1      -3.122  12.686  22.638  0.00  0.00    +0.000 A 
ATOM      2  C   UNL     1      -2.067  11.972  23.242  0.00  0.00    +0.000 A 
ATOM      3  C   UNL     1      -1.047  11.361  22.495  0.00  0.00    +0.000 A 
ATOM      4  C   UNL     1      -1.040  11.601  21.118  0.00  0.00    +0.000 A 
ATOM      5  C   UNL     1      -2.075  12.318  20.506  0.00  0.00    +0.000 A 
ATOM      6  C   UNL     1      -3.157  12.796  21.244  0.00  0.00    +0.000 A 
ATOM      7  C   UNL     1       0.005  11.124  20.193  0.00  0.00    +0.000 C 
ATOM      8  O   UNL     1       0.355  11.850  19.267  0.00  0.00    +0.000 OA
ATOM      9  N   UNL     1       0.478   9.845  20.380  0.00  0.00    +0.000 N 
ATOM     10  C   UNL     1       1.351   9.248  19.511  0.00  0.00    +0.000 C 
ATOM     11  C   UNL     1       1.585   7.973  19.833  0.00  0.00    +0.000 C 
ATOM     12  C   UNL     1       0.781   7.588  21.051  0.00  0.00    +0.000 C 
ATOM     13  C   UNL     1       0.017   8.887  21.386  0.00  0.00    +0.000 C 
ATOM     14  C   UNL     1       0.385   9.497  22.724  0.00  0.00    +0.000 C 
ATOM     15  N   UNL     1      -0.093  10.605  23.210  0.00  0.00    +0.000 NA
ENDROOT
BRANCH  11  16
ATOM     16  C   UNL     1       2.466   7.077  19.085  0.00  0.00    +0.000 A 
ATOM     17  C   UNL     1       2.650   5.740  19.443  0.00  0.00    +0.000 A 
ATOM     18  C   UNL     1       3.520   4.934  18.706  0.00  0.00    +0.000 A 
ATOM     19  C   UNL     1       4.190   5.490  17.630  0.00  0.00    +0.000 A 
ATOM     20  N   UNL     1       4.045   6.770  17.245  0.00  0.00    +0.000 NA
ATOM     21  C   UNL     1       3.189   7.528  17.976  0.00  0.00    +0.000 A 
ENDBRANCH  11  16
BRANCH   1  23
ATOM     22  C   UNL     1      -4.474  12.348  24.582  0.00  0.00    +0.000 C 
ATOM     23  O   UNL     1      -4.007  13.204  23.548  0.00  0.00    +0.000 OA
ENDBRANCH   1  23
BRANCH   6  24
ATOM     24  O   UNL     1      -4.212  13.398  20.611  0.00  0.00    +0.000 OA
ATOM     25  C   UNL     1      -5.199  12.482  20.123  0.00  0.00    +0.000 C 
ENDBRANCH   6  24
TORSDOF 3
ENDMDL
MODEL 6
REMARK VINA RESULT:      -6.9      2.986      8.771
REMARK  Name = 
REMARK  5 active torsions:
REMARK  status: ('A' for Active; 'I' for Inactive)
REMARK    1  A    between atoms: C_1  and  O_2
REMARK    2  A    between atoms: O_2  and  C_3
REMARK    3  A    between atoms: C_8  and  O_9
REMARK    4  A    between atoms: O_9  and  C_10
REMARK    5  A    between atoms: C_15  and  C_16
REMARK                            x       y       z     vdW  Elec       q    Type
REMARK                         _______ _______ _______ _____ _____    ______ ____
ROOT
ATOM      1  C   UNL     1      -3.082  12.554  22.330  0.00  0.00    +0.000 A 
ATOM      2  C   UNL     1      -2.040  11.871  22.990  0.00  0.00    +0.000 A 
ATOM      3  C   UNL     1      -0.983  11.261  22.297  0.00  0.00    +0.000 A 
ATOM      4  C   UNL     1      -0.926  11.470  20.916  0.00  0.00    +0.000 A 
ATOM      5  C   UNL     1      -1.948  12.155  20.248  0.00  0.00    +0.000 A 
ATOM      6  C   UNL     1      -3.066  12.631  20.933  0.00  0.00    +0.000 A 
ATOM      7  C   UNL     1       0.162  10.989  20.043  0.00  0.00    +0.000 C 
ATOM      8  O   UNL     1       0.535  11.700  19.114  0.00  0.00    +0.000 OA
ATOM      9  N   UNL     1       0.647   9.723  20.277  0.00  0.00    +0.000 N 
ATOM     10  C   UNL     1       1.562   9.122  19.457  0.00  0.00    +0.000 C 
ATOM     11  C   UNL     1       1.804   7.858  19.817  0.00  0.00    +0.000 C 
ATOM     12  C   UNL     1       0.960   7.488  21.011  0.00  0.00    +0.000 C 
ATOM     13  C   UNL     1       0.163   8.781  21.287  0.00  0.00    +0.000 C 
ATOM     14  C   UNL     1       0.470   9.427  22.623  0.00  0.00    +0.000 C 
ATOM     15  N   UNL     1      -0.045  10.538  23.065  0.00  0.00    +0.000 NA
ENDROOT
BRANCH  11  16
ATOM     16  C   UNL     1       2.727   6.961  19.123  0.00  0.00    +0.000 A 
ATOM     17  C   UNL     1       3.348   7.310  17.923  0.00  0.00    +0.000 A 
ATOM     18  C   UNL     1       4.205   6.406  17.291  0.00  0.00    +0.000 A 
ATOM     19  C   UNL     1       4.412   5.169  17.876  0.00  0.00    +0.000 A 
ATOM     20  N   UNL     1       3.839   4.786  19.030  0.00  0.00    +0.000 NA
ATOM     21  C   UNL     1       3.017   5.687  19.625  0.00  0.00    +0.000 A 
ENDBRANCH  11  16
BRANCH   1  23
ATOM     22  C   UNL     1      -3.949  14.469  23.471  0.00  0.00    +0.000 C 
ATOM     23  O   UNL     1      -4.010  13.077  23.193  0.00  0.00    +0.000 OA
ENDBRANCH   1  23
BRANCH   6  24
ATOM     24  O   UNL     1      -4.105  13.201  20.246  0.00  0.00    +0.000 OA
ATOM     25  C   UNL     1      -5.187  12.304  19.977  0.00  0.00    +0.000 C 
ENDBRANCH   6  24
TORSDOF 3
ENDMDL
MODEL 7
REMARK VINA RESULT:      -6.9      2.617      8.041
REMARK  Name = 
REMARK  5 active torsions:
REMARK  status: ('A' for Active; 'I' for Inactive)
REMARK    1  A    between atoms: C_1  and  O_2
REMARK    2  A    between atoms: O_2  and  C_3
REMARK    3  A    between atoms: C_8  and  O_9
REMARK    4  A    between atoms: O_9  and  C_10
REMARK    5  A    between atoms: C_15  and  C_16
REMARK                            x       y       z     vdW  Elec       q    Type
REMARK                         _______ _______ _______ _____ _____    ______ ____
ROOT
ATOM      1  C   UNL     1      -1.716  12.183  19.796  0.00  0.00    +0.000 A 
ATOM      2  C   UNL     1      -0.804  11.734  20.772  0.00  0.00    +0.000 A 
ATOM      3  C   UNL     1       0.162  10.751  20.502  0.00  0.00    +0.000 A 
ATOM      4  C   UNL     1       0.278  10.323  19.176  0.00  0.00    +0.000 A 
ATOM      5  C   UNL     1      -0.615  10.770  18.195  0.00  0.00    +0.000 A 
ATOM      6  C   UNL     1      -1.660  11.637  18.510  0.00  0.00    +0.000 A 
ATOM      7  C   UNL     1       1.297   9.373  18.692  0.00  0.00    +0.000 C 
ATOM      8  O   UNL     1       1.793   9.549  17.583  0.00  0.00    +0.000 OA
ATOM      9  N   UNL     1       1.579   8.288  19.490  0.00  0.00    +0.000 N 
ATOM     10  C   UNL     1       2.409   7.276  19.090  0.00  0.00    +0.000 C 
ATOM     11  C   UNL     1       2.449   6.279  19.980  0.00  0.00    +0.000 C 
ATOM     12  C   UNL     1       1.535   6.583  21.141  0.00  0.00    +0.000 C 
ATOM     13  C   UNL     1       0.938   7.956  20.763  0.00  0.00    +0.000 C 
ATOM     14  C   UNL     1       1.312   9.078  21.710  0.00  0.00    +0.000 C 
ATOM     15  N   UNL     1       0.964  10.326  21.583  0.00  0.00    +0.000 NA
ENDROOT
BRANCH  11  16
ATOM     16  C   UNL     1       3.239   5.059  19.823  0.00  0.00    +0.000 A 
ATOM     17  C   UNL     1       4.426   5.027  19.089  0.00  0.00    +0.000 A 
ATOM     18  C   UNL     1       5.130   3.829  18.952  0.00  0.00    +0.000 A 
ATOM     19  C   UNL     1       4.622   2.688  19.550  0.00  0.00    +0.000 A 
ATOM     20  N   UNL     1       3.485   2.668  20.266  0.00  0.00    +0.000 NA
ATOM     21  C   UNL     1       2.825   3.848  20.387  0.00  0.00    +0.000 A 
ENDBRANCH  11  16
BRANCH   1  23
ATOM     22  C   UNL     1      -3.858  12.735  20.707  0.00  0.00    +0.000 C 
ATOM     23  O   UNL     1      -2.571  13.146  20.267  0.00  0.00    +0.000 OA
ENDBRANCH   1  23
BRANCH   6  24
ATOM     24  O   UNL     1      -2.587  11.974  17.559  0.00  0.00    +0.000 OA
ATOM     25  C   UNL     1      -3.632  11.009  17.395  0.00  0.00    +0.000 C 
ENDBRANCH   6  24
TORSDOF 3
ENDMDL
MODEL 8
REMARK VINA RESULT:      -6.9      2.521      3.723
REMARK  Name = 
REMARK  5 active torsions:
REMARK  status: ('A' for Active; 'I' for Inactive)
REMARK    1  A    between atoms: C_1  and  O_2
REMARK    2  A    between atoms: O_2  and  C_3
REMARK    3  A    between atoms: C_8  and  O_9
REMARK    4  A    between atoms: O_9  and  C_10
REMARK    5  A    between atoms: C_15  and  C_16
REMARK                            x       y       z     vdW  Elec       q    Type
REMARK                         _______ _______ _______ _____ _____    ______ ____
ROOT
ATOM      1  C   UNL     1       2.460   4.921  18.828  0.00  0.00    +0.000 A 
ATOM      2  C   UNL     1       2.759   6.152  18.210  0.00  0.00    +0.000 A 
ATOM      3  C   UNL     1       2.370   7.384  18.760  0.00  0.00    +0.000 A 
ATOM      4  C   UNL     1       1.784   7.355  20.029  0.00  0.00    +0.000 A 
ATOM      5  C   UNL     1       1.492   6.139  20.660  0.00  0.00    +0.000 A 
ATOM      6  C   UNL     1       1.754   4.920  20.036  0.00  0.00    +0.000 A 
ATOM      7  C   UNL     1       1.403   8.553  20.800  0.00  0.00    +0.000 C 
ATOM      8  O   UNL     1       1.562   8.550  22.017  0.00  0.00    +0.000 OA
ATOM      9  N   UNL     1       0.813   9.587  20.110  0.00  0.00    +0.000 N 
ATOM     10  C   UNL     1       0.303  10.692  20.735  0.00  0.00    +0.000 C 
ATOM     11  C   UNL     1      -0.316  11.511  19.878  0.00  0.00    +0.000 C 
ATOM     12  C   UNL     1      -0.275  10.933  18.485  0.00  0.00    +0.000 C 
ATOM     13  C   UNL     1       0.487   9.604  18.683  0.00  0.00    +0.000 C 
ATOM     14  C   UNL     1       1.818   9.537  17.962  0.00  0.00    +0.000 C 
ATOM     15  N   UNL     1       2.655   8.542  18.005  0.00  0.00    +0.000 NA
ENDROOT
BRANCH  11  16
ATOM     16  C   UNL     1      -0.968  12.764  20.254  0.00  0.00    +0.000 A 
ATOM     17  C   UNL     1      -2.056  12.807  21.128  0.00  0.00    +0.000 A 
ATOM     18  C   UNL     1      -2.656  14.030  21.437  0.00  0.00    +0.000 A 
ATOM     19  C   UNL     1      -2.154  15.181  20.854  0.00  0.00    +0.000 A 
ATOM     20  N   UNL     1      -1.109  15.192  20.008  0.00  0.00    +0.000 NA
ATOM     21  C   UNL     1      -0.542  13.991  19.732  0.00  0.00    +0.000 A 
ENDBRANCH  11  16
BRANCH   1  23
ATOM     22  C   UNL     1       4.247   3.385  18.415  0.00  0.00    +0.000 C 
ATOM     23  O   UNL     1       2.932   3.842  18.127  0.00  0.00    +0.000 OA
ENDBRANCH   1  23
BRANCH   6  24
ATOM     24  O   UNL     1       1.360   3.746  20.622  0.00  0.00    +0.000 OA
ATOM     25  C   UNL     1       2.247   3.281  21.645  0.00  0.00    +0.000 C 
ENDBRANCH   6  24
TORSDOF 3
ENDMDL
MODEL 9
REMARK VINA RESULT:      -6.8      2.341      3.728
REMARK  Name = 
REMARK  5 active torsions:
REMARK  status: ('A' for Active; 'I' for Inactive)
REMARK    1  A    between atoms: C_1  and  O_2
REMARK    2  A    between atoms: O_2  and  C_3
REMARK    3  A    between atoms: C_8  and  O_9
REMARK    4  A    between atoms: O_9  and  C_10
REMARK    5  A    between atoms: C_15  and  C_16
REMARK                            x       y       z     vdW  Elec       q    Type
REMARK                         _______ _______ _______ _____ _____    ______ ____
ROOT
ATOM      1  C   UNL     1       2.882   5.426  18.811  0.00  0.00    +0.000 A 
ATOM      2  C   UNL     1       2.926   6.687  18.184  0.00  0.00    +0.000 A 
ATOM      3  C   UNL     1       2.328   7.827  18.744  0.00  0.00    +0.000 A 
ATOM      4  C   UNL     1       1.794   7.696  20.029  0.00  0.00    +0.000 A 
ATOM      5  C   UNL     1       1.754   6.451  20.669  0.00  0.00    +0.000 A 
ATOM      6  C   UNL     1       2.223   5.300  20.038  0.00  0.00    +0.000 A 
ATOM      7  C   UNL     1       1.217   8.806  20.810  0.00  0.00    +0.000 C 
ATOM      8  O   UNL     1       1.407   8.840  22.023  0.00  0.00    +0.000 OA
ATOM      9  N   UNL     1       0.423   9.706  20.137  0.00  0.00    +0.000 N 
ATOM     10  C   UNL     1      -0.268  10.700  20.776  0.00  0.00    +0.000 C 
ATOM     11  C   UNL     1      -1.054  11.382  19.937  0.00  0.00    +0.000 C 
ATOM     12  C   UNL     1      -0.944  10.814  18.544  0.00  0.00    +0.000 C 
ATOM     13  C   UNL     1       0.059   9.653  18.720  0.00  0.00    +0.000 C 
ATOM     14  C   UNL     1       1.358   9.834  17.961  0.00  0.00    +0.000 C 
ATOM     15  N   UNL     1       2.368   9.014  17.981  0.00  0.00    +0.000 NA
ENDROOT
BRANCH  11  16
ATOM     16  C   UNL     1      -1.919  12.493  20.331  0.00  0.00    +0.000 A 
ATOM     17  C   UNL     1      -1.439  13.603  21.029  0.00  0.00    +0.000 A 
ATOM     18  C   UNL     1      -2.314  14.626  21.400  0.00  0.00    +0.000 A 
ATOM     19  C   UNL     1      -3.653  14.508  21.067  0.00  0.00    +0.000 A 
ATOM     20  N   UNL     1      -4.163  13.461  20.395  0.00  0.00    +0.000 NA
ATOM     21  C   UNL     1      -3.288  12.485  20.043  0.00  0.00    +0.000 A 
ENDBRANCH  11  16
BRANCH   1  23
ATOM     22  C   UNL     1       4.901   4.217  18.382  0.00  0.00    +0.000 C 
ATOM     23  O   UNL     1       3.529   4.450  18.097  0.00  0.00    +0.000 OA
ENDBRANCH   1  23
BRANCH   6  24
ATOM     24  O   UNL     1       2.074   4.076  20.637  0.00  0.00    +0.000 OA
ATOM     25  C   UNL     1       0.929   3.344  20.188  0.00  0.00    +0.000 C 
ENDBRANCH   6  24
TORSDOF 3
ENDMDL
