MODEL 1
REMARK VINA RESULT:      -8.5      0.000      0.000
REMARK  Name = 
REMARK  8 active torsions:
REMARK  status: ('A' for Active; 'I' for Inactive)
REMARK    1  A    between atoms: C_1  and  C_2
REMARK    2  A    between atoms: C_7  and  C_8
REMARK    3  A    between atoms: C_8  and  C_9
REMARK    4  A    between atoms: C_10  and  C_11
REMARK    5  A    between atoms: C_16  and  C_17
REMARK    6  A    between atoms: C_16  and  C_18
REMARK    7  A    between atoms: C_19  and  O_20
REMARK    8  A    between atoms: C_23  and  C_24
REMARK                            x       y       z     vdW  Elec       q    Type
REMARK                         _______ _______ _______ _____ _____    ______ ____
ROOT
ATOM      1  C   UNL     1       2.650   5.519  19.078  0.00  0.00    +0.000 C 
ATOM      2  C   UNL     1       2.282   4.143  19.658  0.00  0.00    +0.000 C 
ATOM      3  C   UNL     1       0.888   4.105  20.302  0.00  0.00    +0.000 C 
ATOM      4  C   UNL     1       2.483   3.011  18.661  0.00  0.00    +0.000 C 
ATOM      5  O   UNL     1       1.713   2.050  18.617  0.00  0.00    +0.000 OA
ATOM      6  C   UNL     1       3.801   2.983  17.896  0.00  0.00    +0.000 C 
ATOM      7  C   UNL     1       4.135   4.340  17.261  0.00  0.00    +0.000 C 
ATOM      8  C   UNL     1       5.475   4.400  16.376  0.00  0.00    +0.000 C 
ATOM      9  C   UNL     1       6.848   4.492  17.104  0.00  0.00    +0.000 C 
ATOM     10  C   UNL     1       5.616   3.142  15.496  0.00  0.00    +0.000 C 
ATOM     11  C   UNL     1       5.314   5.674  15.503  0.00  0.00    +0.000 C 
ATOM     12  C   UNL     1       5.156   6.939  16.354  0.00  0.00    +0.000 C 
ATOM     13  C   UNL     1       4.151   6.849  17.509  0.00  0.00    +0.000 C 
ATOM     14  C   UNL     1       4.048   5.506  18.302  0.00  0.00    +0.000 C 
ATOM     15  C   UNL     1       5.170   5.332  19.331  0.00  0.00    +0.000 C 
ENDROOT
BRANCH  11  16
ATOM     16  O   UNL     1       6.413   5.851  14.609  0.00  0.00    +0.000 OA
ATOM     17  H   UNL     1       7.238   5.835  15.121  0.00  0.00    +0.000 HD
ENDBRANCH  11  16
BRANCH   1  18
ATOM     18  C   UNL     1       2.522   6.670  20.148  0.00  0.00    +0.000 C 
BRANCH  18  25
ATOM     19  C   UNL     1       1.368   9.232  17.868  0.00  0.00    +0.000 C 
ATOM     20  C   UNL     1       1.354   8.996  19.346  0.00  0.00    +0.000 C 
ATOM     21  C   UNL     1       1.071  10.016  20.163  0.00  0.00    +0.000 C 
ATOM     22  C   UNL     1       0.962   9.483  21.517  0.00  0.00    +0.000 C 
ATOM     23  O   UNL     1       0.634  10.138  22.479  0.00  0.00    +0.000 OA
ATOM     24  O   UNL     1       1.239   8.166  21.485  0.00  0.00    +0.000 OA
ATOM     25  C   UNL     1       1.366   7.711  20.125  0.00  0.00    +0.000 C 
ENDBRANCH  18  25
ENDBRANCH   1  18
TORSDOF 3
ENDMDL
MODEL 2
REMARK VINA RESULT:      -8.0      2.034      4.455
REMARK  Name = 
REMARK  8 active torsions:
REMARK  status: ('A' for Active; 'I' for Inactive)
REMARK    1  A    between atoms: C_1  and  C_2
REMARK    2  A    between atoms: C_7  and  C_8
REMARK    3  A    between atoms: C_8  and  C_9
REMARK    4  A    between atoms: C_10  and  C_11
REMARK    5  A    between atoms: C_16  and  C_17
REMARK    6  A    between atoms: C_16  and  C_18
REMARK    7  A    between atoms: C_19  and  O_20
REMARK    8  A    between atoms: C_23  and  C_24
REMARK                            x       y       z     vdW  Elec       q    Type
REMARK                         _______ _______ _______ _____ _____    ______ ____
ROOT
ATOM      1  C   UNL     1       3.173   6.539  18.403  0.00  0.00    +0.000 C 
ATOM      2  C   UNL     1       4.292   6.406  17.356  0.00  0.00    +0.000 C 
ATOM      3  C   UNL     1       4.920   7.751  16.960  0.00  0.00    +0.000 C 
ATOM      4  C   UNL     1       5.343   5.377  17.744  0.00  0.00    +0.000 C 
ATOM      5  O   UNL     1       6.535   5.549  17.488  0.00  0.00    +0.000 OA
ATOM      6  C   UNL     1       4.843   4.022  18.232  0.00  0.00    +0.000 C 
ATOM      7  C   UNL     1       3.773   4.155  19.325  0.00  0.00    +0.000 C 
ATOM      8  C   UNL     1       3.226   2.781  19.954  0.00  0.00    +0.000 C 
ATOM      9  C   UNL     1       2.184   1.951  19.147  0.00  0.00    +0.000 C 
ATOM     10  C   UNL     1       4.376   1.782  20.193  0.00  0.00    +0.000 C 
ATOM     11  C   UNL     1       2.564   3.198  21.295  0.00  0.00    +0.000 C 
ATOM     12  C   UNL     1       1.425   4.203  21.087  0.00  0.00    +0.000 C 
ATOM     13  C   UNL     1       1.734   5.382  20.157  0.00  0.00    +0.000 C 
ATOM     14  C   UNL     1       2.619   5.121  18.896  0.00  0.00    +0.000 C 
ATOM     15  C   UNL     1       1.842   4.479  17.741  0.00  0.00    +0.000 C 
ENDROOT
BRANCH  11  16
ATOM     16  O   UNL     1       2.062   2.072  22.015  0.00  0.00    +0.000 OA
ATOM     17  H   UNL     1       1.464   2.387  22.713  0.00  0.00    +0.000 HD
ENDBRANCH  11  16
BRANCH   1  18
ATOM     18  C   UNL     1       2.045   7.543  17.946  0.00  0.00    +0.000 C 
BRANCH  18  25
ATOM     19  C   UNL     1       1.473   8.507  21.387  0.00  0.00    +0.000 C 
ATOM     20  C   UNL     1       1.056   8.988  20.032  0.00  0.00    +0.000 C 
ATOM     21  C   UNL     1       0.037   9.848  19.934  0.00  0.00    +0.000 C 
ATOM     22  C   UNL     1      -0.050  10.277  18.542  0.00  0.00    +0.000 C 
ATOM     23  O   UNL     1      -0.819  11.118  18.139  0.00  0.00    +0.000 OA
ATOM     24  O   UNL     1       0.883   9.618  17.830  0.00  0.00    +0.000 OA
ATOM     25  C   UNL     1       1.749   8.869  18.704  0.00  0.00    +0.000 C 
ENDBRANCH  18  25
ENDBRANCH   1  18
TORSDOF 3
ENDMDL
MODEL 3
REMARK VINA RESULT:      -7.6      2.383      7.091
REMARK  Name = 
REMARK  8 active torsions:
REMARK  status: ('A' for Active; 'I' for Inactive)
REMARK    1  A    between atoms: C_1  and  C_2
REMARK    2  A    between atoms: C_7  and  C_8
REMARK    3  A    between atoms: C_8  and  C_9
REMARK    4  A    between atoms: C_10  and  C_11
REMARK    5  A    between atoms: C_16  and  C_17
REMARK    6  A    between atoms: C_16  and  C_18
REMARK    7  A    between atoms: C_19  and  O_20
REMARK    8  A    between atoms: C_23  and  C_24
REMARK                            x       y       z     vdW  Elec       q    Type
REMARK                         _______ _______ _______ _____ _____    ______ ____
ROOT
ATOM      1  C   UNL     1       4.402   4.994  16.620  0.00  0.00    +0.000 C 
ATOM      2  C   UNL     1       4.602   6.434  17.120  0.00  0.00    +0.000 C 
ATOM      3  C   UNL     1       4.971   7.423  16.003  0.00  0.00    +0.000 C 
ATOM      4  C   UNL     1       3.437   6.932  17.963  0.00  0.00    +0.000 C 
ATOM      5  O   UNL     1       3.055   8.102  17.904  0.00  0.00    +0.000 OA
ATOM      6  C   UNL     1       2.923   6.005  19.058  0.00  0.00    +0.000 C 
ATOM      7  C   UNL     1       2.661   4.583  18.542  0.00  0.00    +0.000 C 
ATOM      8  C   UNL     1       2.055   3.542  19.606  0.00  0.00    +0.000 C 
ATOM      9  C   UNL     1       3.013   2.900  20.652  0.00  0.00    +0.000 C 
ATOM     10  C   UNL     1       0.965   4.204  20.473  0.00  0.00    +0.000 C 
ATOM     11  C   UNL     1       1.460   2.397  18.742  0.00  0.00    +0.000 C 
ATOM     12  C   UNL     1       2.521   1.731  17.859  0.00  0.00    +0.000 C 
ATOM     13  C   UNL     1       3.438   2.682  17.079  0.00  0.00    +0.000 C 
ATOM     14  C   UNL     1       3.896   4.006  17.772  0.00  0.00    +0.000 C 
ATOM     15  C   UNL     1       5.043   3.796  18.766  0.00  0.00    +0.000 C 
ENDROOT
BRANCH  11  16
ATOM     16  O   UNL     1       0.829   1.397  19.542  0.00  0.00    +0.000 OA
ATOM     17  H   UNL     1       1.515   0.883  19.999  0.00  0.00    +0.000 HD
ENDBRANCH  11  16
BRANCH   1  18
ATOM     18  C   UNL     1       5.655   4.460  15.824  0.00  0.00    +0.000 C 
BRANCH  18  25
ATOM     19  C   UNL     1       5.262   3.151  12.473  0.00  0.00    +0.000 C 
ATOM     20  C   UNL     1       6.215   4.057  13.189  0.00  0.00    +0.000 C 
ATOM     21  C   UNL     1       7.387   4.349  12.617  0.00  0.00    +0.000 C 
ATOM     22  C   UNL     1       8.040   5.366  13.434  0.00  0.00    +0.000 C 
ATOM     23  O   UNL     1       9.083   5.904  13.143  0.00  0.00    +0.000 OA
ATOM     24  O   UNL     1       7.266   5.617  14.507  0.00  0.00    +0.000 OA
ATOM     25  C   UNL     1       6.001   4.942  14.386  0.00  0.00    +0.000 C 
ENDBRANCH  18  25
ENDBRANCH   1  18
TORSDOF 3
ENDMDL
MODEL 4
REMARK VINA RESULT:      -7.1      3.257      7.113
REMARK  Name = 
REMARK  8 active torsions:
REMARK  status: ('A' for Active; 'I' for Inactive)
REMARK    1  A    between atoms: C_1  and  C_2
REMARK    2  A    between atoms: C_7  and  C_8
REMARK    3  A    between atoms: C_8  and  C_9
REMARK    4  A    between atoms: C_10  and  C_11
REMARK    5  A    between atoms: C_16  and  C_17
REMARK    6  A    between atoms: C_16  and  C_18
REMARK    7  A    between atoms: C_19  and  O_20
REMARK    8  A    between atoms: C_23  and  C_24
REMARK                            x       y       z     vdW  Elec       q    Type
REMARK                         _______ _______ _______ _____ _____    ______ ____
ROOT
ATOM      1  C   UNL     1       5.194   4.190  17.001  0.00  0.00    +0.000 C 
ATOM      2  C   UNL     1       6.472   4.298  17.849  0.00  0.00    +0.000 C 
ATOM      3  C   UNL     1       7.612   5.047  17.143  0.00  0.00    +0.000 C 
ATOM      4  C   UNL     1       6.209   4.841  19.246  0.00  0.00    +0.000 C 
ATOM      5  O   UNL     1       7.011   5.590  19.805  0.00  0.00    +0.000 OA
ATOM      6  C   UNL     1       5.049   4.230  20.023  0.00  0.00    +0.000 C 
ATOM      7  C   UNL     1       3.755   4.184  19.198  0.00  0.00    +0.000 C 
ATOM      8  C   UNL     1       2.453   3.616  19.949  0.00  0.00    +0.000 C 
ATOM      9  C   UNL     1       2.302   2.077  20.123  0.00  0.00    +0.000 C 
ATOM     10  C   UNL     1       2.365   4.153  21.392  0.00  0.00    +0.000 C 
ATOM     11  C   UNL     1       1.256   4.117  19.096  0.00  0.00    +0.000 C 
ATOM     12  C   UNL     1       1.326   3.609  17.651  0.00  0.00    +0.000 C 
ATOM     13  C   UNL     1       2.685   3.754  16.955  0.00  0.00    +0.000 C 
ATOM     14  C   UNL     1       3.980   3.519  17.799  0.00  0.00    +0.000 C 
ATOM     15  C   UNL     1       4.300   2.035  18.004  0.00  0.00    +0.000 C 
ENDROOT
BRANCH  11  16
ATOM     16  O   UNL     1       0.001   3.735  19.660  0.00  0.00    +0.000 OA
ATOM     17  H   UNL     1      -0.698   3.889  19.003  0.00  0.00    +0.000 HD
ENDBRANCH  11  16
BRANCH   1  18
ATOM     18  C   UNL     1       5.468   3.543  15.589  0.00  0.00    +0.000 C 
BRANCH  18  25
ATOM     19  C   UNL     1       4.922   3.088  12.040  0.00  0.00    +0.000 C 
ATOM     20  C   UNL     1       5.864   3.857  12.913  0.00  0.00    +0.000 C 
ATOM     21  C   UNL     1       6.973   4.373  12.373  0.00  0.00    +0.000 C 
ATOM     22  C   UNL     1       7.616   5.202  13.387  0.00  0.00    +0.000 C 
ATOM     23  O   UNL     1       8.601   5.875  13.188  0.00  0.00    +0.000 OA
ATOM     24  O   UNL     1       6.906   5.115  14.527  0.00  0.00    +0.000 OA
ATOM     25  C   UNL     1       5.680   4.394  14.305  0.00  0.00    +0.000 C 
ENDBRANCH  18  25
ENDBRANCH   1  18
TORSDOF 3
ENDMDL
MODEL 5
REMARK VINA RESULT:      -7.1      3.321      7.064
REMARK  Name = 
REMARK  8 active torsions:
REMARK  status: ('A' for Active; 'I' for Inactive)
REMARK    1  A    between atoms: C_1  and  C_2
REMARK    2  A    between atoms: C_7  and  C_8
REMARK    3  A    between atoms: C_8  and  C_9
REMARK    4  A    between atoms: C_10  and  C_11
REMARK    5  A    between atoms: C_16  and  C_17
REMARK    6  A    between atoms: C_16  and  C_18
REMARK    7  A    between atoms: C_19  and  O_20
REMARK    8  A    between atoms: C_23  and  C_24
REMARK                            x       y       z     vdW  Elec       q    Type
REMARK                         _______ _______ _______ _____ _____    ______ ____
ROOT
ATOM      1  C   UNL     1       5.040   5.365  17.011  0.00  0.00    +0.000 C 
ATOM      2  C   UNL     1       6.423   5.219  17.669  0.00  0.00    +0.000 C 
ATOM      3  C   UNL     1       7.411   6.324  17.265  0.00  0.00    +0.000 C 
ATOM      4  C   UNL     1       6.342   5.048  19.179  0.00  0.00    +0.000 C 
ATOM      5  O   UNL     1       7.181   5.549  19.928  0.00  0.00    +0.000 OA
ATOM      6  C   UNL     1       5.337   4.032  19.711  0.00  0.00    +0.000 C 
ATOM      7  C   UNL     1       3.940   4.221  19.103  0.00  0.00    +0.000 C 
ATOM      8  C   UNL     1       2.790   3.239  19.647  0.00  0.00    +0.000 C 
ATOM      9  C   UNL     1       2.738   1.778  19.112  0.00  0.00    +0.000 C 
ATOM     10  C   UNL     1       2.889   3.061  21.176  0.00  0.00    +0.000 C 
ATOM     11  C   UNL     1       1.459   3.936  19.254  0.00  0.00    +0.000 C 
ATOM     12  C   UNL     1       1.341   4.139  17.739  0.00  0.00    +0.000 C 
ATOM     13  C   UNL     1       2.575   4.726  17.043  0.00  0.00    +0.000 C 
ATOM     14  C   UNL     1       3.989   4.281  17.539  0.00  0.00    +0.000 C 
ATOM     15  C   UNL     1       4.405   2.906  17.006  0.00  0.00    +0.000 C 
ENDROOT
BRANCH  11  16
ATOM     16  O   UNL     1       0.320   3.209  19.713  0.00  0.00    +0.000 OA
ATOM     17  H   UNL     1      -0.474   3.564  19.280  0.00  0.00    +0.000 HD
ENDBRANCH  11  16
BRANCH   1  18
ATOM     18  C   UNL     1       5.135   5.451  15.438  0.00  0.00    +0.000 C 
BRANCH  18  25
ATOM     19  C   UNL     1       8.319   5.616  13.725  0.00  0.00    +0.000 C 
ATOM     20  C   UNL     1       7.030   4.870  13.570  0.00  0.00    +0.000 C 
ATOM     21  C   UNL     1       6.781   4.237  12.419  0.00  0.00    +0.000 C 
ATOM     22  C   UNL     1       5.555   3.465  12.593  0.00  0.00    +0.000 C 
ATOM     23  O   UNL     1       5.102   2.715  11.759  0.00  0.00    +0.000 OA
ATOM     24  O   UNL     1       5.070   3.700  13.826  0.00  0.00    +0.000 OA
ATOM     25  C   UNL     1       6.007   4.475  14.598  0.00  0.00    +0.000 C 
ENDBRANCH  18  25
ENDBRANCH   1  18
TORSDOF 3
ENDMDL
MODEL 6
REMARK VINA RESULT:      -7.1      1.596      6.243
REMARK  Name = 
REMARK  8 active torsions:
REMARK  status: ('A' for Active; 'I' for Inactive)
REMARK    1  A    between atoms: C_1  and  C_2
REMARK    2  A    between atoms: C_7  and  C_8
REMARK    3  A    between atoms: C_8  and  C_9
REMARK    4  A    between atoms: C_10  and  C_11
REMARK    5  A    between atoms: C_16  and  C_17
REMARK    6  A    between atoms: C_16  and  C_18
REMARK    7  A    between atoms: C_19  and  O_20
REMARK    8  A    between atoms: C_23  and  C_24
REMARK                            x       y       z     vdW  Elec       q    Type
REMARK                         _______ _______ _______ _____ _____    ______ ____
ROOT
ATOM      1  C   UNL     1       3.032   6.235  17.792  0.00  0.00    +0.000 C 
ATOM      2  C   UNL     1       2.920   7.395  18.796  0.00  0.00    +0.000 C 
ATOM      3  C   UNL     1       2.692   8.760  18.128  0.00  0.00    +0.000 C 
ATOM      4  C   UNL     1       1.909   7.123  19.900  0.00  0.00    +0.000 C 
ATOM      5  O   UNL     1       1.200   8.021  20.357  0.00  0.00    +0.000 OA
ATOM      6  C   UNL     1       1.980   5.766  20.590  0.00  0.00    +0.000 C 
ATOM      7  C   UNL     1       2.026   4.604  19.588  0.00  0.00    +0.000 C 
ATOM      8  C   UNL     1       2.037   3.125  20.215  0.00  0.00    +0.000 C 
ATOM      9  C   UNL     1       3.370   2.569  20.797  0.00  0.00    +0.000 C 
ATOM     10  C   UNL     1       1.053   3.014  21.397  0.00  0.00    +0.000 C 
ATOM     11  C   UNL     1       1.608   2.198  19.045  0.00  0.00    +0.000 C 
ATOM     12  C   UNL     1       2.562   2.299  17.850  0.00  0.00    +0.000 C 
ATOM     13  C   UNL     1       2.935   3.720  17.408  0.00  0.00    +0.000 C 
ATOM     14  C   UNL     1       3.142   4.809  18.510  0.00  0.00    +0.000 C 
ATOM     15  C   UNL     1       4.510   4.716  19.193  0.00  0.00    +0.000 C 
ENDROOT
BRANCH  11  16
ATOM     16  O   UNL     1       1.518   0.832  19.452  0.00  0.00    +0.000 OA
ATOM     17  H   UNL     1       1.312   0.287  18.675  0.00  0.00    +0.000 HD
ENDBRANCH  11  16
BRANCH   1  18
ATOM     18  C   UNL     1       4.147   6.493  16.706  0.00  0.00    +0.000 C 
BRANCH  18  25
ATOM     19  C   UNL     1       7.621   6.540  17.721  0.00  0.00    +0.000 C 
ATOM     20  C   UNL     1       6.819   5.980  16.587  0.00  0.00    +0.000 C 
ATOM     21  C   UNL     1       7.455   5.558  15.490  0.00  0.00    +0.000 C 
ATOM     22  C   UNL     1       6.471   4.915  14.625  0.00  0.00    +0.000 C 
ATOM     23  O   UNL     1       6.741   4.355  13.589  0.00  0.00    +0.000 OA
ATOM     24  O   UNL     1       5.259   5.019  15.202  0.00  0.00    +0.000 OA
ATOM     25  C   UNL     1       5.378   5.557  16.532  0.00  0.00    +0.000 C 
ENDBRANCH  18  25
ENDBRANCH   1  18
TORSDOF 3
ENDMDL
MODEL 7
REMARK VINA RESULT:      -7.0      1.184      1.659
REMARK  Name = 
REMARK  8 active torsions:
REMARK  status: ('A' for Active; 'I' for Inactive)
REMARK    1  A    between atoms: C_1  and  C_2
REMARK    2  A    between atoms: C_7  and  C_8
REMARK    3  A    between atoms: C_8  and  C_9
REMARK    4  A    between atoms: C_10  and  C_11
REMARK    5  A    between atoms: C_16  and  C_17
REMARK    6  A    between atoms: C_16  and  C_18
REMARK    7  A    between atoms: C_19  and  O_20
REMARK    8  A    between atoms: C_23  and  C_24
REMARK                            x       y       z     vdW  Elec       q    Type
REMARK                         _______ _______ _______ _____ _____    ______ ____
ROOT
ATOM      1  C   UNL     1       2.530   5.423  19.035  0.00  0.00    +0.000 C 
ATOM      2  C   UNL     1       2.046   4.009  19.402  0.00  0.00    +0.000 C 
ATOM      3  C   UNL     1       0.617   3.981  19.964  0.00  0.00    +0.000 C 
ATOM      4  C   UNL     1       2.237   3.009  18.271  0.00  0.00    +0.000 C 
ATOM      5  O   UNL     1       1.414   2.117  18.058  0.00  0.00    +0.000 OA
ATOM      6  C   UNL     1       3.593   2.994  17.577  0.00  0.00    +0.000 C 
ATOM      7  C   UNL     1       4.046   4.398  17.151  0.00  0.00    +0.000 C 
ATOM      8  C   UNL     1       5.436   4.484  16.351  0.00  0.00    +0.000 C 
ATOM      9  C   UNL     1       6.768   4.385  17.152  0.00  0.00    +0.000 C 
ATOM     10  C   UNL     1       5.553   3.348  15.315  0.00  0.00    +0.000 C 
ATOM     11  C   UNL     1       5.405   5.871  15.653  0.00  0.00    +0.000 C 
ATOM     12  C   UNL     1       5.274   7.019  16.660  0.00  0.00    +0.000 C 
ATOM     13  C   UNL     1       4.199   6.845  17.740  0.00  0.00    +0.000 C 
ATOM     14  C   UNL     1       3.969   5.418  18.336  0.00  0.00    +0.000 C 
ATOM     15  C   UNL     1       5.015   5.033  19.387  0.00  0.00    +0.000 C 
ENDROOT
BRANCH  11  16
ATOM     16  O   UNL     1       6.563   6.091  14.848  0.00  0.00    +0.000 OA
ATOM     17  H   UNL     1       7.295   6.369  15.423  0.00  0.00    +0.000 HD
ENDBRANCH  11  16
BRANCH   1  18
ATOM     18  C   UNL     1       2.409   6.427  20.245  0.00  0.00    +0.000 C 
BRANCH  18  25
ATOM     19  C   UNL     1       1.159   9.161  22.260  0.00  0.00    +0.000 C 
ATOM     20  C   UNL     1       1.207   8.806  20.807  0.00  0.00    +0.000 C 
ATOM     21  C   UNL     1       0.431   9.476  19.949  0.00  0.00    +0.000 C 
ATOM     22  C   UNL     1       0.790   9.052  18.600  0.00  0.00    +0.000 C 
ATOM     23  O   UNL     1       0.327   9.533  17.592  0.00  0.00    +0.000 OA
ATOM     24  O   UNL     1       1.734   8.096  18.687  0.00  0.00    +0.000 OA
ATOM     25  C   UNL     1       2.185   7.954  20.047  0.00  0.00    +0.000 C 
ENDBRANCH  18  25
ENDBRANCH   1  18
TORSDOF 3
ENDMDL
MODEL 8
REMARK VINA RESULT:      -6.6      5.646     10.643
REMARK  Name = 
REMARK  8 active torsions:
REMARK  status: ('A' for Active; 'I' for Inactive)
REMARK    1  A    between atoms: C_1  and  C_2
REMARK    2  A    between atoms: C_7  and  C_8
REMARK    3  A    between atoms: C_8  and  C_9
REMARK    4  A    between atoms: C_10  and  C_11
REMARK    5  A    between atoms: C_16  and  C_17
REMARK    6  A    between atoms: C_16  and  C_18
REMARK    7  A    between atoms: C_19  and  O_20
REMARK    8  A    between atoms: C_23  and  C_24
REMARK                            x       y       z     vdW  Elec       q    Type
REMARK                         _______ _______ _______ _____ _____    ______ ____
ROOT
ATOM      1  C   UNL     1      -2.065  12.000  20.193  0.00  0.00    +0.000 C 
ATOM      2  C   UNL     1      -2.586  11.966  18.746  0.00  0.00    +0.000 C 
ATOM      3  C   UNL     1      -1.804  11.004  17.839  0.00  0.00    +0.000 C 
ATOM      4  C   UNL     1      -4.087  11.735  18.666  0.00  0.00    +0.000 C 
ATOM      5  O   UNL     1      -4.585  11.053  17.769  0.00  0.00    +0.000 OA
ATOM      6  C   UNL     1      -4.971  12.576  19.579  0.00  0.00    +0.000 C 
ATOM      7  C   UNL     1      -4.489  12.556  21.036  0.00  0.00    +0.000 C 
ATOM      8  C   UNL     1      -5.391  13.362  22.094  0.00  0.00    +0.000 C 
ATOM      9  C   UNL     1      -5.264  14.913  22.158  0.00  0.00    +0.000 C 
ATOM     10  C   UNL     1      -6.893  13.133  21.832  0.00  0.00    +0.000 C 
ATOM     11  C   UNL     1      -4.975  12.795  23.479  0.00  0.00    +0.000 C 
ATOM     12  C   UNL     1      -3.482  12.997  23.759  0.00  0.00    +0.000 C 
ATOM     13  C   UNL     1      -2.528  12.611  22.621  0.00  0.00    +0.000 C 
ATOM     14  C   UNL     1      -2.968  12.908  21.151  0.00  0.00    +0.000 C 
ATOM     15  C   UNL     1      -2.770  14.375  20.753  0.00  0.00    +0.000 C 
ENDROOT
BRANCH  11  16
ATOM     16  O   UNL     1      -5.729  13.378  24.542  0.00  0.00    +0.000 OA
ATOM     17  H   UNL     1      -5.881  14.316  24.341  0.00  0.00    +0.000 HD
ENDBRANCH  11  16
BRANCH   1  18
ATOM     18  C   UNL     1      -0.524  12.329  20.264  0.00  0.00    +0.000 C 
BRANCH  18  25
ATOM     19  C   UNL     1       1.137   9.324  19.120  0.00  0.00    +0.000 C 
ATOM     20  C   UNL     1       0.699   9.901  20.430  0.00  0.00    +0.000 C 
ATOM     21  C   UNL     1       0.650   9.107  21.504  0.00  0.00    +0.000 C 
ATOM     22  C   UNL     1       0.358   9.944  22.663  0.00  0.00    +0.000 C 
ATOM     23  O   UNL     1       0.328   9.540  23.802  0.00  0.00    +0.000 OA
ATOM     24  O   UNL     1       0.184  11.211  22.245  0.00  0.00    +0.000 OA
ATOM     25  C   UNL     1       0.518  11.333  20.850  0.00  0.00    +0.000 C 
ENDBRANCH  18  25
ENDBRANCH   1  18
TORSDOF 3
ENDMDL
MODEL 9
REMARK VINA RESULT:      -6.5      6.477     11.243
REMARK  Name = 
REMARK  8 active torsions:
REMARK  status: ('A' for Active; 'I' for Inactive)
REMARK    1  A    between atoms: C_1  and  C_2
REMARK    2  A    between atoms: C_7  and  C_8
REMARK    3  A    between atoms: C_8  and  C_9
REMARK    4  A    between atoms: C_10  and  C_11
REMARK    5  A    between atoms: C_16  and  C_17
REMARK    6  A    between atoms: C_16  and  C_18
REMARK    7  A    between atoms: C_19  and  O_20
REMARK    8  A    between atoms: C_23  and  C_24
REMARK                            x       y       z     vdW  Elec       q    Type
REMARK                         _______ _______ _______ _____ _____    ______ ____
ROOT
ATOM      1  C   UNL     1      -3.548  12.369  19.927  0.00  0.00    +0.000 C 
ATOM      2  C   UNL     1      -4.757  12.410  18.977  0.00  0.00    +0.000 C 
ATOM      3  C   UNL     1      -4.511  11.688  17.644  0.00  0.00    +0.000 C 
ATOM      4  C   UNL     1      -6.046  11.953  19.645  0.00  0.00    +0.000 C 
ATOM      5  O   UNL     1      -6.892  11.302  19.031  0.00  0.00    +0.000 OA
ATOM      6  C   UNL     1      -6.366  12.540  21.015  0.00  0.00    +0.000 C 
ATOM      7  C   UNL     1      -5.179  12.439  21.984  0.00  0.00    +0.000 C 
ATOM      8  C   UNL     1      -5.434  12.972  23.478  0.00  0.00    +0.000 C 
ATOM      9  C   UNL     1      -5.413  14.507  23.739  0.00  0.00    +0.000 C 
ATOM     10  C   UNL     1      -6.820  12.537  23.995  0.00  0.00    +0.000 C 
ATOM     11  C   UNL     1      -4.299  12.332  24.324  0.00  0.00    +0.000 C 
ATOM     12  C   UNL     1      -2.909  12.736  23.822  0.00  0.00    +0.000 C 
ATOM     13  C   UNL     1      -2.686  12.632  22.309  0.00  0.00    +0.000 C 
ATOM     14  C   UNL     1      -3.865  13.014  21.356  0.00  0.00    +0.000 C 
ATOM     15  C   UNL     1      -4.025  14.527  21.178  0.00  0.00    +0.000 C 
ENDROOT
BRANCH  11  16
ATOM     16  O   UNL     1      -4.410  12.668  25.707  0.00  0.00    +0.000 OA
ATOM     17  H   UNL     1      -3.517  12.781  26.074  0.00  0.00    +0.000 HD
ENDBRANCH  11  16
BRANCH   1  18
ATOM     18  C   UNL     1      -2.239  12.929  19.248  0.00  0.00    +0.000 C 
BRANCH  18  25
ATOM     19  C   UNL     1      -1.422   9.826  17.573  0.00  0.00    +0.000 C 
ATOM     20  C   UNL     1      -0.932  10.588  18.765  0.00  0.00    +0.000 C 
ATOM     21  C   UNL     1      -0.147   9.969  19.652  0.00  0.00    +0.000 C 
ATOM     22  C   UNL     1       0.316  10.969  20.609  0.00  0.00    +0.000 C 
ATOM     23  O   UNL     1       1.111  10.745  21.492  0.00  0.00    +0.000 OA
ATOM     24  O   UNL     1      -0.251  12.151  20.304  0.00  0.00    +0.000 OA
ATOM     25  C   UNL     1      -0.961  12.063  19.054  0.00  0.00    +0.000 C 
ENDBRANCH  18  25
ENDBRANCH   1  18
TORSDOF 3
ENDMDL
