MODEL 1
REMARK VINA RESULT:      -8.1      0.000      0.000
REMARK  Name = 
REMARK  5 active torsions:
REMARK  status: ('A' for Active; 'I' for Inactive)
REMARK    1  A    between atoms: C_1  and  C_2
REMARK    2  A    between atoms: C_2  and  O_3
REMARK    3  A    between atoms: O_3  and  C_4
REMARK    4  A    between atoms: C_4  and  C_5
REMARK    5  A    between atoms: C_16  and  C_17
REMARK                            x       y       z     vdW  Elec       q    Type
REMARK                         _______ _______ _______ _____ _____    ______ ____
ROOT
ATOM      1  C   UNL     1       3.598   3.596  16.776  0.00  0.00    +0.000 C 
ATOM      2  C   UNL     1       3.876   4.298  18.115  0.00  0.00    +0.000 C 
ATOM      3  C   UNL     1       2.989   3.711  19.220  0.00  0.00    +0.000 A 
ATOM      4  C   UNL     1       2.941   2.386  19.581  0.00  0.00    +0.000 A 
ATOM      5  C   UNL     1       2.041   2.023  20.574  0.00  0.00    +0.000 A 
ATOM      6  C   UNL     1       1.221   3.007  21.156  0.00  0.00    +0.000 A 
ATOM      7  C   UNL     1       1.282   4.364  20.758  0.00  0.00    +0.000 A 
ATOM      8  C   UNL     1       2.172   4.735  19.767  0.00  0.00    +0.000 A 
ATOM      9  C   UNL     1       2.407   5.998  19.038  0.00  0.00    +0.000 A 
ATOM     10  C   UNL     1       3.388   5.726  18.037  0.00  0.00    +0.000 A 
ATOM     11  C   UNL     1       3.766   6.689  17.118  0.00  0.00    +0.000 A 
ATOM     12  N   UNL     1       2.980   7.777  16.989  0.00  0.00    +0.000 NA
ATOM     13  C   UNL     1       2.097   8.061  17.937  0.00  0.00    +0.000 A 
ATOM     14  C   UNL     1       1.480   9.263  17.762  0.00  0.00    +0.000 A 
ATOM     15  C   UNL     1       1.448  10.073  18.872  0.00  0.00    +0.000 A 
ATOM     16  C   UNL     1       1.301   9.463  20.108  0.00  0.00    +0.000 A 
ATOM     17 BR   UNL     1       1.132  10.583  21.617  0.00  0.00    +0.000 Br
ATOM     18  C   UNL     1       1.376   8.059  20.220  0.00  0.00    +0.000 A 
ATOM     19  C   UNL     1       1.906   7.321  19.120  0.00  0.00    +0.000 A 
ENDROOT
BRANCH  11  20
ATOM     20  C   UNL     1       5.015   6.662  16.270  0.00  0.00    +0.000 C 
ATOM     21  F   UNL     1       5.500   5.427  15.969  0.00  0.00    +0.000 F 
ATOM     22  F   UNL     1       4.856   7.289  15.069  0.00  0.00    +0.000 F 
ATOM     23  F   UNL     1       6.055   7.300  16.885  0.00  0.00    +0.000 F 
ENDBRANCH  11  20
BRANCH   2  24
ATOM     24  O   UNL     1       5.256   4.157  18.453  0.00  0.00    +0.000 OA
BRANCH  24  25
ATOM     25  C   UNL     1       5.804   5.156  19.317  0.00  0.00    +0.000 C 
BRANCH  25  26
ATOM     26  C   UNL     1       7.289   5.133  19.190  0.00  0.00    +0.000 C 
ATOM     27  C   UNL     1       8.096   6.403  19.188  0.00  0.00    +0.000 C 
ATOM     28  O   UNL     1       7.997   5.576  20.357  0.00  0.00    +0.000 OA
ENDBRANCH  25  26
ENDBRANCH  24  25
ENDBRANCH   2  24
TORSDOF 4
ENDMDL
MODEL 2
REMARK VINA RESULT:      -7.7      3.558      5.735
REMARK  Name = 
REMARK  5 active torsions:
REMARK  status: ('A' for Active; 'I' for Inactive)
REMARK    1  A    between atoms: C_1  and  C_2
REMARK    2  A    between atoms: C_2  and  O_3
REMARK    3  A    between atoms: O_3  and  C_4
REMARK    4  A    between atoms: C_4  and  C_5
REMARK    5  A    between atoms: C_16  and  C_17
REMARK                            x       y       z     vdW  Elec       q    Type
REMARK                         _______ _______ _______ _____ _____    ______ ____
ROOT
ATOM      1  C   UNL     1       5.933   5.082  19.659  0.00  0.00    +0.000 C 
ATOM      2  C   UNL     1       4.889   5.337  18.561  0.00  0.00    +0.000 C 
ATOM      3  C   UNL     1       3.851   4.209  18.537  0.00  0.00    +0.000 A 
ATOM      4  C   UNL     1       3.074   3.821  19.603  0.00  0.00    +0.000 A 
ATOM      5  C   UNL     1       2.218   2.745  19.416  0.00  0.00    +0.000 A 
ATOM      6  C   UNL     1       2.185   2.098  18.167  0.00  0.00    +0.000 A 
ATOM      7  C   UNL     1       3.003   2.510  17.088  0.00  0.00    +0.000 A 
ATOM      8  C   UNL     1       3.862   3.579  17.266  0.00  0.00    +0.000 A 
ATOM      9  C   UNL     1       4.918   4.181  16.425  0.00  0.00    +0.000 A 
ATOM     10  C   UNL     1       5.547   5.195  17.207  0.00  0.00    +0.000 A 
ATOM     11  C   UNL     1       6.646   5.891  16.736  0.00  0.00    +0.000 A 
ATOM     12  N   UNL     1       7.295   5.391  15.665  0.00  0.00    +0.000 NA
ATOM     13  C   UNL     1       6.697   4.481  14.907  0.00  0.00    +0.000 A 
ATOM     14  C   UNL     1       7.393   4.175  13.776  0.00  0.00    +0.000 A 
ATOM     15  C   UNL     1       6.659   4.184  12.614  0.00  0.00    +0.000 A 
ATOM     16  C   UNL     1       5.344   3.749  12.683  0.00  0.00    +0.000 A 
ATOM     17 BR   UNL     1       4.377   3.645  11.066  0.00  0.00    +0.000 Br
ATOM     18  C   UNL     1       4.745   3.495  13.934  0.00  0.00    +0.000 A 
ATOM     19  C   UNL     1       5.396   3.981  15.106  0.00  0.00    +0.000 A 
ENDROOT
BRANCH  11  20
ATOM     20  C   UNL     1       7.166   7.200  17.281  0.00  0.00    +0.000 C 
ATOM     21  F   UNL     1       6.251   8.199  17.396  0.00  0.00    +0.000 F 
ATOM     22  F   UNL     1       7.722   7.076  18.521  0.00  0.00    +0.000 F 
ATOM     23  F   UNL     1       8.148   7.721  16.487  0.00  0.00    +0.000 F 
ENDBRANCH  11  20
BRANCH   2  24
ATOM     24  O   UNL     1       4.256   6.597  18.785  0.00  0.00    +0.000 OA
BRANCH  24  25
ATOM     25  C   UNL     1       3.206   6.951  17.879  0.00  0.00    +0.000 C 
BRANCH  25  26
ATOM     26  C   UNL     1       2.838   8.377  18.112  0.00  0.00    +0.000 C 
ATOM     27  C   UNL     1       1.486   8.910  17.726  0.00  0.00    +0.000 C 
ATOM     28  O   UNL     1       1.803   8.577  19.086  0.00  0.00    +0.000 OA
ENDBRANCH  25  26
ENDBRANCH  24  25
ENDBRANCH   2  24
TORSDOF 4
ENDMDL
MODEL 3
REMARK VINA RESULT:      -6.9      6.761      9.407
REMARK  Name = 
REMARK  5 active torsions:
REMARK  status: ('A' for Active; 'I' for Inactive)
REMARK    1  A    between atoms: C_1  and  C_2
REMARK    2  A    between atoms: C_2  and  O_3
REMARK    3  A    between atoms: O_3  and  C_4
REMARK    4  A    between atoms: C_4  and  C_5
REMARK    5  A    between atoms: C_16  and  C_17
REMARK                            x       y       z     vdW  Elec       q    Type
REMARK                         _______ _______ _______ _____ _____    ______ ____
ROOT
ATOM      1  C   UNL     1      -0.491  13.129  18.296  0.00  0.00    +0.000 C 
ATOM      2  C   UNL     1      -1.360  12.106  19.044  0.00  0.00    +0.000 C 
ATOM      3  C   UNL     1      -2.499  11.612  18.143  0.00  0.00    +0.000 A 
ATOM      4  C   UNL     1      -2.339  11.025  16.910  0.00  0.00    +0.000 A 
ATOM      5  C   UNL     1      -3.487  10.682  16.209  0.00  0.00    +0.000 A 
ATOM      6  C   UNL     1      -4.747  10.952  16.773  0.00  0.00    +0.000 A 
ATOM      7  C   UNL     1      -4.885  11.568  18.040  0.00  0.00    +0.000 A 
ATOM      8  C   UNL     1      -3.748  11.917  18.745  0.00  0.00    +0.000 A 
ATOM      9  C   UNL     1      -3.522  12.666  19.999  0.00  0.00    +0.000 A 
ATOM     10  C   UNL     1      -2.110  12.808  20.153  0.00  0.00    +0.000 A 
ATOM     11  C   UNL     1      -1.570  13.546  21.190  0.00  0.00    +0.000 A 
ATOM     12  N   UNL     1      -2.390  14.375  21.866  0.00  0.00    +0.000 NA
ATOM     13  C   UNL     1      -3.704  14.219  21.764  0.00  0.00    +0.000 A 
ATOM     14  C   UNL     1      -4.413  15.015  22.613  0.00  0.00    +0.000 A 
ATOM     15  C   UNL     1      -5.392  14.375  23.336  0.00  0.00    +0.000 A 
ATOM     16  C   UNL     1      -6.081  13.347  22.712  0.00  0.00    +0.000 A 
ATOM     17 BR   UNL     1      -7.507  12.554  23.661  0.00  0.00    +0.000 Br
ATOM     18  C   UNL     1      -5.652  12.862  21.459  0.00  0.00    +0.000 A 
ATOM     19  C   UNL     1      -4.349  13.224  21.004  0.00  0.00    +0.000 A 
ENDROOT
BRANCH  11  20
ATOM     20  C   UNL     1      -0.141  13.477  21.675  0.00  0.00    +0.000 C 
ATOM     21  F   UNL     1       0.329  12.232  21.956  0.00  0.00    +0.000 F 
ATOM     22  F   UNL     1       0.749  14.007  20.787  0.00  0.00    +0.000 F 
ATOM     23  F   UNL     1       0.031  14.180  22.835  0.00  0.00    +0.000 F 
ENDBRANCH  11  20
BRANCH   2  24
ATOM     24  O   UNL     1      -0.550  11.012  19.473  0.00  0.00    +0.000 OA
BRANCH  24  25
ATOM     25  C   UNL     1       0.754  10.919  18.893  0.00  0.00    +0.000 C 
BRANCH  25  26
ATOM     26  C   UNL     1       0.911   9.564  18.290  0.00  0.00    +0.000 C 
ATOM     27  C   UNL     1       2.254   9.056  17.843  0.00  0.00    +0.000 C 
ATOM     28  O   UNL     1       1.667   8.639  19.085  0.00  0.00    +0.000 OA
ENDBRANCH  25  26
ENDBRANCH  24  25
ENDBRANCH   2  24
TORSDOF 4
ENDMDL
MODEL 4
REMARK VINA RESULT:      -6.8      9.447     10.783
REMARK  Name = 
REMARK  5 active torsions:
REMARK  status: ('A' for Active; 'I' for Inactive)
REMARK    1  A    between atoms: C_1  and  C_2
REMARK    2  A    between atoms: C_2  and  O_3
REMARK    3  A    between atoms: O_3  and  C_4
REMARK    4  A    between atoms: C_4  and  C_5
REMARK    5  A    between atoms: C_16  and  C_17
REMARK                            x       y       z     vdW  Elec       q    Type
REMARK                         _______ _______ _______ _____ _____    ______ ____
ROOT
ATOM      1  C   UNL     1       7.457  13.407  17.357  0.00  0.00    +0.000 C 
ATOM      2  C   UNL     1       8.425  14.175  18.270  0.00  0.00    +0.000 C 
ATOM      3  C   UNL     1       9.637  13.303  18.620  0.00  0.00    +0.000 A 
ATOM      4  C   UNL     1      10.485  12.720  17.709  0.00  0.00    +0.000 A 
ATOM      5  C   UNL     1      11.506  11.919  18.203  0.00  0.00    +0.000 A 
ATOM      6  C   UNL     1      11.626  11.733  19.593  0.00  0.00    +0.000 A 
ATOM      7  C   UNL     1      10.732  12.335  20.510  0.00  0.00    +0.000 A 
ATOM      8  C   UNL     1       9.709  13.131  20.027  0.00  0.00    +0.000 A 
ATOM      9  C   UNL     1       8.554  13.794  20.666  0.00  0.00    +0.000 A 
ATOM     10  C   UNL     1       7.777  14.379  19.621  0.00  0.00    +0.000 A 
ATOM     11  C   UNL     1       6.570  15.002  19.882  0.00  0.00    +0.000 A 
ATOM     12  N   UNL     1       5.996  14.781  21.082  0.00  0.00    +0.000 NA
ATOM     13  C   UNL     1       6.724  14.281  22.072  0.00  0.00    +0.000 A 
ATOM     14  C   UNL     1       6.070  14.253  23.267  0.00  0.00    +0.000 A 
ATOM     15  C   UNL     1       6.773  14.763  24.333  0.00  0.00    +0.000 A 
ATOM     16  C   UNL     1       8.142  14.549  24.358  0.00  0.00    +0.000 A 
ATOM     17 BR   UNL     1       9.086  15.141  25.882  0.00  0.00    +0.000 Br
ATOM     18  C   UNL     1       8.797  14.001  23.236  0.00  0.00    +0.000 A 
ATOM     19  C   UNL     1       8.094  13.963  21.995  0.00  0.00    +0.000 A 
ENDROOT
BRANCH  11  20
ATOM     20  C   UNL     1       5.847  15.956  18.961  0.00  0.00    +0.000 C 
ATOM     21  F   UNL     1       6.580  17.007  18.504  0.00  0.00    +0.000 F 
ATOM     22  F   UNL     1       5.356  15.346  17.844  0.00  0.00    +0.000 F 
ATOM     23  F   UNL     1       4.769  16.528  19.574  0.00  0.00    +0.000 F 
ENDBRANCH  11  20
BRANCH   2  24
ATOM     24  O   UNL     1       8.843  15.377  17.624  0.00  0.00    +0.000 OA
BRANCH  24  25
ATOM     25  C   UNL     1       9.736  16.218  18.359  0.00  0.00    +0.000 C 
BRANCH  25  26
ATOM     26  C   UNL     1      10.696  16.843  17.405  0.00  0.00    +0.000 C 
ATOM     27  C   UNL     1      12.154  16.475  17.407  0.00  0.00    +0.000 C 
ATOM     28  O   UNL     1      11.245  15.942  16.432  0.00  0.00    +0.000 OA
ENDBRANCH  25  26
ENDBRANCH  24  25
ENDBRANCH   2  24
TORSDOF 4
ENDMDL
MODEL 5
REMARK VINA RESULT:      -6.7      7.210      9.299
REMARK  Name = 
REMARK  5 active torsions:
REMARK  status: ('A' for Active; 'I' for Inactive)
REMARK    1  A    between atoms: C_1  and  C_2
REMARK    2  A    between atoms: C_2  and  O_3
REMARK    3  A    between atoms: O_3  and  C_4
REMARK    4  A    between atoms: C_4  and  C_5
REMARK    5  A    between atoms: C_16  and  C_17
REMARK                            x       y       z     vdW  Elec       q    Type
REMARK                         _______ _______ _______ _____ _____    ______ ____
ROOT
ATOM      1  C   UNL     1      -1.035   9.996  19.778  0.00  0.00    +0.000 C 
ATOM      2  C   UNL     1      -1.377  11.469  19.505  0.00  0.00    +0.000 C 
ATOM      3  C   UNL     1      -1.490  12.245  20.823  0.00  0.00    +0.000 A 
ATOM      4  C   UNL     1      -0.504  12.340  21.776  0.00  0.00    +0.000 A 
ATOM      5  C   UNL     1      -0.796  13.047  22.935  0.00  0.00    +0.000 A 
ATOM      6  C   UNL     1      -2.071  13.621  23.090  0.00  0.00    +0.000 A 
ATOM      7  C   UNL     1      -3.073  13.501  22.098  0.00  0.00    +0.000 A 
ATOM      8  C   UNL     1      -2.793  12.795  20.942  0.00  0.00    +0.000 A 
ATOM      9  C   UNL     1      -3.614  12.373  19.788  0.00  0.00    +0.000 A 
ATOM     10  C   UNL     1      -2.785  11.559  18.960  0.00  0.00    +0.000 A 
ATOM     11  C   UNL     1      -3.286  10.928  17.836  0.00  0.00    +0.000 A 
ATOM     12  N   UNL     1      -4.626  10.844  17.707  0.00  0.00    +0.000 NA
ATOM     13  C   UNL     1      -5.402  11.631  18.441  0.00  0.00    +0.000 A 
ATOM     14  C   UNL     1      -6.721  11.559  18.105  0.00  0.00    +0.000 A 
ATOM     15  C   UNL     1      -7.349  12.769  17.931  0.00  0.00    +0.000 A 
ATOM     16  C   UNL     1      -6.964  13.816  18.754  0.00  0.00    +0.000 A 
ATOM     17 BR   UNL     1      -7.913  15.440  18.597  0.00  0.00    +0.000 Br
ATOM     18  C   UNL     1      -5.841  13.682  19.597  0.00  0.00    +0.000 A 
ATOM     19  C   UNL     1      -4.947  12.594  19.362  0.00  0.00    +0.000 A 
ENDROOT
BRANCH  11  20
ATOM     20  C   UNL     1      -2.469  10.359  16.701  0.00  0.00    +0.000 C 
ATOM     21  F   UNL     1      -1.274   9.809  17.048  0.00  0.00    +0.000 F 
ATOM     22  F   UNL     1      -3.127   9.385  16.008  0.00  0.00    +0.000 F 
ATOM     23  F   UNL     1      -2.152  11.317  15.779  0.00  0.00    +0.000 F 
ENDBRANCH  11  20
BRANCH   2  24
ATOM     24  O   UNL     1      -0.377  12.047  18.667  0.00  0.00    +0.000 OA
BRANCH  24  25
ATOM     25  C   UNL     1       0.945  11.514  18.794  0.00  0.00    +0.000 C 
BRANCH  25  26
ATOM     26  C   UNL     1       1.877  12.627  19.132  0.00  0.00    +0.000 C 
ATOM     27  C   UNL     1       2.782  13.234  18.095  0.00  0.00    +0.000 C 
ATOM     28  O   UNL     1       1.566  13.880  18.504  0.00  0.00    +0.000 OA
ENDBRANCH  25  26
ENDBRANCH  24  25
ENDBRANCH   2  24
TORSDOF 4
ENDMDL
MODEL 6
REMARK VINA RESULT:      -6.6      6.354      9.660
REMARK  Name = 
REMARK  5 active torsions:
REMARK  status: ('A' for Active; 'I' for Inactive)
REMARK    1  A    between atoms: C_1  and  C_2
REMARK    2  A    between atoms: C_2  and  O_3
REMARK    3  A    between atoms: O_3  and  C_4
REMARK    4  A    between atoms: C_4  and  C_5
REMARK    5  A    between atoms: C_16  and  C_17
REMARK                            x       y       z     vdW  Elec       q    Type
REMARK                         _______ _______ _______ _____ _____    ______ ____
ROOT
ATOM      1  C   UNL     1       1.440  12.765  20.952  0.00  0.00    +0.000 C 
ATOM      2  C   UNL     1       0.059  12.803  20.278  0.00  0.00    +0.000 C 
ATOM      3  C   UNL     1      -0.260  14.222  19.793  0.00  0.00    +0.000 A 
ATOM      4  C   UNL     1       0.514  14.960  18.929  0.00  0.00    +0.000 A 
ATOM      5  C   UNL     1       0.096  16.250  18.633  0.00  0.00    +0.000 A 
ATOM      6  C   UNL     1      -1.079  16.748  19.227  0.00  0.00    +0.000 A 
ATOM      7  C   UNL     1      -1.853  15.972  20.123  0.00  0.00    +0.000 A 
ATOM      8  C   UNL     1      -1.442  14.687  20.426  0.00  0.00    +0.000 A 
ATOM      9  C   UNL     1      -1.920  13.671  21.387  0.00  0.00    +0.000 A 
ATOM     10  C   UNL     1      -1.009  12.574  21.323  0.00  0.00    +0.000 A 
ATOM     11  C   UNL     1      -1.126  11.489  22.173  0.00  0.00    +0.000 A 
ATOM     12  N   UNL     1      -1.919  11.622  23.256  0.00  0.00    +0.000 NA
ATOM     13  C   UNL     1      -2.801  12.612  23.301  0.00  0.00    +0.000 A 
ATOM     14  C   UNL     1      -3.641  12.542  24.372  0.00  0.00    +0.000 A 
ATOM     15  C   UNL     1      -4.976  12.691  24.080  0.00  0.00    +0.000 A 
ATOM     16  C   UNL     1      -5.317  13.575  23.068  0.00  0.00    +0.000 A 
ATOM     17 BR   UNL     1      -7.154  13.871  22.753  0.00  0.00    +0.000 Br
ATOM     18  C   UNL     1      -4.315  14.141  22.253  0.00  0.00    +0.000 A 
ATOM     19  C   UNL     1      -3.011  13.563  22.284  0.00  0.00    +0.000 A 
ENDROOT
BRANCH  11  20
ATOM     20  C   UNL     1      -0.483  10.137  21.977  0.00  0.00    +0.000 C 
ATOM     21  F   UNL     1       0.876  10.126  21.949  0.00  0.00    +0.000 F 
ATOM     22  F   UNL     1      -0.831   9.238  22.943  0.00  0.00    +0.000 F 
ATOM     23  F   UNL     1      -0.857   9.569  20.792  0.00  0.00    +0.000 F 
ENDBRANCH  11  20
BRANCH   2  24
ATOM     24  O   UNL     1       0.032  11.883  19.188  0.00  0.00    +0.000 OA
BRANCH  24  25
ATOM     25  C   UNL     1       1.285  11.302  18.813  0.00  0.00    +0.000 C 
BRANCH  25  26
ATOM     26  C   UNL     1       1.036   9.926  18.296  0.00  0.00    +0.000 C 
ATOM     27  C   UNL     1       2.164   9.055  17.814  0.00  0.00    +0.000 C 
ATOM     28  O   UNL     1       1.575   8.874  19.110  0.00  0.00    +0.000 OA
ENDBRANCH  25  26
ENDBRANCH  24  25
ENDBRANCH   2  24
TORSDOF 4
ENDMDL
MODEL 7
REMARK VINA RESULT:      -6.6      7.077      9.619
REMARK  Name = 
REMARK  5 active torsions:
REMARK  status: ('A' for Active; 'I' for Inactive)
REMARK    1  A    between atoms: C_1  and  C_2
REMARK    2  A    between atoms: C_2  and  O_3
REMARK    3  A    between atoms: O_3  and  C_4
REMARK    4  A    between atoms: C_4  and  C_5
REMARK    5  A    between atoms: C_16  and  C_17
REMARK                            x       y       z     vdW  Elec       q    Type
REMARK                         _______ _______ _______ _____ _____    ______ ____
ROOT
ATOM      1  C   UNL     1      -0.409  13.291  18.394  0.00  0.00    +0.000 C 
ATOM      2  C   UNL     1      -1.248  12.169  19.024  0.00  0.00    +0.000 C 
ATOM      3  C   UNL     1      -2.217  11.581  17.991  0.00  0.00    +0.000 A 
ATOM      4  C   UNL     1      -1.856  11.039  16.781  0.00  0.00    +0.000 A 
ATOM      5  C   UNL     1      -2.873  10.595  15.946  0.00  0.00    +0.000 A 
ATOM      6  C   UNL     1      -4.211  10.724  16.361  0.00  0.00    +0.000 A 
ATOM      7  C   UNL     1      -4.558  11.296  17.608  0.00  0.00    +0.000 A 
ATOM      8  C   UNL     1      -3.553  11.744  18.445  0.00  0.00    +0.000 A 
ATOM      9  C   UNL     1      -3.553  12.486  19.723  0.00  0.00    +0.000 A 
ATOM     10  C   UNL     1      -2.191  12.767  20.044  0.00  0.00    +0.000 A 
ATOM     11  C   UNL     1      -1.853  13.535  21.144  0.00  0.00    +0.000 A 
ATOM     12  N   UNL     1      -2.828  14.261  21.726  0.00  0.00    +0.000 NA
ATOM     13  C   UNL     1      -4.098  13.975  21.469  0.00  0.00    +0.000 A 
ATOM     14  C   UNL     1      -4.979  14.676  22.236  0.00  0.00    +0.000 A 
ATOM     15  C   UNL     1      -5.964  13.926  22.832  0.00  0.00    +0.000 A 
ATOM     16  C   UNL     1      -6.466  12.846  22.123  0.00  0.00    +0.000 A 
ATOM     17 BR   UNL     1      -7.903  11.892  22.890  0.00  0.00    +0.000 Br
ATOM     18  C   UNL     1      -5.847  12.433  20.925  0.00  0.00    +0.000 A 
ATOM     19  C   UNL     1      -4.544  12.936  20.629  0.00  0.00    +0.000 A 
ENDROOT
BRANCH  11  20
ATOM     20  C   UNL     1      -0.491  13.601  21.793  0.00  0.00    +0.000 C 
ATOM     21  F   UNL     1       0.528  14.009  20.991  0.00  0.00    +0.000 F 
ATOM     22  F   UNL     1      -0.457  14.434  22.873  0.00  0.00    +0.000 F 
ATOM     23  F   UNL     1      -0.096  12.378  22.258  0.00  0.00    +0.000 F 
ENDBRANCH  11  20
BRANCH   2  24
ATOM     24  O   UNL     1      -0.385  11.154  19.536  0.00  0.00    +0.000 OA
BRANCH  24  25
ATOM     25  C   UNL     1      -1.020  10.022  20.138  0.00  0.00    +0.000 C 
BRANCH  25  26
ATOM     26  C   UNL     1      -0.022   9.311  20.987  0.00  0.00    +0.000 C 
ATOM     27  C   UNL     1      -0.211   9.180  22.474  0.00  0.00    +0.000 C 
ATOM     28  O   UNL     1      -0.499   8.094  21.580  0.00  0.00    +0.000 OA
ENDBRANCH  25  26
ENDBRANCH  24  25
ENDBRANCH   2  24
TORSDOF 4
ENDMDL
MODEL 8
REMARK VINA RESULT:      -6.6      5.762      8.404
REMARK  Name = 
REMARK  5 active torsions:
REMARK  status: ('A' for Active; 'I' for Inactive)
REMARK    1  A    between atoms: C_1  and  C_2
REMARK    2  A    between atoms: C_2  and  O_3
REMARK    3  A    between atoms: O_3  and  C_4
REMARK    4  A    between atoms: C_4  and  C_5
REMARK    5  A    between atoms: C_16  and  C_17
REMARK                            x       y       z     vdW  Elec       q    Type
REMARK                         _______ _______ _______ _____ _____    ______ ____
ROOT
ATOM      1  C   UNL     1      -1.789  11.202  18.254  0.00  0.00    +0.000 C 
ATOM      2  C   UNL     1      -1.132  11.655  19.567  0.00  0.00    +0.000 C 
ATOM      3  C   UNL     1      -1.869  12.870  20.143  0.00  0.00    +0.000 A 
ATOM      4  C   UNL     1      -3.209  12.915  20.449  0.00  0.00    +0.000 A 
ATOM      5  C   UNL     1      -3.720  14.117  20.918  0.00  0.00    +0.000 A 
ATOM      6  C   UNL     1      -2.864  15.225  21.053  0.00  0.00    +0.000 A 
ATOM      7  C   UNL     1      -1.490  15.156  20.721  0.00  0.00    +0.000 A 
ATOM      8  C   UNL     1      -0.972  13.964  20.249  0.00  0.00    +0.000 A 
ATOM      9  C   UNL     1       0.346  13.578  19.703  0.00  0.00    +0.000 A 
ATOM     10  C   UNL     1       0.236  12.223  19.268  0.00  0.00    +0.000 A 
ATOM     11  C   UNL     1       1.281  11.588  18.620  0.00  0.00    +0.000 A 
ATOM     12  N   UNL     1       2.281  12.354  18.139  0.00  0.00    +0.000 NA
ATOM     13  C   UNL     1       2.416  13.600  18.574  0.00  0.00    +0.000 A 
ATOM     14  C   UNL     1       3.550  14.211  18.129  0.00  0.00    +0.000 A 
ATOM     15  C   UNL     1       4.293  14.845  19.096  0.00  0.00    +0.000 A 
ATOM     16  C   UNL     1       3.606  15.465  20.128  0.00  0.00    +0.000 A 
ATOM     17 BR   UNL     1       4.622  16.440  21.386  0.00  0.00    +0.000 Br
ATOM     18  C   UNL     1       2.216  15.278  20.270  0.00  0.00    +0.000 A 
ATOM     19  C   UNL     1       1.599  14.218  19.540  0.00  0.00    +0.000 A 
ENDROOT
BRANCH  11  20
ATOM     20  C   UNL     1       1.436  10.096  18.442  0.00  0.00    +0.000 C 
ATOM     21  F   UNL     1       1.388   9.355  19.581  0.00  0.00    +0.000 F 
ATOM     22  F   UNL     1       0.488   9.558  17.621  0.00  0.00    +0.000 F 
ATOM     23  F   UNL     1       2.639   9.780  17.875  0.00  0.00    +0.000 F 
ENDBRANCH  11  20
BRANCH   2  24
ATOM     24  O   UNL     1      -1.136  10.576  20.502  0.00  0.00    +0.000 OA
BRANCH  24  25
ATOM     25  C   UNL     1      -0.632  10.865  21.810  0.00  0.00    +0.000 C 
BRANCH  25  26
ATOM     26  C   UNL     1      -0.282   9.580  22.480  0.00  0.00    +0.000 C 
ATOM     27  C   UNL     1       1.150   9.172  22.693  0.00  0.00    +0.000 C 
ATOM     28  O   UNL     1       0.359   9.725  23.755  0.00  0.00    +0.000 OA
ENDBRANCH  25  26
ENDBRANCH  24  25
ENDBRANCH   2  24
TORSDOF 4
ENDMDL
MODEL 9
REMARK VINA RESULT:      -6.5      7.429      9.977
REMARK  Name = 
REMARK  5 active torsions:
REMARK  status: ('A' for Active; 'I' for Inactive)
REMARK    1  A    between atoms: C_1  and  C_2
REMARK    2  A    between atoms: C_2  and  O_3
REMARK    3  A    between atoms: O_3  and  C_4
REMARK    4  A    between atoms: C_4  and  C_5
REMARK    5  A    between atoms: C_16  and  C_17
REMARK                            x       y       z     vdW  Elec       q    Type
REMARK                         _______ _______ _______ _____ _____    ______ ____
ROOT
ATOM      1  C   UNL     1      -3.489   9.354  18.132  0.00  0.00    +0.000 C 
ATOM      2  C   UNL     1      -2.791  10.701  17.889  0.00  0.00    +0.000 C 
ATOM      3  C   UNL     1      -1.339  10.648  18.380  0.00  0.00    +0.000 A 
ATOM      4  C   UNL     1      -0.392   9.743  17.964  0.00  0.00    +0.000 A 
ATOM      5  C   UNL     1       0.863   9.811  18.552  0.00  0.00    +0.000 A 
ATOM      6  C   UNL     1       1.111  10.782  19.540  0.00  0.00    +0.000 A 
ATOM      7  C   UNL     1       0.115  11.697  19.958  0.00  0.00    +0.000 A 
ATOM      8  C   UNL     1      -1.140  11.634  19.382  0.00  0.00    +0.000 A 
ATOM      9  C   UNL     1      -2.417  12.326  19.656  0.00  0.00    +0.000 A 
ATOM     10  C   UNL     1      -3.399  11.746  18.797  0.00  0.00    +0.000 A 
ATOM     11  C   UNL     1      -4.730  12.114  18.874  0.00  0.00    +0.000 A 
ATOM     12  N   UNL     1      -5.132  12.794  19.966  0.00  0.00    +0.000 NA
ATOM     13  C   UNL     1      -4.227  13.375  20.743  0.00  0.00    +0.000 A 
ATOM     14  C   UNL     1      -4.770  14.156  21.718  0.00  0.00    +0.000 A 
ATOM     15  C   UNL     1      -4.227  15.413  21.833  0.00  0.00    +0.000 A 
ATOM     16  C   UNL     1      -2.866  15.547  21.602  0.00  0.00    +0.000 A 
ATOM     17 BR   UNL     1      -2.100  17.250  21.882  0.00  0.00    +0.000 Br
ATOM     18  C   UNL     1      -2.124  14.467  21.083  0.00  0.00    +0.000 A 
ATOM     19  C   UNL     1      -2.837  13.366  20.521  0.00  0.00    +0.000 A 
ENDROOT
BRANCH  11  20
ATOM     20  C   UNL     1      -5.779  11.866  17.816  0.00  0.00    +0.000 C 
ATOM     21  F   UNL     1      -5.388  12.083  16.531  0.00  0.00    +0.000 F 
ATOM     22  F   UNL     1      -6.263  10.591  17.835  0.00  0.00    +0.000 F 
ATOM     23  F   UNL     1      -6.866  12.676  17.986  0.00  0.00    +0.000 F 
ENDBRANCH  11  20
BRANCH   2  24
ATOM     24  O   UNL     1      -2.839  11.022  16.499  0.00  0.00    +0.000 OA
BRANCH  24  25
ATOM     25  C   UNL     1      -2.938   9.918  15.594  0.00  0.00    +0.000 C 
BRANCH  25  26
ATOM     26  C   UNL     1      -3.350  10.434  14.257  0.00  0.00    +0.000 C 
ATOM     27  C   UNL     1      -3.149   9.621  13.008  0.00  0.00    +0.000 C 
ATOM     28  O   UNL     1      -4.431   9.715  13.646  0.00  0.00    +0.000 OA
ENDBRANCH  25  26
ENDBRANCH  24  25
ENDBRANCH   2  24
TORSDOF 4
ENDMDL
