MODEL 1
REMARK VINA RESULT:      -7.9      0.000      0.000
REMARK  Name = 
REMARK  6 active torsions:
REMARK  status: ('A' for Active; 'I' for Inactive)
REMARK    1  A    between atoms: C_1  and  C_2
REMARK    2  A    between atoms: C_6  and  C_7
REMARK    3  A    between atoms: C_8  and  N_9
REMARK    4  A    between atoms: C_10  and  C_12
REMARK    5  A    between atoms: C_12  and  N_13
REMARK    6  A    between atoms: C_14  and  C_16
REMARK                            x       y       z     vdW  Elec       q    Type
REMARK                         _______ _______ _______ _____ _____    ______ ____
ROOT
ATOM      1  N   UNL     1       1.762   9.112  18.056  0.00  0.00    +0.000 N 
ATOM      2  C   UNL     1       2.141   8.062  18.859  0.00  0.00    +0.000 C 
ATOM      3  O   UNL     1       1.987   8.081  20.078  0.00  0.00    +0.000 OA
ATOM      4  H   UNL     1       1.998   9.054  17.069  0.00  0.00    +0.000 HD
ENDROOT
BRANCH   2   5
ATOM      5  C   UNL     1       2.805   6.911  18.164  0.00  0.00    +0.000 A 
ATOM      6  C   UNL     1       2.258   5.646  18.312  0.00  0.00    +0.000 A 
ATOM      7  C   UNL     1       2.917   4.573  17.725  0.00  0.00    +0.000 A 
ATOM      8  C   UNL     1       4.104   4.791  17.020  0.00  0.00    +0.000 A 
ATOM      9  C   UNL     1       4.810   3.716  16.453  0.00  0.00    +0.000 A 
ATOM     10  C   UNL     1       5.999   3.939  15.762  0.00  0.00    +0.000 A 
ATOM     11  C   UNL     1       6.478   5.236  15.632  0.00  0.00    +0.000 A 
ATOM     12  C   UNL     1       5.771   6.307  16.197  0.00  0.00    +0.000 A 
ATOM     13  C   UNL     1       4.584   6.116  16.903  0.00  0.00    +0.000 A 
ATOM     14  N   UNL     1       3.943   7.170  17.457  0.00  0.00    +0.000 NA
ENDBRANCH   2   5
BRANCH   1  15
ATOM     15  C   UNL     1       1.203  10.336  18.602  0.00  0.00    +0.000 C 
BRANCH  15  17
ATOM     16  N   UNL     1      -0.984  11.229  17.950  0.00  0.00    +0.000 N 
ATOM     17  C   UNL     1      -0.328  10.290  18.738  0.00  0.00    +0.000 C 
ATOM     18  O   UNL     1      -0.863   9.568  19.576  0.00  0.00    +0.000 OA
ATOM     19  H   UNL     1      -0.398  12.012  17.669  0.00  0.00    +0.000 HD
BRANCH  16  27
ATOM     20  C   UNL     1      -2.230  12.678  20.246  0.00  0.00    +0.000 C 
ATOM     21  C   UNL     1      -2.994  12.132  19.071  0.00  0.00    +0.000 A 
ATOM     22  C   UNL     1      -4.397  12.242  19.104  0.00  0.00    +0.000 A 
ATOM     23  C   UNL     1      -5.187  11.696  18.097  0.00  0.00    +0.000 A 
ATOM     24  C   UNL     1      -4.584  11.035  17.034  0.00  0.00    +0.000 A 
ATOM     25  C   UNL     1      -3.187  10.902  16.969  0.00  0.00    +0.000 A 
ATOM     26  C   UNL     1      -2.596  10.236  15.757  0.00  0.00    +0.000 C 
ATOM     27  C   UNL     1      -2.382  11.457  17.991  0.00  0.00    +0.000 A 
ENDBRANCH  16  27
ENDBRANCH  15  17
ENDBRANCH   1  15
TORSDOF 4
ENDMDL
MODEL 2
REMARK VINA RESULT:      -7.9      1.834      2.314
REMARK  Name = 
REMARK  6 active torsions:
REMARK  status: ('A' for Active; 'I' for Inactive)
REMARK    1  A    between atoms: C_1  and  C_2
REMARK    2  A    between atoms: C_6  and  C_7
REMARK    3  A    between atoms: C_8  and  N_9
REMARK    4  A    between atoms: C_10  and  C_12
REMARK    5  A    between atoms: C_12  and  N_13
REMARK    6  A    between atoms: C_14  and  C_16
REMARK                            x       y       z     vdW  Elec       q    Type
REMARK                         _______ _______ _______ _____ _____    ______ ____
ROOT
ATOM      1  N   UNL     1       2.175   7.428  20.356  0.00  0.00    +0.000 N 
ATOM      2  C   UNL     1       2.081   6.076  20.121  0.00  0.00    +0.000 C 
ATOM      3  O   UNL     1       1.425   5.330  20.844  0.00  0.00    +0.000 OA
ATOM      4  H   UNL     1       2.802   7.963  19.761  0.00  0.00    +0.000 HD
ENDROOT
BRANCH   2   5
ATOM      5  C   UNL     1       2.869   5.557  18.956  0.00  0.00    +0.000 A 
ATOM      6  C   UNL     1       2.388   4.449  18.274  0.00  0.00    +0.000 A 
ATOM      7  C   UNL     1       3.158   3.930  17.241  0.00  0.00    +0.000 A 
ATOM      8  C   UNL     1       4.386   4.519  16.928  0.00  0.00    +0.000 A 
ATOM      9  C   UNL     1       5.201   3.985  15.915  0.00  0.00    +0.000 A 
ATOM     10  C   UNL     1       6.429   4.571  15.616  0.00  0.00    +0.000 A 
ATOM     11  C   UNL     1       6.839   5.694  16.324  0.00  0.00    +0.000 A 
ATOM     12  C   UNL     1       6.023   6.225  17.332  0.00  0.00    +0.000 A 
ATOM     13  C   UNL     1       4.794   5.657  17.663  0.00  0.00    +0.000 A 
ATOM     14  N   UNL     1       4.045   6.181  18.659  0.00  0.00    +0.000 NA
ENDBRANCH   2   5
BRANCH   1  15
ATOM     15  C   UNL     1       1.551   8.053  21.508  0.00  0.00    +0.000 C 
BRANCH  15  17
ATOM     16  N   UNL     1       0.353   9.961  20.542  0.00  0.00    +0.000 N 
ATOM     17  C   UNL     1       0.211   8.730  21.173  0.00  0.00    +0.000 C 
ATOM     18  O   UNL     1      -0.851   8.253  21.567  0.00  0.00    +0.000 OA
ATOM     19  H   UNL     1       1.261  10.396  20.688  0.00  0.00    +0.000 HD
BRANCH  16  27
ATOM     20  C   UNL     1      -0.802  11.754  22.634  0.00  0.00    +0.000 C 
ATOM     21  C   UNL     1      -1.298  11.674  21.216  0.00  0.00    +0.000 A 
ATOM     22  C   UNL     1      -2.434  12.436  20.883  0.00  0.00    +0.000 A 
ATOM     23  C   UNL     1      -3.006  12.362  19.618  0.00  0.00    +0.000 A 
ATOM     24  C   UNL     1      -2.446  11.528  18.658  0.00  0.00    +0.000 A 
ATOM     25  C   UNL     1      -1.314  10.751  18.954  0.00  0.00    +0.000 A 
ATOM     26  C   UNL     1      -0.717   9.923  17.850  0.00  0.00    +0.000 C 
ATOM     27  C   UNL     1      -0.730  10.824  20.240  0.00  0.00    +0.000 A 
ENDBRANCH  16  27
ENDBRANCH  15  17
ENDBRANCH   1  15
TORSDOF 4
ENDMDL
MODEL 3
REMARK VINA RESULT:      -7.8      1.866      2.918
REMARK  Name = 
REMARK  6 active torsions:
REMARK  status: ('A' for Active; 'I' for Inactive)
REMARK    1  A    between atoms: C_1  and  C_2
REMARK    2  A    between atoms: C_6  and  C_7
REMARK    3  A    between atoms: C_8  and  N_9
REMARK    4  A    between atoms: C_10  and  C_12
REMARK    5  A    between atoms: C_12  and  N_13
REMARK    6  A    between atoms: C_14  and  C_16
REMARK                            x       y       z     vdW  Elec       q    Type
REMARK                         _______ _______ _______ _____ _____    ______ ____
ROOT
ATOM      1  N   UNL     1       2.185   7.424  20.382  0.00  0.00    +0.000 N 
ATOM      2  C   UNL     1       2.000   6.076  20.180  0.00  0.00    +0.000 C 
ATOM      3  O   UNL     1       1.289   5.396  20.916  0.00  0.00    +0.000 OA
ATOM      4  H   UNL     1       2.852   7.899  19.779  0.00  0.00    +0.000 HD
ENDROOT
BRANCH   2   5
ATOM      5  C   UNL     1       2.760   5.474  19.036  0.00  0.00    +0.000 A 
ATOM      6  C   UNL     1       2.789   4.093  18.917  0.00  0.00    +0.000 A 
ATOM      7  C   UNL     1       3.552   3.538  17.898  0.00  0.00    +0.000 A 
ATOM      8  C   UNL     1       4.272   4.373  17.038  0.00  0.00    +0.000 A 
ATOM      9  C   UNL     1       5.085   3.833  16.026  0.00  0.00    +0.000 A 
ATOM     10  C   UNL     1       5.808   4.671  15.180  0.00  0.00    +0.000 A 
ATOM     11  C   UNL     1       5.714   6.048  15.341  0.00  0.00    +0.000 A 
ATOM     12  C   UNL     1       4.902   6.583  16.350  0.00  0.00    +0.000 A 
ATOM     13  C   UNL     1       4.173   5.772  17.220  0.00  0.00    +0.000 A 
ATOM     14  N   UNL     1       3.421   6.324  18.198  0.00  0.00    +0.000 NA
ENDBRANCH   2   5
BRANCH   1  15
ATOM     15  C   UNL     1       1.597   8.120  21.512  0.00  0.00    +0.000 C 
BRANCH  15  17
ATOM     16  N   UNL     1       0.288   9.975  20.586  0.00  0.00    +0.000 N 
ATOM     17  C   UNL     1       0.220   8.726  21.194  0.00  0.00    +0.000 C 
ATOM     18  O   UNL     1      -0.812   8.181  21.582  0.00  0.00    +0.000 OA
ATOM     19  H   UNL     1       1.171  10.458  20.738  0.00  0.00    +0.000 HD
BRANCH  16  27
ATOM     20  C   UNL     1      -0.917  10.018  17.853  0.00  0.00    +0.000 C 
ATOM     21  C   UNL     1      -1.424  10.824  19.017  0.00  0.00    +0.000 A 
ATOM     22  C   UNL     1      -2.484  11.717  18.774  0.00  0.00    +0.000 A 
ATOM     23  C   UNL     1      -2.964  12.557  19.773  0.00  0.00    +0.000 A 
ATOM     24  C   UNL     1      -2.394  12.512  21.040  0.00  0.00    +0.000 A 
ATOM     25  C   UNL     1      -1.332  11.636  21.320  0.00  0.00    +0.000 A 
ATOM     26  C   UNL     1      -0.808  11.589  22.729  0.00  0.00    +0.000 C 
ATOM     27  C   UNL     1      -0.843  10.780  20.305  0.00  0.00    +0.000 A 
ENDBRANCH  16  27
ENDBRANCH  15  17
ENDBRANCH   1  15
TORSDOF 4
ENDMDL
MODEL 4
REMARK VINA RESULT:      -7.8      0.161      1.745
REMARK  Name = 
REMARK  6 active torsions:
REMARK  status: ('A' for Active; 'I' for Inactive)
REMARK    1  A    between atoms: C_1  and  C_2
REMARK    2  A    between atoms: C_6  and  C_7
REMARK    3  A    between atoms: C_8  and  N_9
REMARK    4  A    between atoms: C_10  and  C_12
REMARK    5  A    between atoms: C_12  and  N_13
REMARK    6  A    between atoms: C_14  and  C_16
REMARK                            x       y       z     vdW  Elec       q    Type
REMARK                         _______ _______ _______ _____ _____    ______ ____
ROOT
ATOM      1  N   UNL     1       1.788   9.064  18.064  0.00  0.00    +0.000 N 
ATOM      2  C   UNL     1       2.173   8.015  18.865  0.00  0.00    +0.000 C 
ATOM      3  O   UNL     1       2.022   8.033  20.084  0.00  0.00    +0.000 OA
ATOM      4  H   UNL     1       2.022   9.007  17.076  0.00  0.00    +0.000 HD
ENDROOT
BRANCH   2   5
ATOM      5  C   UNL     1       2.838   6.866  18.168  0.00  0.00    +0.000 A 
ATOM      6  C   UNL     1       2.305   5.596  18.332  0.00  0.00    +0.000 A 
ATOM      7  C   UNL     1       2.966   4.526  17.742  0.00  0.00    +0.000 A 
ATOM      8  C   UNL     1       4.140   4.751  17.018  0.00  0.00    +0.000 A 
ATOM      9  C   UNL     1       4.849   3.680  16.447  0.00  0.00    +0.000 A 
ATOM     10  C   UNL     1       6.025   3.910  15.737  0.00  0.00    +0.000 A 
ATOM     11  C   UNL     1       6.489   5.211  15.591  0.00  0.00    +0.000 A 
ATOM     12  C   UNL     1       5.780   6.278  16.159  0.00  0.00    +0.000 A 
ATOM     13  C   UNL     1       4.605   6.081  16.885  0.00  0.00    +0.000 A 
ATOM     14  N   UNL     1       3.962   7.131  17.441  0.00  0.00    +0.000 NA
ENDBRANCH   2   5
BRANCH   1  15
ATOM     15  C   UNL     1       1.228  10.286  18.612  0.00  0.00    +0.000 C 
BRANCH  15  17
ATOM     16  N   UNL     1      -1.012  11.067  17.995  0.00  0.00    +0.000 N 
ATOM     17  C   UNL     1      -0.293  10.210  18.821  0.00  0.00    +0.000 C 
ATOM     18  O   UNL     1      -0.770   9.541  19.736  0.00  0.00    +0.000 OA
ATOM     19  H   UNL     1      -0.463  11.841  17.628  0.00  0.00    +0.000 HD
BRANCH  16  27
ATOM     20  C   UNL     1      -2.850   9.872  15.965  0.00  0.00    +0.000 C 
ATOM     21  C   UNL     1      -3.300  10.712  17.128  0.00  0.00    +0.000 A 
ATOM     22  C   UNL     1      -4.671  11.021  17.213  0.00  0.00    +0.000 A 
ATOM     23  C   UNL     1      -5.163  11.855  18.211  0.00  0.00    +0.000 A 
ATOM     24  C   UNL     1      -4.290  12.391  19.150  0.00  0.00    +0.000 A 
ATOM     25  C   UNL     1      -2.915  12.108  19.096  0.00  0.00    +0.000 A 
ATOM     26  C   UNL     1      -2.037  12.664  20.183  0.00  0.00    +0.000 C 
ATOM     27  C   UNL     1      -2.413  11.260  18.082  0.00  0.00    +0.000 A 
ENDBRANCH  16  27
ENDBRANCH  15  17
ENDBRANCH   1  15
TORSDOF 4
ENDMDL
MODEL 5
REMARK VINA RESULT:      -7.8      1.381      2.260
REMARK  Name = 
REMARK  6 active torsions:
REMARK  status: ('A' for Active; 'I' for Inactive)
REMARK    1  A    between atoms: C_1  and  C_2
REMARK    2  A    between atoms: C_6  and  C_7
REMARK    3  A    between atoms: C_8  and  N_9
REMARK    4  A    between atoms: C_10  and  C_12
REMARK    5  A    between atoms: C_12  and  N_13
REMARK    6  A    between atoms: C_14  and  C_16
REMARK                            x       y       z     vdW  Elec       q    Type
REMARK                         _______ _______ _______ _____ _____    ______ ____
ROOT
ATOM      1  N   UNL     1       1.757   8.946  19.382  0.00  0.00    +0.000 N 
ATOM      2  C   UNL     1       2.261   8.593  18.152  0.00  0.00    +0.000 C 
ATOM      3  O   UNL     1       2.283   9.375  17.204  0.00  0.00    +0.000 OA
ATOM      4  H   UNL     1       1.699   8.218  20.089  0.00  0.00    +0.000 HD
ENDROOT
BRANCH   2   5
ATOM      5  C   UNL     1       2.736   7.177  18.019  0.00  0.00    +0.000 A 
ATOM      6  C   UNL     1       3.993   6.949  17.479  0.00  0.00    +0.000 A 
ATOM      7  C   UNL     1       4.399   5.634  17.294  0.00  0.00    +0.000 A 
ATOM      8  C   UNL     1       3.538   4.588  17.638  0.00  0.00    +0.000 A 
ATOM      9  C   UNL     1       3.911   3.250  17.420  0.00  0.00    +0.000 A 
ATOM     10  C   UNL     1       3.043   2.213  17.755  0.00  0.00    +0.000 A 
ATOM     11  C   UNL     1       1.807   2.512  18.315  0.00  0.00    +0.000 A 
ATOM     12  C   UNL     1       1.439   3.847  18.533  0.00  0.00    +0.000 A 
ATOM     13  C   UNL     1       2.280   4.908  18.199  0.00  0.00    +0.000 A 
ATOM     14  N   UNL     1       1.881   6.184  18.399  0.00  0.00    +0.000 NA
ENDBRANCH   2   5
BRANCH   1  15
ATOM     15  C   UNL     1       1.166  10.249  19.625  0.00  0.00    +0.000 C 
BRANCH  15  17
ATOM     16  N   UNL     1      -0.933  11.178  18.764  0.00  0.00    +0.000 N 
ATOM     17  C   UNL     1      -0.371  10.225  19.607  0.00  0.00    +0.000 C 
ATOM     18  O   UNL     1      -0.998   9.507  20.383  0.00  0.00    +0.000 OA
ATOM     19  H   UNL     1      -0.310  11.954  18.548  0.00  0.00    +0.000 HD
BRANCH  16  27
ATOM     20  C   UNL     1      -2.309  12.956  20.732  0.00  0.00    +0.000 C 
ATOM     21  C   UNL     1      -2.997  12.257  19.592  0.00  0.00    +0.000 A 
ATOM     22  C   UNL     1      -4.396  12.387  19.503  0.00  0.00    +0.000 A 
ATOM     23  C   UNL     1      -5.123  11.713  18.528  0.00  0.00    +0.000 A 
ATOM     24  C   UNL     1      -4.460  10.899  17.617  0.00  0.00    +0.000 A 
ATOM     25  C   UNL     1      -3.065  10.741  17.676  0.00  0.00    +0.000 A 
ATOM     26  C   UNL     1      -2.403   9.902  16.619  0.00  0.00    +0.000 C 
ATOM     27  C   UNL     1      -2.324  11.427  18.667  0.00  0.00    +0.000 A 
ENDBRANCH  16  27
ENDBRANCH  15  17
ENDBRANCH   1  15
TORSDOF 4
ENDMDL
MODEL 6
REMARK VINA RESULT:      -7.7      2.303      3.055
REMARK  Name = 
REMARK  6 active torsions:
REMARK  status: ('A' for Active; 'I' for Inactive)
REMARK    1  A    between atoms: C_1  and  C_2
REMARK    2  A    between atoms: C_6  and  C_7
REMARK    3  A    between atoms: C_8  and  N_9
REMARK    4  A    between atoms: C_10  and  C_12
REMARK    5  A    between atoms: C_12  and  N_13
REMARK    6  A    between atoms: C_14  and  C_16
REMARK                            x       y       z     vdW  Elec       q    Type
REMARK                         _______ _______ _______ _____ _____    ______ ____
ROOT
ATOM      1  N   UNL     1       0.899   9.652  19.880  0.00  0.00    +0.000 N 
ATOM      2  C   UNL     1       1.410   8.701  20.731  0.00  0.00    +0.000 C 
ATOM      3  O   UNL     1       1.607   8.926  21.923  0.00  0.00    +0.000 OA
ATOM      4  H   UNL     1       0.843   9.413  18.894  0.00  0.00    +0.000 HD
ENDROOT
BRANCH   2   5
ATOM      5  C   UNL     1       1.763   7.383  20.108  0.00  0.00    +0.000 A 
ATOM      6  C   UNL     1       2.369   7.384  18.860  0.00  0.00    +0.000 A 
ATOM      7  C   UNL     1       2.628   6.160  18.256  0.00  0.00    +0.000 A 
ATOM      8  C   UNL     1       2.267   4.976  18.906  0.00  0.00    +0.000 A 
ATOM      9  C   UNL     1       2.481   3.728  18.296  0.00  0.00    +0.000 A 
ATOM     10  C   UNL     1       2.108   2.553  18.944  0.00  0.00    +0.000 A 
ATOM     11  C   UNL     1       1.526   2.624  20.204  0.00  0.00    +0.000 A 
ATOM     12  C   UNL     1       1.315   3.870  20.810  0.00  0.00    +0.000 A 
ATOM     13  C   UNL     1       1.668   5.066  20.184  0.00  0.00    +0.000 A 
ATOM     14  N   UNL     1       1.425   6.250  20.789  0.00  0.00    +0.000 NA
ENDBRANCH   2   5
BRANCH   1  15
ATOM     15  C   UNL     1       0.611  11.004  20.322  0.00  0.00    +0.000 C 
BRANCH  15  17
ATOM     16  N   UNL     1      -1.706  10.974  19.521  0.00  0.00    +0.000 N 
ATOM     17  C   UNL     1      -0.506  11.678  19.508  0.00  0.00    +0.000 C 
ATOM     18  O   UNL     1      -0.272  12.668  18.819  0.00  0.00    +0.000 OA
ATOM     19  H   UNL     1      -1.603   9.990  19.759  0.00  0.00    +0.000 HD
BRANCH  16  27
ATOM     20  C   UNL     1      -3.808  12.776  20.645  0.00  0.00    +0.000 C 
ATOM     21  C   UNL     1      -3.852  12.175  19.267  0.00  0.00    +0.000 A 
ATOM     22  C   UNL     1      -5.003  12.415  18.492  0.00  0.00    +0.000 A 
ATOM     23  C   UNL     1      -5.163  11.835  17.238  0.00  0.00    +0.000 A 
ATOM     24  C   UNL     1      -4.167  11.008  16.732  0.00  0.00    +0.000 A 
ATOM     25  C   UNL     1      -3.006  10.743  17.477  0.00  0.00    +0.000 A 
ATOM     26  C   UNL     1      -1.938   9.896  16.842  0.00  0.00    +0.000 C 
ATOM     27  C   UNL     1      -2.841  11.332  18.752  0.00  0.00    +0.000 A 
ENDBRANCH  16  27
ENDBRANCH  15  17
ENDBRANCH   1  15
TORSDOF 4
ENDMDL
MODEL 7
REMARK VINA RESULT:      -7.7      7.689      9.044
REMARK  Name = 
REMARK  6 active torsions:
REMARK  status: ('A' for Active; 'I' for Inactive)
REMARK    1  A    between atoms: C_1  and  C_2
REMARK    2  A    between atoms: C_6  and  C_7
REMARK    3  A    between atoms: C_8  and  N_9
REMARK    4  A    between atoms: C_10  and  C_12
REMARK    5  A    between atoms: C_12  and  N_13
REMARK    6  A    between atoms: C_14  and  C_16
REMARK                            x       y       z     vdW  Elec       q    Type
REMARK                         _______ _______ _______ _____ _____    ______ ____
ROOT
ATOM      1  N   UNL     1       7.956   7.334  17.787  0.00  0.00    +0.000 N 
ATOM      2  C   UNL     1       7.187   6.206  17.957  0.00  0.00    +0.000 C 
ATOM      3  O   UNL     1       6.962   5.728  19.066  0.00  0.00    +0.000 OA
ATOM      4  H   UNL     1       8.163   7.618  16.833  0.00  0.00    +0.000 HD
ENDROOT
BRANCH   2   5
ATOM      5  C   UNL     1       6.680   5.563  16.701  0.00  0.00    +0.000 A 
ATOM      6  C   UNL     1       5.508   4.826  16.763  0.00  0.00    +0.000 A 
ATOM      7  C   UNL     1       5.081   4.173  15.613  0.00  0.00    +0.000 A 
ATOM      8  C   UNL     1       5.840   4.264  14.443  0.00  0.00    +0.000 A 
ATOM      9  C   UNL     1       5.451   3.578  13.279  0.00  0.00    +0.000 A 
ATOM     10  C   UNL     1       6.218   3.664  12.120  0.00  0.00    +0.000 A 
ATOM     11  C   UNL     1       7.371   4.440  12.121  0.00  0.00    +0.000 A 
ATOM     12  C   UNL     1       7.756   5.124  13.282  0.00  0.00    +0.000 A 
ATOM     13  C   UNL     1       7.016   5.051  14.462  0.00  0.00    +0.000 A 
ATOM     14  N   UNL     1       7.432   5.703  15.570  0.00  0.00    +0.000 NA
ENDBRANCH   2   5
BRANCH   1  15
ATOM     15  C   UNL     1       8.599   8.001  18.904  0.00  0.00    +0.000 C 
BRANCH  15  17
ATOM     16  N   UNL     1       9.585  10.137  19.596  0.00  0.00    +0.000 N 
ATOM     17  C   UNL     1       8.693   9.525  18.721  0.00  0.00    +0.000 C 
ATOM     18  O   UNL     1       7.933  10.114  17.955  0.00  0.00    +0.000 OA
ATOM     19  H   UNL     1       9.787   9.587  20.428  0.00  0.00    +0.000 HD
BRANCH  16  27
ATOM     20  C   UNL     1       8.424  11.656  21.891  0.00  0.00    +0.000 C 
ATOM     21  C   UNL     1       9.208  12.280  20.769  0.00  0.00    +0.000 A 
ATOM     22  C   UNL     1       9.327  13.683  20.764  0.00  0.00    +0.000 A 
ATOM     23  C   UNL     1       9.968  14.348  19.725  0.00  0.00    +0.000 A 
ATOM     24  C   UNL     1      10.509  13.619  18.672  0.00  0.00    +0.000 A 
ATOM     25  C   UNL     1      10.407  12.218  18.641  0.00  0.00    +0.000 A 
ATOM     26  C   UNL     1      11.074  11.486  17.509  0.00  0.00    +0.000 C 
ATOM     27  C   UNL     1       9.756  11.539  19.698  0.00  0.00    +0.000 A 
ENDBRANCH  16  27
ENDBRANCH  15  17
ENDBRANCH   1  15
TORSDOF 4
ENDMDL
MODEL 8
REMARK VINA RESULT:      -7.7      1.695      9.098
REMARK  Name = 
REMARK  6 active torsions:
REMARK  status: ('A' for Active; 'I' for Inactive)
REMARK    1  A    between atoms: C_1  and  C_2
REMARK    2  A    between atoms: C_6  and  C_7
REMARK    3  A    between atoms: C_8  and  N_9
REMARK    4  A    between atoms: C_10  and  C_12
REMARK    5  A    between atoms: C_12  and  N_13
REMARK    6  A    between atoms: C_14  and  C_16
REMARK                            x       y       z     vdW  Elec       q    Type
REMARK                         _______ _______ _______ _____ _____    ______ ____
ROOT
ATOM      1  N   UNL     1       1.185   9.056  17.746  0.00  0.00    +0.000 N 
ATOM      2  C   UNL     1       0.672  10.069  18.522  0.00  0.00    +0.000 C 
ATOM      3  O   UNL     1       1.358  10.684  19.334  0.00  0.00    +0.000 OA
ATOM      4  H   UNL     1       0.533   8.543  17.159  0.00  0.00    +0.000 HD
ENDROOT
BRANCH   2   5
ATOM      5  C   UNL     1      -0.793  10.345  18.356  0.00  0.00    +0.000 A 
ATOM      6  C   UNL     1      -1.461   9.753  17.295  0.00  0.00    +0.000 A 
ATOM      7  C   UNL     1      -2.800  10.068  17.104  0.00  0.00    +0.000 A 
ATOM      8  C   UNL     1      -3.429  10.971  17.967  0.00  0.00    +0.000 A 
ATOM      9  C   UNL     1      -4.771  11.338  17.769  0.00  0.00    +0.000 A 
ATOM     10  C   UNL     1      -5.388  12.247  18.625  0.00  0.00    +0.000 A 
ATOM     11  C   UNL     1      -4.666  12.784  19.683  0.00  0.00    +0.000 A 
ATOM     12  C   UNL     1      -3.328  12.416  19.880  0.00  0.00    +0.000 A 
ATOM     13  C   UNL     1      -2.678  11.517  19.035  0.00  0.00    +0.000 A 
ATOM     14  N   UNL     1      -1.379  11.204  19.239  0.00  0.00    +0.000 NA
ENDBRANCH   2   5
BRANCH   1  15
ATOM     15  C   UNL     1       2.560   8.610  17.876  0.00  0.00    +0.000 C 
BRANCH  15  17
ATOM     16  N   UNL     1       3.318   6.279  17.862  0.00  0.00    +0.000 N 
ATOM     17  C   UNL     1       2.689   7.266  18.612  0.00  0.00    +0.000 C 
ATOM     18  O   UNL     1       2.152   7.093  19.704  0.00  0.00    +0.000 OA
ATOM     19  H   UNL     1       3.300   6.450  16.859  0.00  0.00    +0.000 HD
BRANCH  16  27
ATOM     20  C   UNL     1       1.104   4.321  17.422  0.00  0.00    +0.000 C 
ATOM     21  C   UNL     1       2.411   3.990  18.090  0.00  0.00    +0.000 A 
ATOM     22  C   UNL     1       2.561   2.692  18.614  0.00  0.00    +0.000 A 
ATOM     23  C   UNL     1       3.704   2.324  19.314  0.00  0.00    +0.000 A 
ATOM     24  C   UNL     1       4.725   3.249  19.497  0.00  0.00    +0.000 A 
ATOM     25  C   UNL     1       4.611   4.555  18.992  0.00  0.00    +0.000 A 
ATOM     26  C   UNL     1       5.780   5.484  19.166  0.00  0.00    +0.000 C 
ATOM     27  C   UNL     1       3.449   4.931  18.279  0.00  0.00    +0.000 A 
ENDBRANCH  16  27
ENDBRANCH  15  17
ENDBRANCH   1  15
TORSDOF 4
ENDMDL
MODEL 9
REMARK VINA RESULT:      -7.7      1.267      2.186
REMARK  Name = 
REMARK  6 active torsions:
REMARK  status: ('A' for Active; 'I' for Inactive)
REMARK    1  A    between atoms: C_1  and  C_2
REMARK    2  A    between atoms: C_6  and  C_7
REMARK    3  A    between atoms: C_8  and  N_9
REMARK    4  A    between atoms: C_10  and  C_12
REMARK    5  A    between atoms: C_12  and  N_13
REMARK    6  A    between atoms: C_14  and  C_16
REMARK                            x       y       z     vdW  Elec       q    Type
REMARK                         _______ _______ _______ _____ _____    ______ ____
ROOT
ATOM      1  N   UNL     1       1.672   8.880  18.389  0.00  0.00    +0.000 N 
ATOM      2  C   UNL     1       2.016   7.976  19.367  0.00  0.00    +0.000 C 
ATOM      3  O   UNL     1       1.895   8.229  20.563  0.00  0.00    +0.000 OA
ATOM      4  H   UNL     1       1.879   8.626  17.426  0.00  0.00    +0.000 HD
ENDROOT
BRANCH   2   5
ATOM      5  C   UNL     1       2.597   6.680  18.888  0.00  0.00    +0.000 A 
ATOM      6  C   UNL     1       3.543   6.714  17.875  0.00  0.00    +0.000 A 
ATOM      7  C   UNL     1       4.025   5.506  17.386  0.00  0.00    +0.000 A 
ATOM      8  C   UNL     1       3.542   4.304  17.911  0.00  0.00    +0.000 A 
ATOM      9  C   UNL     1       3.984   3.070  17.404  0.00  0.00    +0.000 A 
ATOM     10  C   UNL     1       3.490   1.876  17.924  0.00  0.00    +0.000 A 
ATOM     11  C   UNL     1       2.560   1.915  18.955  0.00  0.00    +0.000 A 
ATOM     12  C   UNL     1       2.122   3.147  19.460  0.00  0.00    +0.000 A 
ATOM     13  C   UNL     1       2.589   4.360  18.955  0.00  0.00    +0.000 A 
ATOM     14  N   UNL     1       2.125   5.529  19.450  0.00  0.00    +0.000 NA
ENDBRANCH   2   5
BRANCH   1  15
ATOM     15  C   UNL     1       1.196  10.214  18.707  0.00  0.00    +0.000 C 
BRANCH  15  17
ATOM     16  N   UNL     1      -1.005  11.115  18.114  0.00  0.00    +0.000 N 
ATOM     17  C   UNL     1      -0.317  10.264  18.973  0.00  0.00    +0.000 C 
ATOM     18  O   UNL     1      -0.804   9.696  19.948  0.00  0.00    +0.000 OA
ATOM     19  H   UNL     1      -0.416  11.820  17.675  0.00  0.00    +0.000 HD
BRANCH  16  27
ATOM     20  C   UNL     1      -1.990  12.918  20.283  0.00  0.00    +0.000 C 
ATOM     21  C   UNL     1      -2.873  12.260  19.259  0.00  0.00    +0.000 A 
ATOM     22  C   UNL     1      -4.263  12.443  19.389  0.00  0.00    +0.000 A 
ATOM     23  C   UNL     1      -5.157  11.809  18.534  0.00  0.00    +0.000 A 
ATOM     24  C   UNL     1      -4.675  10.982  17.526  0.00  0.00    +0.000 A 
ATOM     25  C   UNL     1      -3.295  10.772  17.367  0.00  0.00    +0.000 A 
ATOM     26  C   UNL     1      -2.838   9.922  16.214  0.00  0.00    +0.000 C 
ATOM     27  C   UNL     1      -2.384  11.417  18.236  0.00  0.00    +0.000 A 
ENDBRANCH  16  27
ENDBRANCH  15  17
ENDBRANCH   1  15
TORSDOF 4
ENDMDL
