MODEL 1
REMARK VINA RESULT:      -7.2      0.000      0.000
REMARK  Name = 
REMARK  7 active torsions:
REMARK  status: ('A' for Active; 'I' for Inactive)
REMARK    1  A    between atoms: C_1  and  C_2
REMARK    2  A    between atoms: C_2  and  C_3
REMARK    3  A    between atoms: C_2  and  N_17
REMARK    4  A    between atoms: N_5  and  C_6
REMARK    5  A    between atoms: C_6  and  C_7
REMARK    6  A    between atoms: C_7  and  C_8
REMARK    7  A    between atoms: C_8  and  N_9
REMARK                            x       y       z     vdW  Elec       q    Type
REMARK                         _______ _______ _______ _____ _____    ______ ____
ROOT
ATOM      1  C   UNL     1       6.524   4.861  18.902  0.00  0.00    +0.000 C 
ATOM      2  O   UNL     1       6.485   5.306  20.050  0.00  0.00    +0.000 OA
ATOM      3  N   UNL     1       5.792   3.751  18.527  0.00  0.00    +0.000 N 
ATOM      4  H   UNL     1       5.774   3.460  17.552  0.00  0.00    +0.000 HD
ENDROOT
BRANCH   1   6
ATOM      5  C   UNL     1       7.788   6.917  18.154  0.00  0.00    +0.000 C 
ATOM      6  C   UNL     1       7.423   5.468  17.829  0.00  0.00    +0.000 C 
BRANCH   6   7
ATOM      7  N   UNL     1       6.808   5.376  16.517  0.00  0.00    +0.000 N 
ATOM      8  C   UNL     1       5.781   6.112  16.007  0.00  0.00    +0.000 A 
ATOM      9  N   UNL     1       5.568   5.760  14.760  0.00  0.00    +0.000 NA
ATOM     10  C   UNL     1       6.502   4.789  14.548  0.00  0.00    +0.000 A 
ATOM     11  N   UNL     1       7.271   4.499  15.602  0.00  0.00    +0.000 NA
ENDBRANCH   6   7
ENDBRANCH   1   6
BRANCH   3  12
ATOM     12  C   UNL     1       4.883   3.102  19.456  0.00  0.00    +0.000 C 
BRANCH  12  13
ATOM     13  C   UNL     1       3.847   2.245  18.727  0.00  0.00    +0.000 C 
BRANCH  13  14
ATOM     14  C   UNL     1       2.475   2.350  19.394  0.00  0.00    +0.000 C 
BRANCH  14  15
ATOM     15  N   UNL     1       1.959   3.724  19.416  0.00  0.00    +0.000 N 
ATOM     16  C   UNL     1       1.593   4.339  18.142  0.00  0.00    +0.000 C 
ATOM     17  C   UNL     1       2.593   5.418  17.730  0.00  0.00    +0.000 C 
ATOM     18  C   UNL     1       2.325   6.765  18.399  0.00  0.00    +0.000 C 
ATOM     19  C   UNL     1       2.438   6.749  19.921  0.00  0.00    +0.000 C 
ATOM     20  C   UNL     1       1.422   5.836  20.601  0.00  0.00    +0.000 C 
ATOM     21  C   UNL     1       1.875   4.389  20.629  0.00  0.00    +0.000 C 
ATOM     22  O   UNL     1       2.166   3.850  21.701  0.00  0.00    +0.000 OA
ENDBRANCH  14  15
ENDBRANCH  13  14
ENDBRANCH  12  13
ENDBRANCH   3  12
TORSDOF 6
ENDMDL
MODEL 2
REMARK VINA RESULT:      -6.7      1.955      3.886
REMARK  Name = 
REMARK  7 active torsions:
REMARK  status: ('A' for Active; 'I' for Inactive)
REMARK    1  A    between atoms: C_1  and  C_2
REMARK    2  A    between atoms: C_2  and  C_3
REMARK    3  A    between atoms: C_2  and  N_17
REMARK    4  A    between atoms: N_5  and  C_6
REMARK    5  A    between atoms: C_6  and  C_7
REMARK    6  A    between atoms: C_7  and  C_8
REMARK    7  A    between atoms: C_8  and  N_9
REMARK                            x       y       z     vdW  Elec       q    Type
REMARK                         _______ _______ _______ _____ _____    ______ ____
ROOT
ATOM      1  C   UNL     1       5.161   6.551  16.035  0.00  0.00    +0.000 C 
ATOM      2  O   UNL     1       4.895   7.180  15.010  0.00  0.00    +0.000 OA
ATOM      3  N   UNL     1       4.520   6.807  17.232  0.00  0.00    +0.000 N 
ATOM      4  H   UNL     1       4.696   6.213  18.040  0.00  0.00    +0.000 HD
ENDROOT
BRANCH   1   6
ATOM      5  C   UNL     1       5.673   4.081  15.906  0.00  0.00    +0.000 C 
ATOM      6  C   UNL     1       6.253   5.486  16.072  0.00  0.00    +0.000 C 
BRANCH   6   7
ATOM      7  N   UNL     1       7.034   5.577  17.293  0.00  0.00    +0.000 N 
ATOM      8  C   UNL     1       7.589   4.570  18.024  0.00  0.00    +0.000 A 
ATOM      9  N   UNL     1       8.271   5.080  19.023  0.00  0.00    +0.000 NA
ATOM     10  C   UNL     1       8.099   6.424  18.862  0.00  0.00    +0.000 A 
ATOM     11  N   UNL     1       7.328   6.779  17.830  0.00  0.00    +0.000 NA
ENDBRANCH   6   7
ENDBRANCH   1   6
BRANCH   3  12
ATOM     12  C   UNL     1       3.447   7.783  17.316  0.00  0.00    +0.000 C 
BRANCH  12  13
ATOM     13  C   UNL     1       2.212   7.206  18.008  0.00  0.00    +0.000 C 
BRANCH  13  14
ATOM     14  C   UNL     1       2.559   6.660  19.393  0.00  0.00    +0.000 C 
BRANCH  14  15
ATOM     15  N   UNL     1       2.631   5.195  19.425  0.00  0.00    +0.000 N 
ATOM     16  C   UNL     1       1.396   4.444  19.216  0.00  0.00    +0.000 C 
ATOM     17  C   UNL     1       0.905   3.795  20.508  0.00  0.00    +0.000 C 
ATOM     18  C   UNL     1       1.600   2.468  20.810  0.00  0.00    +0.000 C 
ATOM     19  C   UNL     1       3.107   2.578  21.026  0.00  0.00    +0.000 C 
ATOM     20  C   UNL     1       3.867   3.077  19.800  0.00  0.00    +0.000 C 
ATOM     21  C   UNL     1       3.850   4.589  19.687  0.00  0.00    +0.000 C 
ATOM     22  O   UNL     1       4.891   5.235  19.840  0.00  0.00    +0.000 OA
ENDBRANCH  14  15
ENDBRANCH  13  14
ENDBRANCH  12  13
ENDBRANCH   3  12
TORSDOF 6
ENDMDL
MODEL 3
REMARK VINA RESULT:      -6.6      1.781      3.216
REMARK  Name = 
REMARK  7 active torsions:
REMARK  status: ('A' for Active; 'I' for Inactive)
REMARK    1  A    between atoms: C_1  and  C_2
REMARK    2  A    between atoms: C_2  and  C_3
REMARK    3  A    between atoms: C_2  and  N_17
REMARK    4  A    between atoms: N_5  and  C_6
REMARK    5  A    between atoms: C_6  and  C_7
REMARK    6  A    between atoms: C_7  and  C_8
REMARK    7  A    between atoms: C_8  and  N_9
REMARK                            x       y       z     vdW  Elec       q    Type
REMARK                         _______ _______ _______ _____ _____    ______ ____
ROOT
ATOM      1  C   UNL     1       4.994   6.401  17.890  0.00  0.00    +0.000 C 
ATOM      2  O   UNL     1       4.631   7.375  17.228  0.00  0.00    +0.000 OA
ATOM      3  N   UNL     1       4.194   5.849  18.870  0.00  0.00    +0.000 N 
ATOM      4  H   UNL     1       4.481   4.992  19.338  0.00  0.00    +0.000 HD
ENDROOT
BRANCH   1   6
ATOM      5  C   UNL     1       7.489   6.795  17.913  0.00  0.00    +0.000 C 
ATOM      6  C   UNL     1       6.372   5.770  17.712  0.00  0.00    +0.000 C 
BRANCH   6   7
ATOM      7  N   UNL     1       6.492   5.128  16.416  0.00  0.00    +0.000 N 
ATOM      8  C   UNL     1       5.781   4.078  15.919  0.00  0.00    +0.000 A 
ATOM      9  N   UNL     1       6.154   3.844  14.681  0.00  0.00    +0.000 NA
ATOM     10  C   UNL     1       7.112   4.790  14.462  0.00  0.00    +0.000 A 
ATOM     11  N   UNL     1       7.374   5.586  15.503  0.00  0.00    +0.000 NA
ENDBRANCH   6   7
ENDBRANCH   1   6
BRANCH   3  12
ATOM     12  C   UNL     1       2.852   6.350  19.115  0.00  0.00    +0.000 C 
BRANCH  12  13
ATOM     13  C   UNL     1       2.286   5.829  20.437  0.00  0.00    +0.000 C 
BRANCH  13  14
ATOM     14  C   UNL     1       1.168   4.814  20.197  0.00  0.00    +0.000 C 
BRANCH  14  15
ATOM     15  N   UNL     1       1.668   3.520  19.720  0.00  0.00    +0.000 N 
ATOM     16  C   UNL     1       2.309   2.634  20.689  0.00  0.00    +0.000 C 
ATOM     17  C   UNL     1       3.819   2.559  20.471  0.00  0.00    +0.000 C 
ATOM     18  C   UNL     1       4.215   1.566  19.379  0.00  0.00    +0.000 C 
ATOM     19  C   UNL     1       3.680   1.907  17.991  0.00  0.00    +0.000 C 
ATOM     20  C   UNL     1       2.157   1.902  17.904  0.00  0.00    +0.000 C 
ATOM     21  C   UNL     1       1.547   3.209  18.375  0.00  0.00    +0.000 C 
ATOM     22  O   UNL     1       0.984   3.957  17.571  0.00  0.00    +0.000 OA
ENDBRANCH  14  15
ENDBRANCH  13  14
ENDBRANCH  12  13
ENDBRANCH   3  12
TORSDOF 6
ENDMDL
MODEL 4
REMARK VINA RESULT:      -6.6      2.103      3.849
REMARK  Name = 
REMARK  7 active torsions:
REMARK  status: ('A' for Active; 'I' for Inactive)
REMARK    1  A    between atoms: C_1  and  C_2
REMARK    2  A    between atoms: C_2  and  C_3
REMARK    3  A    between atoms: C_2  and  N_17
REMARK    4  A    between atoms: N_5  and  C_6
REMARK    5  A    between atoms: C_6  and  C_7
REMARK    6  A    between atoms: C_7  and  C_8
REMARK    7  A    between atoms: C_8  and  N_9
REMARK                            x       y       z     vdW  Elec       q    Type
REMARK                         _______ _______ _______ _____ _____    ______ ____
ROOT
ATOM      1  C   UNL     1       5.341   6.419  16.141  0.00  0.00    +0.000 C 
ATOM      2  O   UNL     1       4.944   7.001  15.131  0.00  0.00    +0.000 OA
ATOM      3  N   UNL     1       4.621   6.433  17.319  0.00  0.00    +0.000 N 
ATOM      4  H   UNL     1       4.928   5.869  18.110  0.00  0.00    +0.000 HD
ENDROOT
BRANCH   1   6
ATOM      5  C   UNL     1       6.521   4.205  15.842  0.00  0.00    +0.000 C 
ATOM      6  C   UNL     1       6.680   5.688  16.181  0.00  0.00    +0.000 C 
BRANCH   6   7
ATOM      7  N   UNL     1       7.330   5.853  17.469  0.00  0.00    +0.000 N 
ATOM      8  C   UNL     1       7.877   6.978  18.006  0.00  0.00    +0.000 A 
ATOM      9  N   UNL     1       8.306   6.719  19.220  0.00  0.00    +0.000 NA
ATOM     10  C   UNL     1       7.996   5.401  19.383  0.00  0.00    +0.000 A 
ATOM     11  N   UNL     1       7.418   4.817  18.329  0.00  0.00    +0.000 NA
ENDBRANCH   6   7
ENDBRANCH   1   6
BRANCH   3  12
ATOM     12  C   UNL     1       3.320   7.077  17.398  0.00  0.00    +0.000 C 
BRANCH  12  13
ATOM     13  C   UNL     1       2.423   6.413  18.443  0.00  0.00    +0.000 C 
BRANCH  13  14
ATOM     14  C   UNL     1       1.699   5.200  17.859  0.00  0.00    +0.000 C 
BRANCH  14  15
ATOM     15  N   UNL     1       1.940   3.972  18.626  0.00  0.00    +0.000 N 
ATOM     16  C   UNL     1       1.048   3.676  19.744  0.00  0.00    +0.000 C 
ATOM     17  C   UNL     1       1.745   3.874  21.088  0.00  0.00    +0.000 C 
ATOM     18  C   UNL     1       2.585   2.668  21.507  0.00  0.00    +0.000 C 
ATOM     19  C   UNL     1       3.738   2.342  20.561  0.00  0.00    +0.000 C 
ATOM     20  C   UNL     1       3.287   1.957  19.156  0.00  0.00    +0.000 C 
ATOM     21  C   UNL     1       3.017   3.169  18.284  0.00  0.00    +0.000 C 
ATOM     22  O   UNL     1       3.751   3.418  17.324  0.00  0.00    +0.000 OA
ENDBRANCH  14  15
ENDBRANCH  13  14
ENDBRANCH  12  13
ENDBRANCH   3  12
TORSDOF 6
ENDMDL
MODEL 5
REMARK VINA RESULT:      -6.5      0.976      1.229
REMARK  Name = 
REMARK  7 active torsions:
REMARK  status: ('A' for Active; 'I' for Inactive)
REMARK    1  A    between atoms: C_1  and  C_2
REMARK    2  A    between atoms: C_2  and  C_3
REMARK    3  A    between atoms: C_2  and  N_17
REMARK    4  A    between atoms: N_5  and  C_6
REMARK    5  A    between atoms: C_6  and  C_7
REMARK    6  A    between atoms: C_7  and  C_8
REMARK    7  A    between atoms: C_8  and  N_9
REMARK                            x       y       z     vdW  Elec       q    Type
REMARK                         _______ _______ _______ _____ _____    ______ ____
ROOT
ATOM      1  C   UNL     1       6.175   4.789  18.800  0.00  0.00    +0.000 C 
ATOM      2  O   UNL     1       5.864   5.448  19.794  0.00  0.00    +0.000 OA
ATOM      3  N   UNL     1       5.635   3.541  18.558  0.00  0.00    +0.000 N 
ATOM      4  H   UNL     1       5.840   3.060  17.685  0.00  0.00    +0.000 HD
ENDROOT
BRANCH   1   6
ATOM      5  C   UNL     1       7.694   6.692  18.128  0.00  0.00    +0.000 C 
ATOM      6  C   UNL     1       7.215   5.278  17.797  0.00  0.00    +0.000 C 
BRANCH   6   7
ATOM      7  N   UNL     1       6.704   5.215  16.439  0.00  0.00    +0.000 N 
ATOM      8  C   UNL     1       7.015   4.326  15.455  0.00  0.00    +0.000 A 
ATOM      9  N   UNL     1       6.284   4.576  14.393  0.00  0.00    +0.000 NA
ATOM     10  C   UNL     1       5.532   5.647  14.780  0.00  0.00    +0.000 A 
ATOM     11  N   UNL     1       5.770   6.092  16.017  0.00  0.00    +0.000 NA
ENDBRANCH   6   7
ENDBRANCH   1   6
BRANCH   3  12
ATOM     12  C   UNL     1       4.617   2.980  19.431  0.00  0.00    +0.000 C 
BRANCH  12  13
ATOM     13  C   UNL     1       3.906   1.794  18.779  0.00  0.00    +0.000 C 
BRANCH  13  14
ATOM     14  C   UNL     1       2.720   2.258  17.932  0.00  0.00    +0.000 C 
BRANCH  14  15
ATOM     15  N   UNL     1       2.000   3.387  18.534  0.00  0.00    +0.000 N 
ATOM     16  C   UNL     1       1.898   4.623  17.764  0.00  0.00    +0.000 C 
ATOM     17  C   UNL     1       2.782   5.725  18.346  0.00  0.00    +0.000 C 
ATOM     18  C   UNL     1       2.127   6.459  19.515  0.00  0.00    +0.000 C 
ATOM     19  C   UNL     1       1.824   5.579  20.725  0.00  0.00    +0.000 C 
ATOM     20  C   UNL     1       0.825   4.463  20.436  0.00  0.00    +0.000 C 
ATOM     21  C   UNL     1       1.483   3.246  19.813  0.00  0.00    +0.000 C 
ATOM     22  O   UNL     1       1.557   2.189  20.444  0.00  0.00    +0.000 OA
ENDBRANCH  14  15
ENDBRANCH  13  14
ENDBRANCH  12  13
ENDBRANCH   3  12
TORSDOF 6
ENDMDL
MODEL 6
REMARK VINA RESULT:      -6.5      4.804      8.038
REMARK  Name = 
REMARK  7 active torsions:
REMARK  status: ('A' for Active; 'I' for Inactive)
REMARK    1  A    between atoms: C_1  and  C_2
REMARK    2  A    between atoms: C_2  and  C_3
REMARK    3  A    between atoms: C_2  and  N_17
REMARK    4  A    between atoms: N_5  and  C_6
REMARK    5  A    between atoms: C_6  and  C_7
REMARK    6  A    between atoms: C_7  and  C_8
REMARK    7  A    between atoms: C_8  and  N_9
REMARK                            x       y       z     vdW  Elec       q    Type
REMARK                         _______ _______ _______ _____ _____    ______ ____
ROOT
ATOM      1  C   UNL     1       6.481   6.733  17.241  0.00  0.00    +0.000 C 
ATOM      2  O   UNL     1       5.399   7.304  17.098  0.00  0.00    +0.000 OA
ATOM      3  N   UNL     1       7.644   7.433  17.492  0.00  0.00    +0.000 N 
ATOM      4  H   UNL     1       8.506   6.931  17.694  0.00  0.00    +0.000 HD
ENDROOT
BRANCH   1   6
ATOM      5  C   UNL     1       7.814   4.691  17.898  0.00  0.00    +0.000 C 
ATOM      6  C   UNL     1       6.625   5.221  17.096  0.00  0.00    +0.000 C 
BRANCH   6   7
ATOM      7  N   UNL     1       6.735   4.836  15.701  0.00  0.00    +0.000 N 
ATOM      8  C   UNL     1       6.038   3.880  15.025  0.00  0.00    +0.000 A 
ATOM      9  N   UNL     1       6.394   3.891  13.761  0.00  0.00    +0.000 NA
ATOM     10  C   UNL     1       7.327   4.883  13.710  0.00  0.00    +0.000 A 
ATOM     11  N   UNL     1       7.591   5.477  14.878  0.00  0.00    +0.000 NA
ENDBRANCH   6   7
ENDBRANCH   1   6
BRANCH   3  12
ATOM     12  C   UNL     1       7.630   8.876  17.673  0.00  0.00    +0.000 C 
BRANCH  12  13
ATOM     13  C   UNL     1       8.776   9.344  18.570  0.00  0.00    +0.000 C 
BRANCH  13  14
ATOM     14  C   UNL     1       9.350  10.675  18.082  0.00  0.00    +0.000 C 
BRANCH  14  15
ATOM     15  N   UNL     1      10.058  11.409  19.137  0.00  0.00    +0.000 N 
ATOM     16  C   UNL     1       9.690  11.139  20.525  0.00  0.00    +0.000 C 
ATOM     17  C   UNL     1       8.917  12.304  21.139  0.00  0.00    +0.000 C 
ATOM     18  C   UNL     1       9.827  13.420  21.652  0.00  0.00    +0.000 C 
ATOM     19  C   UNL     1      10.672  14.092  20.573  0.00  0.00    +0.000 C 
ATOM     20  C   UNL     1      11.658  13.149  19.891  0.00  0.00    +0.000 C 
ATOM     21  C   UNL     1      11.013  12.347  18.776  0.00  0.00    +0.000 C 
ATOM     22  O   UNL     1      11.331  12.549  17.601  0.00  0.00    +0.000 OA
ENDBRANCH  14  15
ENDBRANCH  13  14
ENDBRANCH  12  13
ENDBRANCH   3  12
TORSDOF 6
ENDMDL
MODEL 7
REMARK VINA RESULT:      -6.5      2.260      3.706
REMARK  Name = 
REMARK  7 active torsions:
REMARK  status: ('A' for Active; 'I' for Inactive)
REMARK    1  A    between atoms: C_1  and  C_2
REMARK    2  A    between atoms: C_2  and  C_3
REMARK    3  A    between atoms: C_2  and  N_17
REMARK    4  A    between atoms: N_5  and  C_6
REMARK    5  A    between atoms: C_6  and  C_7
REMARK    6  A    between atoms: C_7  and  C_8
REMARK    7  A    between atoms: C_8  and  N_9
REMARK                            x       y       z     vdW  Elec       q    Type
REMARK                         _______ _______ _______ _____ _____    ______ ____
ROOT
ATOM      1  C   UNL     1       5.277   5.980  15.726  0.00  0.00    +0.000 C 
ATOM      2  O   UNL     1       5.137   6.791  14.809  0.00  0.00    +0.000 OA
ATOM      3  N   UNL     1       4.759   6.211  16.986  0.00  0.00    +0.000 N 
ATOM      4  H   UNL     1       4.812   5.485  17.698  0.00  0.00    +0.000 HD
ENDROOT
BRANCH   1   6
ATOM      5  C   UNL     1       7.293   4.658  16.479  0.00  0.00    +0.000 C 
ATOM      6  C   UNL     1       6.077   4.692  15.554  0.00  0.00    +0.000 C 
BRANCH   6   7
ATOM      7  N   UNL     1       6.479   4.505  14.172  0.00  0.00    +0.000 N 
ATOM      8  C   UNL     1       7.547   5.042  13.518  0.00  0.00    +0.000 A 
ATOM      9  N   UNL     1       7.591   4.570  12.293  0.00  0.00    +0.000 NA
ATOM     10  C   UNL     1       6.512   3.738  12.242  0.00  0.00    +0.000 A 
ATOM     11  N   UNL     1       5.782   3.682  13.360  0.00  0.00    +0.000 NA
ENDBRANCH   6   7
ENDBRANCH   1   6
BRANCH   3  12
ATOM     12  C   UNL     1       3.960   7.392  17.265  0.00  0.00    +0.000 C 
BRANCH  12  13
ATOM     13  C   UNL     1       3.044   7.182  18.471  0.00  0.00    +0.000 C 
BRANCH  13  14
ATOM     14  C   UNL     1       3.491   5.979  19.302  0.00  0.00    +0.000 C 
BRANCH  14  15
ATOM     15  N   UNL     1       2.420   4.994  19.497  0.00  0.00    +0.000 N 
ATOM     16  C   UNL     1       1.726   4.982  20.782  0.00  0.00    +0.000 C 
ATOM     17  C   UNL     1       2.107   3.762  21.617  0.00  0.00    +0.000 C 
ATOM     18  C   UNL     1       1.318   2.509  21.237  0.00  0.00    +0.000 C 
ATOM     19  C   UNL     1       1.538   2.034  19.804  0.00  0.00    +0.000 C 
ATOM     20  C   UNL     1       1.088   3.039  18.749  0.00  0.00    +0.000 C 
ATOM     21  C   UNL     1       2.139   4.099  18.476  0.00  0.00    +0.000 C 
ATOM     22  O   UNL     1       2.717   4.134  17.387  0.00  0.00    +0.000 OA
ENDBRANCH  14  15
ENDBRANCH  13  14
ENDBRANCH  12  13
ENDBRANCH   3  12
TORSDOF 6
ENDMDL
MODEL 8
REMARK VINA RESULT:      -6.3      2.000      5.693
REMARK  Name = 
REMARK  7 active torsions:
REMARK  status: ('A' for Active; 'I' for Inactive)
REMARK    1  A    between atoms: C_1  and  C_2
REMARK    2  A    between atoms: C_2  and  C_3
REMARK    3  A    between atoms: C_2  and  N_17
REMARK    4  A    between atoms: N_5  and  C_6
REMARK    5  A    between atoms: C_6  and  C_7
REMARK    6  A    between atoms: C_7  and  C_8
REMARK    7  A    between atoms: C_8  and  N_9
REMARK                            x       y       z     vdW  Elec       q    Type
REMARK                         _______ _______ _______ _____ _____    ______ ____
ROOT
ATOM      1  C   UNL     1       1.395   4.605  20.353  0.00  0.00    +0.000 C 
ATOM      2  O   UNL     1       0.329   5.182  20.574  0.00  0.00    +0.000 OA
ATOM      3  N   UNL     1       2.498   5.277  19.864  0.00  0.00    +0.000 N 
ATOM      4  H   UNL     1       3.390   4.794  19.776  0.00  0.00    +0.000 HD
ENDROOT
BRANCH   1   6
ATOM      5  C   UNL     1       2.193   2.779  21.904  0.00  0.00    +0.000 C 
ATOM      6  C   UNL     1       1.558   3.101  20.551  0.00  0.00    +0.000 C 
BRANCH   6   7
ATOM      7  N   UNL     1       2.327   2.510  19.471  0.00  0.00    +0.000 N 
ATOM      8  C   UNL     1       3.458   1.755  19.547  0.00  0.00    +0.000 A 
ATOM      9  N   UNL     1       3.803   1.361  18.342  0.00  0.00    +0.000 NA
ATOM     10  C   UNL     1       2.838   1.910  17.549  0.00  0.00    +0.000 A 
ATOM     11  N   UNL     1       1.924   2.644  18.190  0.00  0.00    +0.000 NA
ENDBRANCH   6   7
ENDBRANCH   1   6
BRANCH   3  12
ATOM     12  C   UNL     1       2.470   6.716  19.656  0.00  0.00    +0.000 C 
BRANCH  12  13
ATOM     13  C   UNL     1       3.040   7.101  18.290  0.00  0.00    +0.000 C 
BRANCH  13  14
ATOM     14  C   UNL     1       3.392   5.860  17.469  0.00  0.00    +0.000 C 
BRANCH  14  15
ATOM     15  N   UNL     1       4.837   5.619  17.394  0.00  0.00    +0.000 N 
ATOM     16  C   UNL     1       5.431   4.704  18.366  0.00  0.00    +0.000 C 
ATOM     17  C   UNL     1       6.270   5.448  19.402  0.00  0.00    +0.000 C 
ATOM     18  C   UNL     1       7.683   5.761  18.911  0.00  0.00    +0.000 C 
ATOM     19  C   UNL     1       7.740   6.678  17.692  0.00  0.00    +0.000 C 
ATOM     20  C   UNL     1       7.083   6.086  16.449  0.00  0.00    +0.000 C 
ATOM     21  C   UNL     1       5.580   6.292  16.437  0.00  0.00    +0.000 C 
ATOM     22  O   UNL     1       5.064   7.046  15.607  0.00  0.00    +0.000 OA
ENDBRANCH  14  15
ENDBRANCH  13  14
ENDBRANCH  12  13
ENDBRANCH   3  12
TORSDOF 6
ENDMDL
MODEL 9
REMARK VINA RESULT:      -6.3      2.727      4.007
REMARK  Name = 
REMARK  7 active torsions:
REMARK  status: ('A' for Active; 'I' for Inactive)
REMARK    1  A    between atoms: C_1  and  C_2
REMARK    2  A    between atoms: C_2  and  C_3
REMARK    3  A    between atoms: C_2  and  N_17
REMARK    4  A    between atoms: N_5  and  C_6
REMARK    5  A    between atoms: C_6  and  C_7
REMARK    6  A    between atoms: C_7  and  C_8
REMARK    7  A    between atoms: C_8  and  N_9
REMARK                            x       y       z     vdW  Elec       q    Type
REMARK                         _______ _______ _______ _____ _____    ______ ____
ROOT
ATOM      1  C   UNL     1       7.102   4.682  14.371  0.00  0.00    +0.000 C 
ATOM      2  O   UNL     1       7.489   5.702  14.942  0.00  0.00    +0.000 OA
ATOM      3  N   UNL     1       6.350   3.725  15.023  0.00  0.00    +0.000 N 
ATOM      4  H   UNL     1       5.968   2.937  14.503  0.00  0.00    +0.000 HD
ENDROOT
BRANCH   1   6
ATOM      5  C   UNL     1       7.713   5.655  12.121  0.00  0.00    +0.000 C 
ATOM      6  C   UNL     1       7.471   4.375  12.922  0.00  0.00    +0.000 C 
BRANCH   6   7
ATOM      7  N   UNL     1       6.455   3.556  12.285  0.00  0.00    +0.000 N 
ATOM      8  C   UNL     1       6.598   2.345  11.679  0.00  0.00    +0.000 A 
ATOM      9  N   UNL     1       5.422   1.911  11.286  0.00  0.00    +0.000 NA
ATOM     10  C   UNL     1       4.578   2.908  11.678  0.00  0.00    +0.000 A 
ATOM     11  N   UNL     1       5.165   3.951  12.272  0.00  0.00    +0.000 NA
ENDBRANCH   6   7
ENDBRANCH   1   6
BRANCH   3  12
ATOM     12  C   UNL     1       5.917   3.916  16.397  0.00  0.00    +0.000 C 
BRANCH  12  13
ATOM     13  C   UNL     1       4.399   4.068  16.496  0.00  0.00    +0.000 C 
BRANCH  13  14
ATOM     14  C   UNL     1       4.017   5.140  17.517  0.00  0.00    +0.000 C 
BRANCH  14  15
ATOM     15  N   UNL     1       3.401   4.581  18.726  0.00  0.00    +0.000 N 
ATOM     16  C   UNL     1       3.391   3.128  18.879  0.00  0.00    +0.000 C 
ATOM     17  C   UNL     1       1.990   2.551  18.690  0.00  0.00    +0.000 C 
ATOM     18  C   UNL     1       1.133   2.639  19.953  0.00  0.00    +0.000 C 
ATOM     19  C   UNL     1       0.863   4.062  20.435  0.00  0.00    +0.000 C 
ATOM     20  C   UNL     1       2.122   4.822  20.837  0.00  0.00    +0.000 C 
ATOM     21  C   UNL     1       2.827   5.443  19.646  0.00  0.00    +0.000 C 
ATOM     22  O   UNL     1       2.862   6.670  19.516  0.00  0.00    +0.000 OA
ENDBRANCH  14  15
ENDBRANCH  13  14
ENDBRANCH  12  13
ENDBRANCH   3  12
TORSDOF 6
ENDMDL
