MODEL 1
REMARK VINA RESULT:      -7.5      0.000      0.000
REMARK  Name = 
REMARK  5 active torsions:
REMARK  status: ('A' for Active; 'I' for Inactive)
REMARK    1  A    between atoms: C_1  and  O_2
REMARK    2  A    between atoms: O_2  and  C_3
REMARK    3  A    between atoms: C_6  and  N_7
REMARK    4  A    between atoms: N_16  and  C_17
REMARK    5  A    between atoms: C_17  and  C_18
REMARK                            x       y       z     vdW  Elec       q    Type
REMARK                         _______ _______ _______ _____ _____    ______ ____
ROOT
ATOM      1  N   UNL     1       1.879   8.066  19.537  0.00  0.00    +0.000 N 
ATOM      2  C   UNL     1       2.221   6.703  19.722  0.00  0.00    +0.000 A 
ATOM      3  C   UNL     1       3.310   6.202  19.008  0.00  0.00    +0.000 A 
ATOM      4  C   UNL     1       3.671   4.883  19.291  0.00  0.00    +0.000 A 
ATOM      5  C   UNL     1       2.940   4.095  20.179  0.00  0.00    +0.000 A 
ATOM      6  C   UNL     1       1.840   4.658  20.821  0.00  0.00    +0.000 A 
ATOM      7  N   UNL     1       1.506   5.952  20.591  0.00  0.00    +0.000 NA
ATOM      8  N   UNL     1       3.472   2.831  20.267  0.00  0.00    +0.000 NA
ATOM      9  C   UNL     1       4.520   2.843  19.475  0.00  0.00    +0.000 A 
ATOM     10  N   UNL     1       4.704   4.069  18.894  0.00  0.00    +0.000 N 
ATOM     11  H   UNL     1       1.587   8.218  18.580  0.00  0.00    +0.000 HD
ENDROOT
BRANCH   1  15
ATOM     12  C   UNL     1      -0.283  10.353  22.363  0.00  0.00    +0.000 A 
ATOM     13  C   UNL     1       0.660   9.424  22.784  0.00  0.00    +0.000 A 
ATOM     14  C   UNL     1       1.383   8.684  21.850  0.00  0.00    +0.000 A 
ATOM     15  C   UNL     1       1.155   8.833  20.475  0.00  0.00    +0.000 A 
ATOM     16  C   UNL     1       0.228   9.793  20.057  0.00  0.00    +0.000 A 
ATOM     17  C   UNL     1      -0.497  10.541  20.996  0.00  0.00    +0.000 A 
BRANCH  12  19
ATOM     18  C   UNL     1      -1.799  12.056  22.985  0.00  0.00    +0.000 C 
ATOM     19  O   UNL     1      -0.957  10.981  23.373  0.00  0.00    +0.000 OA
ENDBRANCH  12  19
ENDBRANCH   1  15
BRANCH  10  20
ATOM     20  C   UNL     1       5.807   4.408  18.007  0.00  0.00    +0.000 C 
BRANCH  20  21
ATOM     21  C   UNL     1       5.444   4.295  16.553  0.00  0.00    +0.000 C 
ATOM     22  C   UNL     1       5.524   5.514  15.663  0.00  0.00    +0.000 C 
ATOM     23  C   UNL     1       6.507   4.394  15.486  0.00  0.00    +0.000 C 
ENDBRANCH  20  21
ENDBRANCH  10  20
TORSDOF 4
ENDMDL
MODEL 2
REMARK VINA RESULT:      -7.4      0.951      1.290
REMARK  Name = 
REMARK  5 active torsions:
REMARK  status: ('A' for Active; 'I' for Inactive)
REMARK    1  A    between atoms: C_1  and  O_2
REMARK    2  A    between atoms: O_2  and  C_3
REMARK    3  A    between atoms: C_6  and  N_7
REMARK    4  A    between atoms: N_16  and  C_17
REMARK    5  A    between atoms: C_17  and  C_18
REMARK                            x       y       z     vdW  Elec       q    Type
REMARK                         _______ _______ _______ _____ _____    ______ ____
ROOT
ATOM      1  N   UNL     1       1.895   8.105  19.654  0.00  0.00    +0.000 N 
ATOM      2  C   UNL     1       2.204   6.733  19.822  0.00  0.00    +0.000 A 
ATOM      3  C   UNL     1       3.329   6.233  19.166  0.00  0.00    +0.000 A 
ATOM      4  C   UNL     1       3.650   4.900  19.433  0.00  0.00    +0.000 A 
ATOM      5  C   UNL     1       2.851   4.101  20.249  0.00  0.00    +0.000 A 
ATOM      6  C   UNL     1       1.721   4.664  20.835  0.00  0.00    +0.000 A 
ATOM      7  N   UNL     1       1.422   5.970  20.620  0.00  0.00    +0.000 NA
ATOM      8  N   UNL     1       3.357   2.825  20.335  0.00  0.00    +0.000 NA
ATOM      9  C   UNL     1       4.454   2.842  19.613  0.00  0.00    +0.000 A 
ATOM     10  N   UNL     1       4.694   4.080  19.081  0.00  0.00    +0.000 N 
ATOM     11  H   UNL     1       1.669   8.289  18.685  0.00  0.00    +0.000 HD
ENDROOT
BRANCH   1  15
ATOM     12  C   UNL     1      -0.410  10.351  22.399  0.00  0.00    +0.000 A 
ATOM     13  C   UNL     1       0.554   9.460  22.854  0.00  0.00    +0.000 A 
ATOM     14  C   UNL     1       1.324   8.734  21.947  0.00  0.00    +0.000 A 
ATOM     15  C   UNL     1       1.123   8.859  20.566  0.00  0.00    +0.000 A 
ATOM     16  C   UNL     1       0.175   9.781  20.113  0.00  0.00    +0.000 A 
ATOM     17  C   UNL     1      -0.598  10.515  21.026  0.00  0.00    +0.000 A 
BRANCH  12  19
ATOM     18  C   UNL     1      -1.755  12.190  23.027  0.00  0.00    +0.000 C 
ATOM     19  O   UNL     1      -1.128  10.967  23.385  0.00  0.00    +0.000 OA
ENDBRANCH  12  19
ENDBRANCH   1  15
BRANCH  10  20
ATOM     20  C   UNL     1       5.858   4.425  18.277  0.00  0.00    +0.000 C 
BRANCH  20  21
ATOM     21  C   UNL     1       6.514   5.704  18.716  0.00  0.00    +0.000 C 
ATOM     22  C   UNL     1       7.976   5.703  19.098  0.00  0.00    +0.000 C 
ATOM     23  C   UNL     1       7.535   6.385  17.836  0.00  0.00    +0.000 C 
ENDBRANCH  20  21
ENDBRANCH  10  20
TORSDOF 4
ENDMDL
MODEL 3
REMARK VINA RESULT:      -7.3      0.223      1.048
REMARK  Name = 
REMARK  5 active torsions:
REMARK  status: ('A' for Active; 'I' for Inactive)
REMARK    1  A    between atoms: C_1  and  O_2
REMARK    2  A    between atoms: O_2  and  C_3
REMARK    3  A    between atoms: C_6  and  N_7
REMARK    4  A    between atoms: N_16  and  C_17
REMARK    5  A    between atoms: C_17  and  C_18
REMARK                            x       y       z     vdW  Elec       q    Type
REMARK                         _______ _______ _______ _____ _____    ______ ____
ROOT
ATOM      1  N   UNL     1       1.777   8.157  19.540  0.00  0.00    +0.000 N 
ATOM      2  C   UNL     1       2.160   6.804  19.711  0.00  0.00    +0.000 A 
ATOM      3  C   UNL     1       3.211   6.319  18.931  0.00  0.00    +0.000 A 
ATOM      4  C   UNL     1       3.617   5.010  19.197  0.00  0.00    +0.000 A 
ATOM      5  C   UNL     1       2.964   4.214  20.136  0.00  0.00    +0.000 A 
ATOM      6  C   UNL     1       1.896   4.759  20.846  0.00  0.00    +0.000 A 
ATOM      7  N   UNL     1       1.520   6.044  20.630  0.00  0.00    +0.000 NA
ATOM      8  N   UNL     1       3.527   2.962  20.198  0.00  0.00    +0.000 NA
ATOM      9  C   UNL     1       4.520   2.991  19.338  0.00  0.00    +0.000 A 
ATOM     10  N   UNL     1       4.639   4.215  18.739  0.00  0.00    +0.000 N 
ATOM     11  H   UNL     1       1.420   8.295  18.603  0.00  0.00    +0.000 HD
ENDROOT
BRANCH   1  15
ATOM     12  C   UNL     1      -0.257  10.443  22.461  0.00  0.00    +0.000 A 
ATOM     13  C   UNL     1      -0.489  10.662  21.109  0.00  0.00    +0.000 A 
ATOM     14  C   UNL     1       0.169   9.895  20.149  0.00  0.00    +0.000 A 
ATOM     15  C   UNL     1       1.100   8.916  20.520  0.00  0.00    +0.000 A 
ATOM     16  C   UNL     1       1.306   8.678  21.882  0.00  0.00    +0.000 A 
ATOM     17  C   UNL     1       0.641   9.446  22.849  0.00  0.00    +0.000 A 
BRANCH  12  19
ATOM     18  C   UNL     1      -2.114  11.869  22.779  0.00  0.00    +0.000 C 
ATOM     19  O   UNL     1      -0.928  11.288  23.300  0.00  0.00    +0.000 OA
ENDBRANCH  12  19
ENDBRANCH   1  15
BRANCH  10  20
ATOM     20  C   UNL     1       5.673   4.571  17.778  0.00  0.00    +0.000 C 
BRANCH  20  21
ATOM     21  C   UNL     1       5.238   4.383  16.352  0.00  0.00    +0.000 C 
ATOM     22  C   UNL     1       5.531   5.457  15.331  0.00  0.00    +0.000 C 
ATOM     23  C   UNL     1       6.256   4.145  15.263  0.00  0.00    +0.000 C 
ENDBRANCH  20  21
ENDBRANCH  10  20
TORSDOF 4
ENDMDL
MODEL 4
REMARK VINA RESULT:      -7.3      3.356      7.875
REMARK  Name = 
REMARK  5 active torsions:
REMARK  status: ('A' for Active; 'I' for Inactive)
REMARK    1  A    between atoms: C_1  and  O_2
REMARK    2  A    between atoms: O_2  and  C_3
REMARK    3  A    between atoms: C_6  and  N_7
REMARK    4  A    between atoms: N_16  and  C_17
REMARK    5  A    between atoms: C_17  and  C_18
REMARK                            x       y       z     vdW  Elec       q    Type
REMARK                         _______ _______ _______ _____ _____    ______ ____
ROOT
ATOM      1  N   UNL     1       2.526   7.757  17.854  0.00  0.00    +0.000 N 
ATOM      2  C   UNL     1       1.782   8.503  18.802  0.00  0.00    +0.000 A 
ATOM      3  C   UNL     1       1.008   9.565  18.333  0.00  0.00    +0.000 A 
ATOM      4  C   UNL     1       0.219  10.213  19.285  0.00  0.00    +0.000 A 
ATOM      5  C   UNL     1       0.260   9.864  20.634  0.00  0.00    +0.000 A 
ATOM      6  C   UNL     1       1.090   8.818  21.029  0.00  0.00    +0.000 A 
ATOM      7  N   UNL     1       1.828   8.150  20.107  0.00  0.00    +0.000 NA
ATOM      8  N   UNL     1      -0.580  10.662  21.374  0.00  0.00    +0.000 NA
ATOM      9  C   UNL     1      -1.146  11.465  20.503  0.00  0.00    +0.000 A 
ATOM     10  N   UNL     1      -0.726  11.208  19.226  0.00  0.00    +0.000 N 
ATOM     11  H   UNL     1       3.225   8.349  17.425  0.00  0.00    +0.000 HD
ENDROOT
BRANCH   1  15
ATOM     12  C   UNL     1       3.812   3.774  18.473  0.00  0.00    +0.000 A 
ATOM     13  C   UNL     1       2.470   4.053  18.245  0.00  0.00    +0.000 A 
ATOM     14  C   UNL     1       2.052   5.364  18.023  0.00  0.00    +0.000 A 
ATOM     15  C   UNL     1       2.961   6.429  18.060  0.00  0.00    +0.000 A 
ATOM     16  C   UNL     1       4.315   6.140  18.258  0.00  0.00    +0.000 A 
ATOM     17  C   UNL     1       4.737   4.820  18.476  0.00  0.00    +0.000 A 
BRANCH  12  19
ATOM     18  C   UNL     1       4.412   2.133  20.064  0.00  0.00    +0.000 C 
ATOM     19  O   UNL     1       4.088   2.459  18.720  0.00  0.00    +0.000 OA
ENDBRANCH  12  19
ENDBRANCH   1  15
BRANCH  10  20
ATOM     20  C   UNL     1      -1.210  11.898  18.039  0.00  0.00    +0.000 C 
BRANCH  20  21
ATOM     21  C   UNL     1      -2.533  11.372  17.555  0.00  0.00    +0.000 C 
ATOM     22  C   UNL     1      -2.664  10.861  16.140  0.00  0.00    +0.000 C 
ATOM     23  C   UNL     1      -2.723   9.898  17.289  0.00  0.00    +0.000 C 
ENDBRANCH  20  21
ENDBRANCH  10  20
TORSDOF 4
ENDMDL
MODEL 5
REMARK VINA RESULT:      -7.2      0.936      1.648
REMARK  Name = 
REMARK  5 active torsions:
REMARK  status: ('A' for Active; 'I' for Inactive)
REMARK    1  A    between atoms: C_1  and  O_2
REMARK    2  A    between atoms: O_2  and  C_3
REMARK    3  A    between atoms: C_6  and  N_7
REMARK    4  A    between atoms: N_16  and  C_17
REMARK    5  A    between atoms: C_17  and  C_18
REMARK                            x       y       z     vdW  Elec       q    Type
REMARK                         _______ _______ _______ _____ _____    ______ ____
ROOT
ATOM      1  N   UNL     1       1.870   8.138  19.731  0.00  0.00    +0.000 N 
ATOM      2  C   UNL     1       2.187   6.764  19.872  0.00  0.00    +0.000 A 
ATOM      3  C   UNL     1       3.298   6.278  19.182  0.00  0.00    +0.000 A 
ATOM      4  C   UNL     1       3.631   4.943  19.422  0.00  0.00    +0.000 A 
ATOM      5  C   UNL     1       2.856   4.129  20.246  0.00  0.00    +0.000 A 
ATOM      6  C   UNL     1       1.737   4.680  20.867  0.00  0.00    +0.000 A 
ATOM      7  N   UNL     1       1.429   5.988  20.679  0.00  0.00    +0.000 NA
ATOM      8  N   UNL     1       3.368   2.855  20.302  0.00  0.00    +0.000 NA
ATOM      9  C   UNL     1       4.446   2.887  19.553  0.00  0.00    +0.000 A 
ATOM     10  N   UNL     1       4.669   4.132  19.033  0.00  0.00    +0.000 N 
ATOM     11  H   UNL     1       1.619   8.334  18.770  0.00  0.00    +0.000 HD
ENDROOT
BRANCH   1  15
ATOM     12  C   UNL     1      -0.389  10.357  22.536  0.00  0.00    +0.000 A 
ATOM     13  C   UNL     1      -0.611  10.513  21.173  0.00  0.00    +0.000 A 
ATOM     14  C   UNL     1       0.123   9.767  20.252  0.00  0.00    +0.000 A 
ATOM     15  C   UNL     1       1.118   8.875  20.672  0.00  0.00    +0.000 A 
ATOM     16  C   UNL     1       1.315   8.699  22.045  0.00  0.00    +0.000 A 
ATOM     17  C   UNL     1       0.574   9.446  22.973  0.00  0.00    +0.000 A 
BRANCH  12  19
ATOM     18  C   UNL     1      -1.498  12.430  22.773  0.00  0.00    +0.000 C 
ATOM     19  O   UNL     1      -1.138  11.176  23.333  0.00  0.00    +0.000 OA
ENDBRANCH  12  19
ENDBRANCH   1  15
BRANCH  10  20
ATOM     20  C   UNL     1       5.811   4.493  18.205  0.00  0.00    +0.000 C 
BRANCH  20  21
ATOM     21  C   UNL     1       6.500   5.745  18.672  0.00  0.00    +0.000 C 
ATOM     22  C   UNL     1       7.960   5.697  19.056  0.00  0.00    +0.000 C 
ATOM     23  C   UNL     1       7.540   6.417  17.808  0.00  0.00    +0.000 C 
ENDBRANCH  20  21
ENDBRANCH  10  20
TORSDOF 4
ENDMDL
MODEL 6
REMARK VINA RESULT:      -7.2      2.644      4.231
REMARK  Name = 
REMARK  5 active torsions:
REMARK  status: ('A' for Active; 'I' for Inactive)
REMARK    1  A    between atoms: C_1  and  O_2
REMARK    2  A    between atoms: O_2  and  C_3
REMARK    3  A    between atoms: C_6  and  N_7
REMARK    4  A    between atoms: N_16  and  C_17
REMARK    5  A    between atoms: C_17  and  C_18
REMARK                            x       y       z     vdW  Elec       q    Type
REMARK                         _______ _______ _______ _____ _____    ______ ____
ROOT
ATOM      1  N   UNL     1       2.808   5.890  18.101  0.00  0.00    +0.000 N 
ATOM      2  C   UNL     1       4.072   5.868  17.461  0.00  0.00    +0.000 A 
ATOM      3  C   UNL     1       4.283   4.913  16.466  0.00  0.00    +0.000 A 
ATOM      4  C   UNL     1       5.506   4.987  15.797  0.00  0.00    +0.000 A 
ATOM      5  C   UNL     1       6.484   5.913  16.154  0.00  0.00    +0.000 A 
ATOM      6  C   UNL     1       6.212   6.807  17.186  0.00  0.00    +0.000 A 
ATOM      7  N   UNL     1       5.010   6.776  17.814  0.00  0.00    +0.000 NA
ATOM      8  N   UNL     1       7.606   5.771  15.373  0.00  0.00    +0.000 NA
ATOM      9  C   UNL     1       7.320   4.799  14.537  0.00  0.00    +0.000 A 
ATOM     10  N   UNL     1       6.052   4.320  14.727  0.00  0.00    +0.000 N 
ATOM     11  H   UNL     1       2.667   5.026  18.609  0.00  0.00    +0.000 HD
ENDROOT
BRANCH   1  15
ATOM     12  C   UNL     1       1.200   9.271  20.069  0.00  0.00    +0.000 A 
ATOM     13  C   UNL     1       1.493   8.115  20.782  0.00  0.00    +0.000 A 
ATOM     14  C   UNL     1       2.039   7.008  20.134  0.00  0.00    +0.000 A 
ATOM     15  C   UNL     1       2.272   7.022  18.753  0.00  0.00    +0.000 A 
ATOM     16  C   UNL     1       2.007   8.199  18.046  0.00  0.00    +0.000 A 
ATOM     17  C   UNL     1       1.461   9.315  18.698  0.00  0.00    +0.000 A 
BRANCH  12  19
ATOM     18  C   UNL     1       0.884  11.594  20.368  0.00  0.00    +0.000 C 
ATOM     19  O   UNL     1       0.628  10.268  20.808  0.00  0.00    +0.000 OA
ENDBRANCH  12  19
ENDBRANCH   1  15
BRANCH  10  20
ATOM     20  C   UNL     1       5.430   3.277  13.924  0.00  0.00    +0.000 C 
BRANCH  20  21
ATOM     21  C   UNL     1       5.618   3.486  12.448  0.00  0.00    +0.000 C 
ATOM     22  C   UNL     1       5.635   2.294  11.519  0.00  0.00    +0.000 C 
ATOM     23  C   UNL     1       4.477   3.248  11.487  0.00  0.00    +0.000 C 
ENDBRANCH  20  21
ENDBRANCH  10  20
TORSDOF 4
ENDMDL
MODEL 7
REMARK VINA RESULT:      -7.2      1.330      1.656
REMARK  Name = 
REMARK  5 active torsions:
REMARK  status: ('A' for Active; 'I' for Inactive)
REMARK    1  A    between atoms: C_1  and  O_2
REMARK    2  A    between atoms: O_2  and  C_3
REMARK    3  A    between atoms: C_6  and  N_7
REMARK    4  A    between atoms: N_16  and  C_17
REMARK    5  A    between atoms: C_17  and  C_18
REMARK                            x       y       z     vdW  Elec       q    Type
REMARK                         _______ _______ _______ _____ _____    ______ ____
ROOT
ATOM      1  N   UNL     1       1.704   8.586  19.002  0.00  0.00    +0.000 N 
ATOM      2  C   UNL     1       2.366   7.335  19.064  0.00  0.00    +0.000 A 
ATOM      3  C   UNL     1       3.375   7.085  18.134  0.00  0.00    +0.000 A 
ATOM      4  C   UNL     1       4.064   5.880  18.289  0.00  0.00    +0.000 A 
ATOM      5  C   UNL     1       3.714   4.954  19.270  0.00  0.00    +0.000 A 
ATOM      6  C   UNL     1       2.666   5.261  20.135  0.00  0.00    +0.000 A 
ATOM      7  N   UNL     1       2.018   6.448  20.024  0.00  0.00    +0.000 NA
ATOM      8  N   UNL     1       4.516   3.839  19.204  0.00  0.00    +0.000 NA
ATOM      9  C   UNL     1       5.357   4.081  18.225  0.00  0.00    +0.000 A 
ATOM     10  N   UNL     1       5.151   5.314  17.668  0.00  0.00    +0.000 N 
ATOM     11  H   UNL     1       1.203   8.666  18.127  0.00  0.00    +0.000 HD
ENDROOT
BRANCH   1  15
ATOM     12  C   UNL     1      -0.308  10.345  22.281  0.00  0.00    +0.000 A 
ATOM     13  C   UNL     1       0.634   9.345  22.489  0.00  0.00    +0.000 A 
ATOM     14  C   UNL     1       1.309   8.780  21.407  0.00  0.00    +0.000 A 
ATOM     15  C   UNL     1       1.030   9.178  20.093  0.00  0.00    +0.000 A 
ATOM     16  C   UNL     1       0.105  10.207  19.893  0.00  0.00    +0.000 A 
ATOM     17  C   UNL     1      -0.571  10.780  20.981  0.00  0.00    +0.000 A 
BRANCH  12  19
ATOM     18  C   UNL     1      -2.018  11.680  23.220  0.00  0.00    +0.000 C 
ATOM     19  O   UNL     1      -0.931  10.786  23.415  0.00  0.00    +0.000 OA
ENDBRANCH  12  19
ENDBRANCH   1  15
BRANCH  10  20
ATOM     20  C   UNL     1       5.955   5.886  16.598  0.00  0.00    +0.000 C 
BRANCH  20  21
ATOM     21  C   UNL     1       7.343   6.254  17.042  0.00  0.00    +0.000 C 
ATOM     22  C   UNL     1       7.632   7.661  17.509  0.00  0.00    +0.000 C 
ATOM     23  C   UNL     1       7.636   6.532  18.497  0.00  0.00    +0.000 C 
ENDBRANCH  20  21
ENDBRANCH  10  20
TORSDOF 4
ENDMDL
MODEL 8
REMARK VINA RESULT:      -7.2      2.640      4.346
REMARK  Name = 
REMARK  5 active torsions:
REMARK  status: ('A' for Active; 'I' for Inactive)
REMARK    1  A    between atoms: C_1  and  O_2
REMARK    2  A    between atoms: O_2  and  C_3
REMARK    3  A    between atoms: C_6  and  N_7
REMARK    4  A    between atoms: N_16  and  C_17
REMARK    5  A    between atoms: C_17  and  C_18
REMARK                            x       y       z     vdW  Elec       q    Type
REMARK                         _______ _______ _______ _____ _____    ______ ____
ROOT
ATOM      1  N   UNL     1       2.820   5.869  18.101  0.00  0.00    +0.000 N 
ATOM      2  C   UNL     1       4.082   5.852  17.457  0.00  0.00    +0.000 A 
ATOM      3  C   UNL     1       4.293   4.898  16.461  0.00  0.00    +0.000 A 
ATOM      4  C   UNL     1       5.514   4.977  15.788  0.00  0.00    +0.000 A 
ATOM      5  C   UNL     1       6.490   5.907  16.142  0.00  0.00    +0.000 A 
ATOM      6  C   UNL     1       6.218   6.800  17.176  0.00  0.00    +0.000 A 
ATOM      7  N   UNL     1       5.017   6.764  17.808  0.00  0.00    +0.000 NA
ATOM      8  N   UNL     1       7.609   5.769  15.357  0.00  0.00    +0.000 NA
ATOM      9  C   UNL     1       7.324   4.796  14.522  0.00  0.00    +0.000 A 
ATOM     10  N   UNL     1       6.059   4.313  14.716  0.00  0.00    +0.000 N 
ATOM     11  H   UNL     1       2.684   5.005  18.610  0.00  0.00    +0.000 HD
ENDROOT
BRANCH   1  15
ATOM     12  C   UNL     1       1.212   9.265  20.046  0.00  0.00    +0.000 A 
ATOM     13  C   UNL     1       1.435   9.279  18.674  0.00  0.00    +0.000 A 
ATOM     14  C   UNL     1       1.948   8.152  18.033  0.00  0.00    +0.000 A 
ATOM     15  C   UNL     1       2.282   6.999  18.755  0.00  0.00    +0.000 A 
ATOM     16  C   UNL     1       2.025   6.979  20.130  0.00  0.00    +0.000 A 
ATOM     17  C   UNL     1       1.504   8.111  20.775  0.00  0.00    +0.000 A 
BRANCH  12  19
ATOM     18  C   UNL     1      -0.458  10.936  19.999  0.00  0.00    +0.000 C 
ATOM     19  O   UNL     1       0.749  10.443  20.561  0.00  0.00    +0.000 OA
ENDBRANCH  12  19
ENDBRANCH   1  15
BRANCH  10  20
ATOM     20  C   UNL     1       5.438   3.268  13.915  0.00  0.00    +0.000 C 
BRANCH  20  21
ATOM     21  C   UNL     1       5.611   3.484  12.437  0.00  0.00    +0.000 C 
ATOM     22  C   UNL     1       5.659   2.294  11.507  0.00  0.00    +0.000 C 
ATOM     23  C   UNL     1       4.472   3.212  11.483  0.00  0.00    +0.000 C 
ENDBRANCH  20  21
ENDBRANCH  10  20
TORSDOF 4
ENDMDL
MODEL 9
REMARK VINA RESULT:      -7.2      3.329      7.828
REMARK  Name = 
REMARK  5 active torsions:
REMARK  status: ('A' for Active; 'I' for Inactive)
REMARK    1  A    between atoms: C_1  and  O_2
REMARK    2  A    between atoms: O_2  and  C_3
REMARK    3  A    between atoms: C_6  and  N_7
REMARK    4  A    between atoms: N_16  and  C_17
REMARK    5  A    between atoms: C_17  and  C_18
REMARK                            x       y       z     vdW  Elec       q    Type
REMARK                         _______ _______ _______ _____ _____    ______ ____
ROOT
ATOM      1  N   UNL     1       2.434   7.643  18.001  0.00  0.00    +0.000 N 
ATOM      2  C   UNL     1       1.723   8.425  18.944  0.00  0.00    +0.000 A 
ATOM      3  C   UNL     1       0.996   9.518  18.470  0.00  0.00    +0.000 A 
ATOM      4  C   UNL     1       0.236  10.204  19.419  0.00  0.00    +0.000 A 
ATOM      5  C   UNL     1       0.260   9.860  20.769  0.00  0.00    +0.000 A 
ATOM      6  C   UNL     1       1.043   8.780  21.169  0.00  0.00    +0.000 A 
ATOM      7  N   UNL     1       1.752   8.076  20.251  0.00  0.00    +0.000 NA
ATOM      8  N   UNL     1      -0.545  10.697  21.505  0.00  0.00    +0.000 NA
ATOM      9  C   UNL     1      -1.074  11.520  20.629  0.00  0.00    +0.000 A 
ATOM     10  N   UNL     1      -0.665  11.240  19.354  0.00  0.00    +0.000 N 
ATOM     11  H   UNL     1       3.159   8.202  17.570  0.00  0.00    +0.000 HD
ENDROOT
BRANCH   1  15
ATOM     12  C   UNL     1       3.579   3.621  18.639  0.00  0.00    +0.000 A 
ATOM     13  C   UNL     1       4.459   4.657  18.927  0.00  0.00    +0.000 A 
ATOM     14  C   UNL     1       4.072   5.982  18.733  0.00  0.00    +0.000 A 
ATOM     15  C   UNL     1       2.810   6.298  18.213  0.00  0.00    +0.000 A 
ATOM     16  C   UNL     1       1.918   5.254  17.956  0.00  0.00    +0.000 A 
ATOM     17  C   UNL     1       2.304   3.920  18.155  0.00  0.00    +0.000 A 
BRANCH  12  19
ATOM     18  C   UNL     1       4.494   2.055  20.154  0.00  0.00    +0.000 C 
ATOM     19  O   UNL     1       4.091   2.368  18.829  0.00  0.00    +0.000 OA
ENDBRANCH  12  19
ENDBRANCH   1  15
BRANCH  10  20
ATOM     20  C   UNL     1      -1.117  11.945  18.164  0.00  0.00    +0.000 C 
BRANCH  20  21
ATOM     21  C   UNL     1      -2.444  11.451  17.659  0.00  0.00    +0.000 C 
ATOM     22  C   UNL     1      -2.552  10.890  16.261  0.00  0.00    +0.000 C 
ATOM     23  C   UNL     1      -2.683   9.976  17.443  0.00  0.00    +0.000 C 
ENDBRANCH  20  21
ENDBRANCH  10  20
TORSDOF 4
ENDMDL
