MODEL 1
REMARK VINA RESULT:      -7.3      0.000      0.000
REMARK  Name = 
REMARK  10 active torsions:
REMARK  status: ('A' for Active; 'I' for Inactive)
REMARK    1  A    between atoms: C_1  and  C_2
REMARK    2  A    between atoms: C_2  and  C_3
REMARK    3  A    between atoms: C_3  and  O_4
REMARK    4  A    between atoms: O_4  and  C_5
REMARK    5  A    between atoms: C_8  and  C_9
REMARK    6  A    between atoms: C_12  and  C_13
REMARK    7  A    between atoms: C_13  and  C_14
REMARK    8  A    between atoms: N_15  and  N_16
REMARK    9  A    between atoms: N_16  and  C_17
REMARK   10  A    between atoms: C_17  and  N_18
REMARK                            x       y       z     vdW  Elec       q    Type
REMARK                         _______ _______ _______ _____ _____    ______ ____
ROOT
ATOM      1  C   UNL     1       2.690   7.394  18.333  0.00  0.00    +0.000 A 
ATOM      2  C   UNL     1       2.262   8.545  17.639  0.00  0.00    +0.000 A 
ATOM      3  C   UNL     1       1.491   9.535  18.252  0.00  0.00    +0.000 A 
ATOM      4  C   UNL     1       1.078   9.380  19.571  0.00  0.00    +0.000 A 
ATOM      5  C   UNL     1       1.467   8.234  20.275  0.00  0.00    +0.000 A 
ATOM      6  C   UNL     1       2.265   7.253  19.662  0.00  0.00    +0.000 A 
ENDROOT
BRANCH   1  10
ATOM      7  C   UNL     1       5.431   4.689  16.362  0.00  0.00    +0.000 A 
ATOM      8  C   UNL     1       5.619   6.068  16.334  0.00  0.00    +0.000 A 
ATOM      9  C   UNL     1       4.734   6.917  16.993  0.00  0.00    +0.000 A 
ATOM     10  C   UNL     1       3.607   6.434  17.678  0.00  0.00    +0.000 A 
ATOM     11  C   UNL     1       3.428   5.039  17.700  0.00  0.00    +0.000 A 
ATOM     12  C   UNL     1       4.330   4.176  17.048  0.00  0.00    +0.000 A 
BRANCH   7  13
ATOM     13  O   UNL     1       6.268   3.780  15.755  0.00  0.00    +0.000 OA
BRANCH  13  14
ATOM     14  C   UNL     1       6.669   4.141  14.427  0.00  0.00    +0.000 C 
BRANCH  14  16
ATOM     15  C   UNL     1       6.188   3.327  12.125  0.00  0.00    +0.000 C 
ATOM     16  C   UNL     1       5.572   3.835  13.421  0.00  0.00    +0.000 C 
ENDBRANCH  14  16
ENDBRANCH  13  14
ENDBRANCH   7  13
ENDBRANCH   1  10
BRANCH   4  17
ATOM     17  C   UNL     1       0.248  10.426  20.248  0.00  0.00    +0.000 C 
ATOM     18  C   UNL     1      -0.955  10.977  19.502  0.00  0.00    +0.000 C 
ATOM     19  N   UNL     1       0.586  10.810  21.447  0.00  0.00    +0.000 NA
BRANCH  19  20
ATOM     20  N   UNL     1      -0.181  11.764  22.052  0.00  0.00    +0.000 N 
ATOM     21  H   UNL     1      -0.000  12.751  21.910  0.00  0.00    +0.000 HD
BRANCH  20  22
ATOM     22  C   UNL     1      -1.221  11.437  22.875  0.00  0.00    +0.000 C 
ATOM     23  S   UNL     1      -2.504  12.459  23.118  0.00  0.00    +0.000 S 
BRANCH  22  24
ATOM     24  N   UNL     1      -1.140  10.229  23.476  0.00  0.00    +0.000 N 
ATOM     25  H   UNL     1      -1.975   9.891  23.937  0.00  0.00    +0.000 HD
ATOM     26  H   UNL     1      -0.335   9.633  23.351  0.00  0.00    +0.000 HD
ENDBRANCH  22  24
ENDBRANCH  20  22
ENDBRANCH  19  20
ENDBRANCH   4  17
TORSDOF 8
ENDMDL
MODEL 2
REMARK VINA RESULT:      -7.2      1.311      1.915
REMARK  Name = 
REMARK  10 active torsions:
REMARK  status: ('A' for Active; 'I' for Inactive)
REMARK    1  A    between atoms: C_1  and  C_2
REMARK    2  A    between atoms: C_2  and  C_3
REMARK    3  A    between atoms: C_3  and  O_4
REMARK    4  A    between atoms: O_4  and  C_5
REMARK    5  A    between atoms: C_8  and  C_9
REMARK    6  A    between atoms: C_12  and  C_13
REMARK    7  A    between atoms: C_13  and  C_14
REMARK    8  A    between atoms: N_15  and  N_16
REMARK    9  A    between atoms: N_16  and  C_17
REMARK   10  A    between atoms: C_17  and  N_18
REMARK                            x       y       z     vdW  Elec       q    Type
REMARK                         _______ _______ _______ _____ _____    ______ ____
ROOT
ATOM      1  C   UNL     1       2.577   7.307  18.473  0.00  0.00    +0.000 A 
ATOM      2  C   UNL     1       2.062   8.450  17.828  0.00  0.00    +0.000 A 
ATOM      3  C   UNL     1       1.313   9.411  18.510  0.00  0.00    +0.000 A 
ATOM      4  C   UNL     1       1.011   9.233  19.855  0.00  0.00    +0.000 A 
ATOM      5  C   UNL     1       1.488   8.093  20.515  0.00  0.00    +0.000 A 
ATOM      6  C   UNL     1       2.262   7.141  19.830  0.00  0.00    +0.000 A 
ENDROOT
BRANCH   1  10
ATOM      7  C   UNL     1       5.115   4.496  16.382  0.00  0.00    +0.000 A 
ATOM      8  C   UNL     1       4.005   4.076  17.111  0.00  0.00    +0.000 A 
ATOM      9  C   UNL     1       3.192   5.002  17.759  0.00  0.00    +0.000 A 
ATOM     10  C   UNL     1       3.466   6.379  17.738  0.00  0.00    +0.000 A 
ATOM     11  C   UNL     1       4.589   6.792  16.998  0.00  0.00    +0.000 A 
ATOM     12  C   UNL     1       5.405   5.859  16.328  0.00  0.00    +0.000 A 
BRANCH   7  13
ATOM     13  O   UNL     1       5.958   3.650  15.697  0.00  0.00    +0.000 OA
BRANCH  13  14
ATOM     14  C   UNL     1       6.513   4.211  14.500  0.00  0.00    +0.000 C 
BRANCH  14  16
ATOM     15  C   UNL     1       6.749   3.615  12.096  0.00  0.00    +0.000 C 
ATOM     16  C   UNL     1       5.782   3.707  13.268  0.00  0.00    +0.000 C 
ENDBRANCH  14  16
ENDBRANCH  13  14
ENDBRANCH   7  13
ENDBRANCH   1  10
BRANCH   4  17
ATOM     17  C   UNL     1       0.207  10.248  20.607  0.00  0.00    +0.000 C 
ATOM     18  C   UNL     1       0.060  10.076  22.109  0.00  0.00    +0.000 C 
ATOM     19  N   UNL     1      -0.324  11.237  19.943  0.00  0.00    +0.000 NA
BRANCH  19  20
ATOM     20  N   UNL     1      -1.055  12.156  20.642  0.00  0.00    +0.000 N 
ATOM     21  H   UNL     1      -0.795  12.427  21.583  0.00  0.00    +0.000 HD
BRANCH  20  22
ATOM     22  C   UNL     1      -2.165  12.748  20.111  0.00  0.00    +0.000 C 
ATOM     23  S   UNL     1      -3.022  13.905  20.933  0.00  0.00    +0.000 S 
BRANCH  22  24
ATOM     24  N   UNL     1      -2.518  12.335  18.873  0.00  0.00    +0.000 N 
ATOM     25  H   UNL     1      -1.851  11.759  18.376  0.00  0.00    +0.000 HD
ATOM     26  H   UNL     1      -3.452  12.475  18.519  0.00  0.00    +0.000 HD
ENDBRANCH  22  24
ENDBRANCH  20  22
ENDBRANCH  19  20
ENDBRANCH   4  17
TORSDOF 8
ENDMDL
MODEL 3
REMARK VINA RESULT:      -7.1      1.110      2.008
REMARK  Name = 
REMARK  10 active torsions:
REMARK  status: ('A' for Active; 'I' for Inactive)
REMARK    1  A    between atoms: C_1  and  C_2
REMARK    2  A    between atoms: C_2  and  C_3
REMARK    3  A    between atoms: C_3  and  O_4
REMARK    4  A    between atoms: O_4  and  C_5
REMARK    5  A    between atoms: C_8  and  C_9
REMARK    6  A    between atoms: C_12  and  C_13
REMARK    7  A    between atoms: C_13  and  C_14
REMARK    8  A    between atoms: N_15  and  N_16
REMARK    9  A    between atoms: N_16  and  C_17
REMARK   10  A    between atoms: C_17  and  N_18
REMARK                            x       y       z     vdW  Elec       q    Type
REMARK                         _______ _______ _______ _____ _____    ______ ____
ROOT
ATOM      1  C   UNL     1       3.008   7.118  18.222  0.00  0.00    +0.000 A 
ATOM      2  C   UNL     1       2.654   6.693  19.520  0.00  0.00    +0.000 A 
ATOM      3  C   UNL     1       1.787   7.430  20.329  0.00  0.00    +0.000 A 
ATOM      4  C   UNL     1       1.283   8.647  19.883  0.00  0.00    +0.000 A 
ATOM      5  C   UNL     1       1.638   9.105  18.609  0.00  0.00    +0.000 A 
ATOM      6  C   UNL     1       2.491   8.347  17.788  0.00  0.00    +0.000 A 
ENDROOT
BRANCH   1  10
ATOM      7  C   UNL     1       5.372   4.460  15.759  0.00  0.00    +0.000 A 
ATOM      8  C   UNL     1       4.429   3.975  16.662  0.00  0.00    +0.000 A 
ATOM      9  C   UNL     1       3.667   4.851  17.429  0.00  0.00    +0.000 A 
ATOM     10  C   UNL     1       3.832   6.244  17.356  0.00  0.00    +0.000 A 
ATOM     11  C   UNL     1       4.786   6.723  16.441  0.00  0.00    +0.000 A 
ATOM     12  C   UNL     1       5.549   5.840  15.652  0.00  0.00    +0.000 A 
BRANCH   7  13
ATOM     13  O   UNL     1       6.152   3.666  14.951  0.00  0.00    +0.000 OA
BRANCH  13  14
ATOM     14  C   UNL     1       6.349   4.182  13.627  0.00  0.00    +0.000 C 
BRANCH  14  16
ATOM     15  C   UNL     1       4.753   3.465  11.858  0.00  0.00    +0.000 C 
ATOM     16  C   UNL     1       6.051   3.125  12.577  0.00  0.00    +0.000 C 
ENDBRANCH  14  16
ENDBRANCH  13  14
ENDBRANCH   7  13
ENDBRANCH   1  10
BRANCH   4  17
ATOM     17  C   UNL     1       0.354   9.456  20.735  0.00  0.00    +0.000 C 
ATOM     18  C   UNL     1      -0.241   8.799  21.968  0.00  0.00    +0.000 C 
ATOM     19  N   UNL     1       0.105  10.687  20.387  0.00  0.00    +0.000 NA
BRANCH  19  20
ATOM     20  N   UNL     1      -0.744  11.414  21.174  0.00  0.00    +0.000 N 
ATOM     21  H   UNL     1      -1.691  11.101  21.354  0.00  0.00    +0.000 HD
BRANCH  20  22
ATOM     22  C   UNL     1      -0.361  12.591  21.750  0.00  0.00    +0.000 C 
ATOM     23  S   UNL     1      -1.211  13.276  22.999  0.00  0.00    +0.000 S 
BRANCH  22  24
ATOM     24  N   UNL     1       0.756  13.160  21.243  0.00  0.00    +0.000 N 
ATOM     25  H   UNL     1       1.621  12.648  21.356  0.00  0.00    +0.000 HD
ATOM     26  H   UNL     1       0.708  13.981  20.660  0.00  0.00    +0.000 HD
ENDBRANCH  22  24
ENDBRANCH  20  22
ENDBRANCH  19  20
ENDBRANCH   4  17
TORSDOF 8
ENDMDL
MODEL 4
REMARK VINA RESULT:      -7.1      1.336      1.680
REMARK  Name = 
REMARK  10 active torsions:
REMARK  status: ('A' for Active; 'I' for Inactive)
REMARK    1  A    between atoms: C_1  and  C_2
REMARK    2  A    between atoms: C_2  and  C_3
REMARK    3  A    between atoms: C_3  and  O_4
REMARK    4  A    between atoms: O_4  and  C_5
REMARK    5  A    between atoms: C_8  and  C_9
REMARK    6  A    between atoms: C_12  and  C_13
REMARK    7  A    between atoms: C_13  and  C_14
REMARK    8  A    between atoms: N_15  and  N_16
REMARK    9  A    between atoms: N_16  and  C_17
REMARK   10  A    between atoms: C_17  and  N_18
REMARK                            x       y       z     vdW  Elec       q    Type
REMARK                         _______ _______ _______ _____ _____    ______ ____
ROOT
ATOM      1  C   UNL     1       2.641   7.178  18.505  0.00  0.00    +0.000 A 
ATOM      2  C   UNL     1       2.189   8.360  17.883  0.00  0.00    +0.000 A 
ATOM      3  C   UNL     1       1.454   9.326  18.574  0.00  0.00    +0.000 A 
ATOM      4  C   UNL     1       1.103   9.116  19.902  0.00  0.00    +0.000 A 
ATOM      5  C   UNL     1       1.517   7.939  20.538  0.00  0.00    +0.000 A 
ATOM      6  C   UNL     1       2.278   6.981  19.846  0.00  0.00    +0.000 A 
ENDROOT
BRANCH   1  10
ATOM      7  C   UNL     1       5.269   4.547  16.294  0.00  0.00    +0.000 A 
ATOM      8  C   UNL     1       5.476   5.924  16.333  0.00  0.00    +0.000 A 
ATOM      9  C   UNL     1       4.628   6.747  17.068  0.00  0.00    +0.000 A 
ATOM     10  C   UNL     1       3.520   6.242  17.767  0.00  0.00    +0.000 A 
ATOM     11  C   UNL     1       3.321   4.851  17.722  0.00  0.00    +0.000 A 
ATOM     12  C   UNL     1       4.186   4.012  16.991  0.00  0.00    +0.000 A 
BRANCH   7  13
ATOM     13  O   UNL     1       6.069   3.661  15.609  0.00  0.00    +0.000 OA
BRANCH  13  14
ATOM     14  C   UNL     1       6.471   4.111  14.308  0.00  0.00    +0.000 C 
BRANCH  14  16
ATOM     15  C   UNL     1       6.002   3.197  12.042  0.00  0.00    +0.000 C 
ATOM     16  C   UNL     1       5.388   3.842  13.277  0.00  0.00    +0.000 C 
ENDBRANCH  14  16
ENDBRANCH  13  14
ENDBRANCH   7  13
ENDBRANCH   1  10
BRANCH   4  17
ATOM     17  C   UNL     1       0.313  10.136  20.662  0.00  0.00    +0.000 C 
ATOM     18  C   UNL     1       0.191   9.971  22.167  0.00  0.00    +0.000 C 
ATOM     19  N   UNL     1      -0.228  11.122  20.003  0.00  0.00    +0.000 NA
BRANCH  19  20
ATOM     20  N   UNL     1      -0.946  12.045  20.709  0.00  0.00    +0.000 N 
ATOM     21  H   UNL     1      -0.947  12.046  21.723  0.00  0.00    +0.000 HD
BRANCH  20  22
ATOM     22  C   UNL     1      -1.694  13.004  20.088  0.00  0.00    +0.000 C 
ATOM     23  S   UNL     1      -1.886  14.521  20.730  0.00  0.00    +0.000 S 
BRANCH  22  24
ATOM     24  N   UNL     1      -2.265  12.640  18.918  0.00  0.00    +0.000 N 
ATOM     25  H   UNL     1      -2.182  13.290  18.147  0.00  0.00    +0.000 HD
ATOM     26  H   UNL     1      -2.630  11.710  18.779  0.00  0.00    +0.000 HD
ENDBRANCH  22  24
ENDBRANCH  20  22
ENDBRANCH  19  20
ENDBRANCH   4  17
TORSDOF 8
ENDMDL
MODEL 5
REMARK VINA RESULT:      -7.1      1.380      1.957
REMARK  Name = 
REMARK  10 active torsions:
REMARK  status: ('A' for Active; 'I' for Inactive)
REMARK    1  A    between atoms: C_1  and  C_2
REMARK    2  A    between atoms: C_2  and  C_3
REMARK    3  A    between atoms: C_3  and  O_4
REMARK    4  A    between atoms: O_4  and  C_5
REMARK    5  A    between atoms: C_8  and  C_9
REMARK    6  A    between atoms: C_12  and  C_13
REMARK    7  A    between atoms: C_13  and  C_14
REMARK    8  A    between atoms: N_15  and  N_16
REMARK    9  A    between atoms: N_16  and  C_17
REMARK   10  A    between atoms: C_17  and  N_18
REMARK                            x       y       z     vdW  Elec       q    Type
REMARK                         _______ _______ _______ _____ _____    ______ ____
ROOT
ATOM      1  C   UNL     1       2.619   7.396  18.571  0.00  0.00    +0.000 A 
ATOM      2  C   UNL     1       2.260   7.138  19.911  0.00  0.00    +0.000 A 
ATOM      3  C   UNL     1       1.415   7.988  20.627  0.00  0.00    +0.000 A 
ATOM      4  C   UNL     1       0.941   9.156  20.041  0.00  0.00    +0.000 A 
ATOM      5  C   UNL     1       1.303   9.450  18.720  0.00  0.00    +0.000 A 
ATOM      6  C   UNL     1       2.133   8.579  17.994  0.00  0.00    +0.000 A 
ENDROOT
BRANCH   1  10
ATOM      7  C   UNL     1       5.008   4.598  16.296  0.00  0.00    +0.000 A 
ATOM      8  C   UNL     1       5.239   5.970  16.240  0.00  0.00    +0.000 A 
ATOM      9  C   UNL     1       4.469   6.849  16.997  0.00  0.00    +0.000 A 
ATOM     10  C   UNL     1       3.417   6.404  17.815  0.00  0.00    +0.000 A 
ATOM     11  C   UNL     1       3.194   5.017  17.864  0.00  0.00    +0.000 A 
ATOM     12  C   UNL     1       3.981   4.123  17.111  0.00  0.00    +0.000 A 
BRANCH   7  13
ATOM     13  O   UNL     1       5.734   3.660  15.596  0.00  0.00    +0.000 OA
BRANCH  13  14
ATOM     14  C   UNL     1       6.477   4.192  14.491  0.00  0.00    +0.000 C 
BRANCH  14  16
ATOM     15  C   UNL     1       6.962   3.937  12.064  0.00  0.00    +0.000 C 
ATOM     16  C   UNL     1       5.953   3.657  13.169  0.00  0.00    +0.000 C 
ENDBRANCH  14  16
ENDBRANCH  13  14
ENDBRANCH   7  13
ENDBRANCH   1  10
BRANCH   4  17
ATOM     17  C   UNL     1       0.037  10.084  20.791  0.00  0.00    +0.000 C 
ATOM     18  C   UNL     1      -0.184   9.828  22.271  0.00  0.00    +0.000 C 
ATOM     19  N   UNL     1      -0.513  11.075  20.145  0.00  0.00    +0.000 NA
BRANCH  19  20
ATOM     20  N   UNL     1      -1.334  11.915  20.842  0.00  0.00    +0.000 N 
ATOM     21  H   UNL     1      -1.427  11.843  21.849  0.00  0.00    +0.000 HD
BRANCH  20  22
ATOM     22  C   UNL     1      -2.069  12.884  20.221  0.00  0.00    +0.000 C 
ATOM     23  S   UNL     1      -2.200  14.418  20.837  0.00  0.00    +0.000 S 
BRANCH  22  24
ATOM     24  N   UNL     1      -2.679  12.515  19.072  0.00  0.00    +0.000 N 
ATOM     25  H   UNL     1      -3.033  11.569  19.025  0.00  0.00    +0.000 HD
ATOM     26  H   UNL     1      -2.896  13.189  18.353  0.00  0.00    +0.000 HD
ENDBRANCH  22  24
ENDBRANCH  20  22
ENDBRANCH  19  20
ENDBRANCH   4  17
TORSDOF 8
ENDMDL
MODEL 6
REMARK VINA RESULT:      -7.1      5.514      9.884
REMARK  Name = 
REMARK  10 active torsions:
REMARK  status: ('A' for Active; 'I' for Inactive)
REMARK    1  A    between atoms: C_1  and  C_2
REMARK    2  A    between atoms: C_2  and  C_3
REMARK    3  A    between atoms: C_3  and  O_4
REMARK    4  A    between atoms: O_4  and  C_5
REMARK    5  A    between atoms: C_8  and  C_9
REMARK    6  A    between atoms: C_12  and  C_13
REMARK    7  A    between atoms: C_13  and  C_14
REMARK    8  A    between atoms: N_15  and  N_16
REMARK    9  A    between atoms: N_16  and  C_17
REMARK   10  A    between atoms: C_17  and  N_18
REMARK                            x       y       z     vdW  Elec       q    Type
REMARK                         _______ _______ _______ _____ _____    ______ ____
ROOT
ATOM      1  C   UNL     1       1.363   8.137  20.362  0.00  0.00    +0.000 A 
ATOM      2  C   UNL     1       1.518   6.842  20.899  0.00  0.00    +0.000 A 
ATOM      3  C   UNL     1       2.256   5.853  20.245  0.00  0.00    +0.000 A 
ATOM      4  C   UNL     1       2.823   6.113  19.003  0.00  0.00    +0.000 A 
ATOM      5  C   UNL     1       2.663   7.383  18.434  0.00  0.00    +0.000 A 
ATOM      6  C   UNL     1       1.941   8.384  19.108  0.00  0.00    +0.000 A 
ENDROOT
BRANCH   1  10
ATOM      7  C   UNL     1      -0.590  11.296  22.580  0.00  0.00    +0.000 A 
ATOM      8  C   UNL     1       0.066  11.546  21.378  0.00  0.00    +0.000 A 
ATOM      9  C   UNL     1       0.670  10.509  20.673  0.00  0.00    +0.000 A 
ATOM     10  C   UNL     1       0.677   9.187  21.149  0.00  0.00    +0.000 A 
ATOM     11  C   UNL     1       0.010   8.947  22.364  0.00  0.00    +0.000 A 
ATOM     12  C   UNL     1      -0.615   9.992  23.073  0.00  0.00    +0.000 A 
BRANCH   7  13
ATOM     13  O   UNL     1      -1.229  12.259  23.329  0.00  0.00    +0.000 OA
BRANCH  13  14
ATOM     14  C   UNL     1      -2.157  13.064  22.590  0.00  0.00    +0.000 C 
BRANCH  14  16
ATOM     15  C   UNL     1      -3.899  12.415  24.245  0.00  0.00    +0.000 C 
ATOM     16  C   UNL     1      -3.580  12.558  22.763  0.00  0.00    +0.000 C 
ENDBRANCH  14  16
ENDBRANCH  13  14
ENDBRANCH   7  13
ENDBRANCH   1  10
BRANCH   4  17
ATOM     17  C   UNL     1       3.614   5.067  18.281  0.00  0.00    +0.000 C 
ATOM     18  C   UNL     1       2.868   4.100  17.380  0.00  0.00    +0.000 C 
ATOM     19  N   UNL     1       4.907   5.038  18.451  0.00  0.00    +0.000 NA
BRANCH  19  20
ATOM     20  N   UNL     1       5.617   4.078  17.786  0.00  0.00    +0.000 N 
ATOM     21  H   UNL     1       5.338   3.104  17.815  0.00  0.00    +0.000 HD
BRANCH  20  22
ATOM     22  C   UNL     1       6.730   4.382  17.056  0.00  0.00    +0.000 C 
ATOM     23  S   UNL     1       6.644   4.798  15.453  0.00  0.00    +0.000 S 
BRANCH  22  24
ATOM     24  N   UNL     1       7.905   4.325  17.723  0.00  0.00    +0.000 N 
ATOM     25  H   UNL     1       7.857   4.180  18.723  0.00  0.00    +0.000 HD
ATOM     26  H   UNL     1       8.785   4.287  17.232  0.00  0.00    +0.000 HD
ENDBRANCH  22  24
ENDBRANCH  20  22
ENDBRANCH  19  20
ENDBRANCH   4  17
TORSDOF 8
ENDMDL
MODEL 7
REMARK VINA RESULT:      -7.1      1.368      2.106
REMARK  Name = 
REMARK  10 active torsions:
REMARK  status: ('A' for Active; 'I' for Inactive)
REMARK    1  A    between atoms: C_1  and  C_2
REMARK    2  A    between atoms: C_2  and  C_3
REMARK    3  A    between atoms: C_3  and  O_4
REMARK    4  A    between atoms: O_4  and  C_5
REMARK    5  A    between atoms: C_8  and  C_9
REMARK    6  A    between atoms: C_12  and  C_13
REMARK    7  A    between atoms: C_13  and  C_14
REMARK    8  A    between atoms: N_15  and  N_16
REMARK    9  A    between atoms: N_16  and  C_17
REMARK   10  A    between atoms: C_17  and  N_18
REMARK                            x       y       z     vdW  Elec       q    Type
REMARK                         _______ _______ _______ _____ _____    ______ ____
ROOT
ATOM      1  C   UNL     1       3.026   7.052  18.224  0.00  0.00    +0.000 A 
ATOM      2  C   UNL     1       2.679   6.613  19.518  0.00  0.00    +0.000 A 
ATOM      3  C   UNL     1       1.830   7.350  20.347  0.00  0.00    +0.000 A 
ATOM      4  C   UNL     1       1.340   8.580  19.925  0.00  0.00    +0.000 A 
ATOM      5  C   UNL     1       1.689   9.052  18.654  0.00  0.00    +0.000 A 
ATOM      6  C   UNL     1       2.523   8.295  17.813  0.00  0.00    +0.000 A 
ENDROOT
BRANCH   1  10
ATOM      7  C   UNL     1       5.330   4.398  15.701  0.00  0.00    +0.000 A 
ATOM      8  C   UNL     1       4.425   3.911  16.640  0.00  0.00    +0.000 A 
ATOM      9  C   UNL     1       3.680   4.785  17.426  0.00  0.00    +0.000 A 
ATOM     10  C   UNL     1       3.828   6.179  17.336  0.00  0.00    +0.000 A 
ATOM     11  C   UNL     1       4.745   6.660  16.384  0.00  0.00    +0.000 A 
ATOM     12  C   UNL     1       5.489   5.778  15.576  0.00  0.00    +0.000 A 
BRANCH   7  13
ATOM     13  O   UNL     1       6.090   3.605  14.872  0.00  0.00    +0.000 OA
BRANCH  13  14
ATOM     14  C   UNL     1       6.569   4.268  13.694  0.00  0.00    +0.000 C 
BRANCH  14  16
ATOM     15  C   UNL     1       4.870   3.447  12.072  0.00  0.00    +0.000 C 
ATOM     16  C   UNL     1       6.343   3.417  12.455  0.00  0.00    +0.000 C 
ENDBRANCH  14  16
ENDBRANCH  13  14
ENDBRANCH   7  13
ENDBRANCH   1  10
BRANCH   4  17
ATOM     17  C   UNL     1       0.432   9.390  20.798  0.00  0.00    +0.000 C 
ATOM     18  C   UNL     1      -0.321   8.674  21.906  0.00  0.00    +0.000 C 
ATOM     19  N   UNL     1       0.335  10.671  20.577  0.00  0.00    +0.000 NA
BRANCH  19  20
ATOM     20  N   UNL     1      -0.497  11.397  21.381  0.00  0.00    +0.000 N 
ATOM     21  H   UNL     1      -0.529  11.240  22.382  0.00  0.00    +0.000 HD
BRANCH  20  22
ATOM     22  C   UNL     1      -1.322  12.362  20.880  0.00  0.00    +0.000 C 
ATOM     23  S   UNL     1      -1.053  13.069  19.404  0.00  0.00    +0.000 S 
BRANCH  22  24
ATOM     24  N   UNL     1      -2.373  12.703  21.659  0.00  0.00    +0.000 N 
ATOM     25  H   UNL     1      -2.761  11.976  22.246  0.00  0.00    +0.000 HD
ATOM     26  H   UNL     1      -2.663  13.664  21.759  0.00  0.00    +0.000 HD
ENDBRANCH  22  24
ENDBRANCH  20  22
ENDBRANCH  19  20
ENDBRANCH   4  17
TORSDOF 8
ENDMDL
MODEL 8
REMARK VINA RESULT:      -7.1      1.324      1.802
REMARK  Name = 
REMARK  10 active torsions:
REMARK  status: ('A' for Active; 'I' for Inactive)
REMARK    1  A    between atoms: C_1  and  C_2
REMARK    2  A    between atoms: C_2  and  C_3
REMARK    3  A    between atoms: C_3  and  O_4
REMARK    4  A    between atoms: O_4  and  C_5
REMARK    5  A    between atoms: C_8  and  C_9
REMARK    6  A    between atoms: C_12  and  C_13
REMARK    7  A    between atoms: C_13  and  C_14
REMARK    8  A    between atoms: N_15  and  N_16
REMARK    9  A    between atoms: N_16  and  C_17
REMARK   10  A    between atoms: C_17  and  N_18
REMARK                            x       y       z     vdW  Elec       q    Type
REMARK                         _______ _______ _______ _____ _____    ______ ____
ROOT
ATOM      1  C   UNL     1       3.005   7.011  18.279  0.00  0.00    +0.000 A 
ATOM      2  C   UNL     1       2.659   6.598  19.583  0.00  0.00    +0.000 A 
ATOM      3  C   UNL     1       1.828   7.362  20.405  0.00  0.00    +0.000 A 
ATOM      4  C   UNL     1       1.356   8.593  19.967  0.00  0.00    +0.000 A 
ATOM      5  C   UNL     1       1.705   9.040  18.686  0.00  0.00    +0.000 A 
ATOM      6  C   UNL     1       2.521   8.256  17.852  0.00  0.00    +0.000 A 
ENDROOT
BRANCH   1  10
ATOM      7  C   UNL     1       5.330   4.488  15.643  0.00  0.00    +0.000 A 
ATOM      8  C   UNL     1       5.417   5.877  15.590  0.00  0.00    +0.000 A 
ATOM      9  C   UNL     1       4.673   6.667  16.463  0.00  0.00    +0.000 A 
ATOM     10  C   UNL     1       3.788   6.112  17.401  0.00  0.00    +0.000 A 
ATOM     11  C   UNL     1       3.708   4.708  17.446  0.00  0.00    +0.000 A 
ATOM     12  C   UNL     1       4.471   3.905  16.574  0.00  0.00    +0.000 A 
BRANCH   7  13
ATOM     13  O   UNL     1       6.043   3.635  14.832  0.00  0.00    +0.000 OA
BRANCH  13  14
ATOM     14  C   UNL     1       6.694   4.276  13.726  0.00  0.00    +0.000 C 
BRANCH  14  16
ATOM     15  C   UNL     1       4.943   3.425  12.177  0.00  0.00    +0.000 C 
ATOM     16  C   UNL     1       6.441   3.524  12.431  0.00  0.00    +0.000 C 
ENDBRANCH  14  16
ENDBRANCH  13  14
ENDBRANCH   7  13
ENDBRANCH   1  10
BRANCH   4  17
ATOM     17  C   UNL     1       0.467   9.432  20.832  0.00  0.00    +0.000 C 
ATOM     18  C   UNL     1      -0.379   8.730  21.880  0.00  0.00    +0.000 C 
ATOM     19  N   UNL     1       0.464  10.723  20.656  0.00  0.00    +0.000 NA
BRANCH  19  20
ATOM     20  N   UNL     1      -0.351  11.476  21.453  0.00  0.00    +0.000 N 
ATOM     21  H   UNL     1      -0.146  11.608  22.437  0.00  0.00    +0.000 HD
BRANCH  20  22
ATOM     22  C   UNL     1      -1.476  12.079  20.968  0.00  0.00    +0.000 C 
ATOM     23  S   UNL     1      -1.717  12.311  19.344  0.00  0.00    +0.000 S 
BRANCH  22  24
ATOM     24  N   UNL     1      -2.380  12.473  21.893  0.00  0.00    +0.000 N 
ATOM     25  H   UNL     1      -2.173  13.322  22.402  0.00  0.00    +0.000 HD
ATOM     26  H   UNL     1      -3.279  12.023  21.972  0.00  0.00    +0.000 HD
ENDBRANCH  22  24
ENDBRANCH  20  22
ENDBRANCH  19  20
ENDBRANCH   4  17
TORSDOF 8
ENDMDL
MODEL 9
REMARK VINA RESULT:      -7.1      1.395      1.885
REMARK  Name = 
REMARK  10 active torsions:
REMARK  status: ('A' for Active; 'I' for Inactive)
REMARK    1  A    between atoms: C_1  and  C_2
REMARK    2  A    between atoms: C_2  and  C_3
REMARK    3  A    between atoms: C_3  and  O_4
REMARK    4  A    between atoms: O_4  and  C_5
REMARK    5  A    between atoms: C_8  and  C_9
REMARK    6  A    between atoms: C_12  and  C_13
REMARK    7  A    between atoms: C_13  and  C_14
REMARK    8  A    between atoms: N_15  and  N_16
REMARK    9  A    between atoms: N_16  and  C_17
REMARK   10  A    between atoms: C_17  and  N_18
REMARK                            x       y       z     vdW  Elec       q    Type
REMARK                         _______ _______ _______ _____ _____    ______ ____
ROOT
ATOM      1  C   UNL     1       2.917   6.865  18.298  0.00  0.00    +0.000 A 
ATOM      2  C   UNL     1       2.460   8.131  17.877  0.00  0.00    +0.000 A 
ATOM      3  C   UNL     1       1.741   8.978  18.723  0.00  0.00    +0.000 A 
ATOM      4  C   UNL     1       1.410   8.562  20.007  0.00  0.00    +0.000 A 
ATOM      5  C   UNL     1       1.828   7.298  20.443  0.00  0.00    +0.000 A 
ATOM      6  C   UNL     1       2.574   6.460  19.596  0.00  0.00    +0.000 A 
ENDROOT
BRANCH   1  10
ATOM      7  C   UNL     1       5.397   4.391  15.759  0.00  0.00    +0.000 A 
ATOM      8  C   UNL     1       4.470   3.837  16.639  0.00  0.00    +0.000 A 
ATOM      9  C   UNL     1       3.669   4.655  17.431  0.00  0.00    +0.000 A 
ATOM     10  C   UNL     1       3.780   6.055  17.407  0.00  0.00    +0.000 A 
ATOM     11  C   UNL     1       4.719   6.603  16.516  0.00  0.00    +0.000 A 
ATOM     12  C   UNL     1       5.520   5.779  15.701  0.00  0.00    +0.000 A 
BRANCH   7  13
ATOM     13  O   UNL     1       6.213   3.656  14.929  0.00  0.00    +0.000 OA
BRANCH  13  14
ATOM     14  C   UNL     1       6.359   4.202  13.611  0.00  0.00    +0.000 C 
BRANCH  14  16
ATOM     15  C   UNL     1       4.754   3.461  11.860  0.00  0.00    +0.000 C 
ATOM     16  C   UNL     1       6.077   3.153  12.549  0.00  0.00    +0.000 C 
ENDBRANCH  14  16
ENDBRANCH  13  14
ENDBRANCH   7  13
ENDBRANCH   1  10
BRANCH   4  17
ATOM     17  C   UNL     1       0.636   9.451  20.931  0.00  0.00    +0.000 C 
ATOM     18  C   UNL     1       0.809   9.253  22.426  0.00  0.00    +0.000 C 
ATOM     19  N   UNL     1      -0.143  10.359  20.413  0.00  0.00    +0.000 NA
BRANCH  19  20
ATOM     20  N   UNL     1      -0.843  11.163  21.268  0.00  0.00    +0.000 N 
ATOM     21  H   UNL     1      -1.657  10.819  21.765  0.00  0.00    +0.000 HD
BRANCH  20  22
ATOM     22  C   UNL     1      -0.485  12.461  21.490  0.00  0.00    +0.000 C 
ATOM     23  S   UNL     1       0.381  13.337  20.380  0.00  0.00    +0.000 S 
BRANCH  22  24
ATOM     24  N   UNL     1      -0.883  12.989  22.670  0.00  0.00    +0.000 N 
ATOM     25  H   UNL     1      -0.207  12.985  23.423  0.00  0.00    +0.000 HD
ATOM     26  H   UNL     1      -1.755  13.489  22.754  0.00  0.00    +0.000 HD
ENDBRANCH  22  24
ENDBRANCH  20  22
ENDBRANCH  19  20
ENDBRANCH   4  17
TORSDOF 8
ENDMDL
