MODEL 1
REMARK VINA RESULT:      -6.7      0.000      0.000
REMARK  Name = 
REMARK  4 active torsions:
REMARK  status: ('A' for Active; 'I' for Inactive)
REMARK    1  A    between atoms: C_1  and  N_2
REMARK    2  A    between atoms: C_8  and  S_9
REMARK    3  A    between atoms: S_9  and  N_12
REMARK    4  A    between atoms: N_12  and  C_13
REMARK                            x       y       z     vdW  Elec       q    Type
REMARK                         _______ _______ _______ _____ _____    ______ ____
ROOT
ATOM      1  S   UNL     1       7.197   5.654  17.224  0.00  0.00    +0.000 S 
ATOM      2  O   UNL     1       7.676   6.900  16.669  0.00  0.00    +0.000 OA
ATOM      3  O   UNL     1       7.793   5.072  18.412  0.00  0.00    +0.000 OA
ENDROOT
BRANCH   1  11
ATOM      4  C   UNL     1       3.439   1.544  18.390  0.00  0.00    +0.000 C 
ATOM      5  N   UNL     1       3.649   2.965  18.245  0.00  0.00    +0.000 N 
ATOM      6  N   UNL     1       2.616   3.815  18.314  0.00  0.00    +0.000 NA
ATOM      7  C   UNL     1       3.190   4.994  18.040  0.00  0.00    +0.000 A 
ATOM      8  C   UNL     1       2.591   6.262  17.936  0.00  0.00    +0.000 A 
ATOM      9  C   UNL     1       3.475   7.308  17.612  0.00  0.00    +0.000 A 
ATOM     10  C   UNL     1       4.866   7.111  17.406  0.00  0.00    +0.000 A 
ATOM     11  C   UNL     1       5.487   5.848  17.521  0.00  0.00    +0.000 A 
ATOM     12  C   UNL     1       4.633   4.778  17.846  0.00  0.00    +0.000 A 
ATOM     13  N   UNL     1       4.884   3.469  18.054  0.00  0.00    +0.000 NA
ENDBRANCH   1  11
BRANCH   1  14
ATOM     14  N   UNL     1       7.283   4.495  16.008  0.00  0.00    +0.000 NA
ATOM     15  H   UNL     1       8.262   4.185  15.946  0.00  0.00    +0.000 HD
BRANCH  14  16
ATOM     16  C   UNL     1       6.613   4.694  14.703  0.00  0.00    +0.000 C 
ATOM     17  C   UNL     1       7.733   5.012  13.701  0.00  0.00    +0.000 C 
ATOM     18  C   UNL     1       7.134   4.921  12.314  0.00  0.00    +0.000 C 
ATOM     19  S   UNL     1       6.052   3.513  12.390  0.00  0.00    +0.000 S 
ATOM     20  O   UNL     1       6.784   2.355  11.915  0.00  0.00    +0.000 OA
ATOM     21  O   UNL     1       4.776   3.902  11.833  0.00  0.00    +0.000 OA
ATOM     22  C   UNL     1       5.922   3.429  14.179  0.00  0.00    +0.000 C 
ENDBRANCH  14  16
ENDBRANCH   1  14
TORSDOF 3
ENDMDL
MODEL 2
REMARK VINA RESULT:      -6.6      4.278      7.104
REMARK  Name = 
REMARK  4 active torsions:
REMARK  status: ('A' for Active; 'I' for Inactive)
REMARK    1  A    between atoms: C_1  and  N_2
REMARK    2  A    between atoms: C_8  and  S_9
REMARK    3  A    between atoms: S_9  and  N_12
REMARK    4  A    between atoms: N_12  and  C_13
REMARK                            x       y       z     vdW  Elec       q    Type
REMARK                         _______ _______ _______ _____ _____    ______ ____
ROOT
ATOM      1  S   UNL     1       3.224   5.561  18.404  0.00  0.00    +0.000 S 
ATOM      2  O   UNL     1       2.035   5.041  17.768  0.00  0.00    +0.000 OA
ATOM      3  O   UNL     1       3.589   5.186  19.757  0.00  0.00    +0.000 OA
ENDROOT
BRANCH   1  11
ATOM      4  C   UNL     1       7.958   8.634  17.680  0.00  0.00    +0.000 C 
ATOM      5  N   UNL     1       7.262   7.414  17.344  0.00  0.00    +0.000 N 
ATOM      6  N   UNL     1       7.773   6.568  16.442  0.00  0.00    +0.000 NA
ATOM      7  C   UNL     1       6.814   5.638  16.339  0.00  0.00    +0.000 A 
ATOM      8  C   UNL     1       6.773   4.503  15.509  0.00  0.00    +0.000 A 
ATOM      9  C   UNL     1       5.603   3.729  15.625  0.00  0.00    +0.000 A 
ATOM     10  C   UNL     1       4.542   4.057  16.509  0.00  0.00    +0.000 A 
ATOM     11  C   UNL     1       4.572   5.183  17.359  0.00  0.00    +0.000 A 
ATOM     12  C   UNL     1       5.728   5.981  17.272  0.00  0.00    +0.000 A 
ATOM     13  N   UNL     1       6.097   7.092  17.940  0.00  0.00    +0.000 NA
ENDBRANCH   1  11
BRANCH   1  14
ATOM     14  N   UNL     1       3.122   7.240  18.366  0.00  0.00    +0.000 NA
ATOM     15  H   UNL     1       3.907   7.608  18.919  0.00  0.00    +0.000 HD
BRANCH  14  16
ATOM     16  C   UNL     1       1.835   7.941  18.575  0.00  0.00    +0.000 C 
ATOM     17  C   UNL     1       1.776   8.273  20.073  0.00  0.00    +0.000 C 
ATOM     18  C   UNL     1       0.635   9.247  20.273  0.00  0.00    +0.000 C 
ATOM     19  S   UNL     1       0.737  10.342  18.877  0.00  0.00    +0.000 S 
ATOM     20  O   UNL     1       1.511  11.503  19.269  0.00  0.00    +0.000 OA
ATOM     21  O   UNL     1      -0.585  10.452  18.302  0.00  0.00    +0.000 OA
ATOM     22  C   UNL     1       1.752   9.285  17.839  0.00  0.00    +0.000 C 
ENDBRANCH  14  16
ENDBRANCH   1  14
TORSDOF 3
ENDMDL
MODEL 3
REMARK VINA RESULT:      -6.6      2.995      4.874
REMARK  Name = 
REMARK  4 active torsions:
REMARK  status: ('A' for Active; 'I' for Inactive)
REMARK    1  A    between atoms: C_1  and  N_2
REMARK    2  A    between atoms: C_8  and  S_9
REMARK    3  A    between atoms: S_9  and  N_12
REMARK    4  A    between atoms: N_12  and  C_13
REMARK                            x       y       z     vdW  Elec       q    Type
REMARK                         _______ _______ _______ _____ _____    ______ ____
ROOT
ATOM      1  S   UNL     1       2.910   2.491  17.764  0.00  0.00    +0.000 S 
ATOM      2  O   UNL     1       3.821   1.463  18.215  0.00  0.00    +0.000 OA
ATOM      3  O   UNL     1       1.656   2.163  17.113  0.00  0.00    +0.000 OA
ENDROOT
BRANCH   1  11
ATOM      4  C   UNL     1       2.587   8.171  17.861  0.00  0.00    +0.000 C 
ATOM      5  N   UNL     1       2.428   6.952  18.619  0.00  0.00    +0.000 N 
ATOM      6  N   UNL     1       2.162   6.997  19.930  0.00  0.00    +0.000 NA
ATOM      7  C   UNL     1       2.188   5.704  20.278  0.00  0.00    +0.000 A 
ATOM      8  C   UNL     1       2.009   5.129  21.549  0.00  0.00    +0.000 A 
ATOM      9  C   UNL     1       2.116   3.726  21.583  0.00  0.00    +0.000 A 
ATOM     10  C   UNL     1       2.382   2.941  20.431  0.00  0.00    +0.000 A 
ATOM     11  C   UNL     1       2.550   3.499  19.145  0.00  0.00    +0.000 A 
ATOM     12  C   UNL     1       2.447   4.901  19.071  0.00  0.00    +0.000 A 
ATOM     13  N   UNL     1       2.527   5.747  18.025  0.00  0.00    +0.000 NA
ENDBRANCH   1  11
BRANCH   1  14
ATOM     14  N   UNL     1       3.762   3.498  16.721  0.00  0.00    +0.000 NA
ATOM     15  H   UNL     1       3.320   3.427  15.795  0.00  0.00    +0.000 HD
BRANCH  14  16
ATOM     16  C   UNL     1       5.242   3.515  16.700  0.00  0.00    +0.000 C 
ATOM     17  C   UNL     1       5.635   4.400  15.508  0.00  0.00    +0.000 C 
ATOM     18  C   UNL     1       7.115   4.691  15.633  0.00  0.00    +0.000 C 
ATOM     19  S   UNL     1       7.369   4.960  17.371  0.00  0.00    +0.000 S 
ATOM     20  O   UNL     1       7.288   6.385  17.624  0.00  0.00    +0.000 OA
ATOM     21  O   UNL     1       8.505   4.165  17.782  0.00  0.00    +0.000 OA
ATOM     22  C   UNL     1       5.856   4.178  17.940  0.00  0.00    +0.000 C 
ENDBRANCH  14  16
ENDBRANCH   1  14
TORSDOF 3
ENDMDL
MODEL 4
REMARK VINA RESULT:      -6.6      4.122      5.810
REMARK  Name = 
REMARK  4 active torsions:
REMARK  status: ('A' for Active; 'I' for Inactive)
REMARK    1  A    between atoms: C_1  and  N_2
REMARK    2  A    between atoms: C_8  and  S_9
REMARK    3  A    between atoms: S_9  and  N_12
REMARK    4  A    between atoms: N_12  and  C_13
REMARK                            x       y       z     vdW  Elec       q    Type
REMARK                         _______ _______ _______ _____ _____    ______ ____
ROOT
ATOM      1  S   UNL     1       2.462   5.925  19.544  0.00  0.00    +0.000 S 
ATOM      2  O   UNL     1       1.988   5.565  20.861  0.00  0.00    +0.000 OA
ATOM      3  O   UNL     1       2.088   5.165  18.366  0.00  0.00    +0.000 OA
ENDROOT
BRANCH   1  11
ATOM      4  C   UNL     1       0.026   9.458  23.281  0.00  0.00    +0.000 C 
ATOM      5  N   UNL     1       0.586   9.319  21.956  0.00  0.00    +0.000 N 
ATOM      6  N   UNL     1       0.525  10.333  21.084  0.00  0.00    +0.000 NA
ATOM      7  C   UNL     1       1.046   9.794  19.974  0.00  0.00    +0.000 A 
ATOM      8  C   UNL     1       1.213  10.379  18.706  0.00  0.00    +0.000 A 
ATOM      9  C   UNL     1       1.780   9.531  17.735  0.00  0.00    +0.000 A 
ATOM     10  C   UNL     1       2.158   8.190  18.004  0.00  0.00    +0.000 A 
ATOM     11  C   UNL     1       2.011   7.591  19.274  0.00  0.00    +0.000 A 
ATOM     12  C   UNL     1       1.450   8.410  20.272  0.00  0.00    +0.000 A 
ATOM     13  N   UNL     1       1.193   8.179  21.575  0.00  0.00    +0.000 NA
ENDBRANCH   1  11
BRANCH   1  14
ATOM     14  N   UNL     1       4.143   5.951  19.603  0.00  0.00    +0.000 NA
ATOM     15  H   UNL     1       4.428   6.907  19.851  0.00  0.00    +0.000 HD
BRANCH  14  16
ATOM     16  C   UNL     1       4.964   5.315  18.547  0.00  0.00    +0.000 C 
ATOM     17  C   UNL     1       4.575   6.014  17.236  0.00  0.00    +0.000 C 
ATOM     18  C   UNL     1       5.596   5.614  16.193  0.00  0.00    +0.000 C 
ATOM     19  S   UNL     1       7.146   5.626  17.063  0.00  0.00    +0.000 S 
ATOM     20  O   UNL     1       7.767   6.920  16.861  0.00  0.00    +0.000 OA
ATOM     21  O   UNL     1       7.829   4.386  16.769  0.00  0.00    +0.000 OA
ATOM     22  C   UNL     1       6.469   5.554  18.724  0.00  0.00    +0.000 C 
ENDBRANCH  14  16
ENDBRANCH   1  14
TORSDOF 3
ENDMDL
MODEL 5
REMARK VINA RESULT:      -6.5      3.739      5.293
REMARK  Name = 
REMARK  4 active torsions:
REMARK  status: ('A' for Active; 'I' for Inactive)
REMARK    1  A    between atoms: C_1  and  N_2
REMARK    2  A    between atoms: C_8  and  S_9
REMARK    3  A    between atoms: S_9  and  N_12
REMARK    4  A    between atoms: N_12  and  C_13
REMARK                            x       y       z     vdW  Elec       q    Type
REMARK                         _______ _______ _______ _____ _____    ______ ____
ROOT
ATOM      1  S   UNL     1       2.860   5.721  19.292  0.00  0.00    +0.000 S 
ATOM      2  O   UNL     1       4.041   5.781  20.123  0.00  0.00    +0.000 OA
ATOM      3  O   UNL     1       1.699   4.940  19.674  0.00  0.00    +0.000 OA
ENDROOT
BRANCH   1  11
ATOM      4  C   UNL     1      -0.077   9.004  22.894  0.00  0.00    +0.000 C 
ATOM      5  N   UNL     1       0.597   8.935  21.618  0.00  0.00    +0.000 N 
ATOM      6  N   UNL     1       0.550   9.969  20.769  0.00  0.00    +0.000 NA
ATOM      7  C   UNL     1       1.191   9.491  19.693  0.00  0.00    +0.000 A 
ATOM      8  C   UNL     1       1.428  10.120  18.458  0.00  0.00    +0.000 A 
ATOM      9  C   UNL     1       2.120   9.333  17.518  0.00  0.00    +0.000 A 
ATOM     10  C   UNL     1       2.552   8.008  17.786  0.00  0.00    +0.000 A 
ATOM     11  C   UNL     1       2.336   7.366  19.025  0.00  0.00    +0.000 A 
ATOM     12  C   UNL     1       1.648   8.124  19.991  0.00  0.00    +0.000 A 
ATOM     13  N   UNL     1       1.299   7.842  21.262  0.00  0.00    +0.000 NA
ENDBRANCH   1  11
BRANCH   1  14
ATOM     14  N   UNL     1       3.340   5.183  17.772  0.00  0.00    +0.000 NA
ATOM     15  H   UNL     1       2.541   4.686  17.355  0.00  0.00    +0.000 HD
BRANCH  14  16
ATOM     16  C   UNL     1       4.652   4.531  17.562  0.00  0.00    +0.000 C 
ATOM     17  C   UNL     1       4.697   4.145  16.076  0.00  0.00    +0.000 C 
ATOM     18  C   UNL     1       6.124   3.758  15.755  0.00  0.00    +0.000 C 
ATOM     19  S   UNL     1       7.114   4.935  16.646  0.00  0.00    +0.000 S 
ATOM     20  O   UNL     1       7.436   6.026  15.748  0.00  0.00    +0.000 OA
ATOM     21  O   UNL     1       8.130   4.203  17.369  0.00  0.00    +0.000 OA
ATOM     22  C   UNL     1       5.840   5.475  17.790  0.00  0.00    +0.000 C 
ENDBRANCH  14  16
ENDBRANCH   1  14
TORSDOF 3
ENDMDL
MODEL 6
REMARK VINA RESULT:      -6.5      4.084      5.499
REMARK  Name = 
REMARK  4 active torsions:
REMARK  status: ('A' for Active; 'I' for Inactive)
REMARK    1  A    between atoms: C_1  and  N_2
REMARK    2  A    between atoms: C_8  and  S_9
REMARK    3  A    between atoms: S_9  and  N_12
REMARK    4  A    between atoms: N_12  and  C_13
REMARK                            x       y       z     vdW  Elec       q    Type
REMARK                         _______ _______ _______ _____ _____    ______ ____
ROOT
ATOM      1  S   UNL     1       2.510   5.766  19.516  0.00  0.00    +0.000 S 
ATOM      2  O   UNL     1       2.259   5.509  20.916  0.00  0.00    +0.000 OA
ATOM      3  O   UNL     1       1.904   4.960  18.473  0.00  0.00    +0.000 OA
ENDROOT
BRANCH   1  11
ATOM      4  C   UNL     1       0.092   9.391  23.177  0.00  0.00    +0.000 C 
ATOM      5  N   UNL     1       0.664   9.225  21.860  0.00  0.00    +0.000 N 
ATOM      6  N   UNL     1       0.629  10.227  20.974  0.00  0.00    +0.000 NA
ATOM      7  C   UNL     1       1.153   9.664  19.877  0.00  0.00    +0.000 A 
ATOM      8  C   UNL     1       1.343  10.227  18.602  0.00  0.00    +0.000 A 
ATOM      9  C   UNL     1       1.905   9.357  17.650  0.00  0.00    +0.000 A 
ATOM     10  C   UNL     1       2.259   8.014  17.942  0.00  0.00    +0.000 A 
ATOM     11  C   UNL     1       2.089   7.435  19.218  0.00  0.00    +0.000 A 
ATOM     12  C   UNL     1       1.530   8.277  20.198  0.00  0.00    +0.000 A 
ATOM     13  N   UNL     1       1.257   8.069  21.501  0.00  0.00    +0.000 NA
ENDBRANCH   1  11
BRANCH   1  14
ATOM     14  N   UNL     1       4.175   5.707  19.283  0.00  0.00    +0.000 NA
ATOM     15  H   UNL     1       4.589   6.478  19.823  0.00  0.00    +0.000 HD
BRANCH  14  16
ATOM     16  C   UNL     1       4.760   5.509  17.937  0.00  0.00    +0.000 C 
ATOM     17  C   UNL     1       5.820   6.609  17.775  0.00  0.00    +0.000 C 
ATOM     18  C   UNL     1       6.645   6.261  16.555  0.00  0.00    +0.000 C 
ATOM     19  S   UNL     1       6.852   4.499  16.647  0.00  0.00    +0.000 S 
ATOM     20  O   UNL     1       8.112   4.226  17.310  0.00  0.00    +0.000 OA
ATOM     21  O   UNL     1       6.523   3.945  15.352  0.00  0.00    +0.000 OA
ATOM     22  C   UNL     1       5.507   4.177  17.792  0.00  0.00    +0.000 C 
ENDBRANCH  14  16
ENDBRANCH   1  14
TORSDOF 3
ENDMDL
MODEL 7
REMARK VINA RESULT:      -6.4      3.017      5.170
REMARK  Name = 
REMARK  4 active torsions:
REMARK  status: ('A' for Active; 'I' for Inactive)
REMARK    1  A    between atoms: C_1  and  N_2
REMARK    2  A    between atoms: C_8  and  S_9
REMARK    3  A    between atoms: S_9  and  N_12
REMARK    4  A    between atoms: N_12  and  C_13
REMARK                            x       y       z     vdW  Elec       q    Type
REMARK                         _______ _______ _______ _____ _____    ______ ____
ROOT
ATOM      1  S   UNL     1       3.091   2.981  17.441  0.00  0.00    +0.000 S 
ATOM      2  O   UNL     1       3.869   1.763  17.485  0.00  0.00    +0.000 OA
ATOM      3  O   UNL     1       1.880   3.082  16.648  0.00  0.00    +0.000 OA
ENDROOT
BRANCH   1  11
ATOM      4  C   UNL     1       1.905   8.158  19.482  0.00  0.00    +0.000 C 
ATOM      5  N   UNL     1       1.997   6.748  19.780  0.00  0.00    +0.000 N 
ATOM      6  N   UNL     1       1.831   6.307  21.034  0.00  0.00    +0.000 NA
ATOM      7  C   UNL     1       2.082   4.996  20.917  0.00  0.00    +0.000 A 
ATOM      8  C   UNL     1       2.094   4.009  21.918  0.00  0.00    +0.000 A 
ATOM      9  C   UNL     1       2.419   2.715  21.468  0.00  0.00    +0.000 A 
ATOM     10  C   UNL     1       2.711   2.418  20.111  0.00  0.00    +0.000 A 
ATOM     11  C   UNL     1       2.690   3.393  19.090  0.00  0.00    +0.000 A 
ATOM     12  C   UNL     1       2.367   4.699  19.503  0.00  0.00    +0.000 A 
ATOM     13  N   UNL     1       2.233   5.846  18.807  0.00  0.00    +0.000 NA
ENDBRANCH   1  11
BRANCH   1  14
ATOM     14  N   UNL     1       4.116   4.216  16.938  0.00  0.00    +0.000 NA
ATOM     15  H   UNL     1       4.137   4.199  15.910  0.00  0.00    +0.000 HD
BRANCH  14  16
ATOM     16  C   UNL     1       5.431   4.438  17.580  0.00  0.00    +0.000 C 
ATOM     17  C   UNL     1       6.480   4.198  16.484  0.00  0.00    +0.000 C 
ATOM     18  C   UNL     1       7.805   4.706  17.010  0.00  0.00    +0.000 C 
ATOM     19  S   UNL     1       7.394   6.206  17.871  0.00  0.00    +0.000 S 
ATOM     20  O   UNL     1       7.577   7.316  16.956  0.00  0.00    +0.000 OA
ATOM     21  O   UNL     1       8.029   6.161  19.169  0.00  0.00    +0.000 OA
ATOM     22  C   UNL     1       5.637   5.883  18.054  0.00  0.00    +0.000 C 
ENDBRANCH  14  16
ENDBRANCH   1  14
TORSDOF 3
ENDMDL
MODEL 8
REMARK VINA RESULT:      -6.3      3.020      4.666
REMARK  Name = 
REMARK  4 active torsions:
REMARK  status: ('A' for Active; 'I' for Inactive)
REMARK    1  A    between atoms: C_1  and  N_2
REMARK    2  A    between atoms: C_8  and  S_9
REMARK    3  A    between atoms: S_9  and  N_12
REMARK    4  A    between atoms: N_12  and  C_13
REMARK                            x       y       z     vdW  Elec       q    Type
REMARK                         _______ _______ _______ _____ _____    ______ ____
ROOT
ATOM      1  S   UNL     1       3.445   2.446  17.761  0.00  0.00    +0.000 S 
ATOM      2  O   UNL     1       3.776   1.047  17.914  0.00  0.00    +0.000 OA
ATOM      3  O   UNL     1       2.634   2.921  16.656  0.00  0.00    +0.000 OA
ENDROOT
BRANCH   1  11
ATOM      4  C   UNL     1       2.223   7.781  19.320  0.00  0.00    +0.000 C 
ATOM      5  N   UNL     1       2.120   6.382  19.664  0.00  0.00    +0.000 N 
ATOM      6  N   UNL     1       1.611   6.009  20.844  0.00  0.00    +0.000 NA
ATOM      7  C   UNL     1       1.774   4.679  20.824  0.00  0.00    +0.000 A 
ATOM      8  C   UNL     1       1.454   3.737  21.819  0.00  0.00    +0.000 A 
ATOM      9  C   UNL     1       1.772   2.405  21.495  0.00  0.00    +0.000 A 
ATOM     10  C   UNL     1       2.367   2.029  20.263  0.00  0.00    +0.000 A 
ATOM     11  C   UNL     1       2.682   2.958  19.247  0.00  0.00    +0.000 A 
ATOM     12  C   UNL     1       2.376   4.301  19.535  0.00  0.00    +0.000 A 
ATOM     13  N   UNL     1       2.515   5.424  18.802  0.00  0.00    +0.000 NA
ENDBRANCH   1  11
BRANCH   1  14
ATOM     14  N   UNL     1       4.892   3.304  17.717  0.00  0.00    +0.000 NA
ATOM     15  H   UNL     1       4.929   3.889  18.563  0.00  0.00    +0.000 HD
BRANCH  14  16
ATOM     16  C   UNL     1       5.356   3.973  16.481  0.00  0.00    +0.000 C 
ATOM     17  C   UNL     1       4.691   5.357  16.478  0.00  0.00    +0.000 C 
ATOM     18  C   UNL     1       5.370   6.179  15.403  0.00  0.00    +0.000 C 
ATOM     19  S   UNL     1       7.090   5.753  15.540  0.00  0.00    +0.000 S 
ATOM     20  O   UNL     1       7.732   6.734  16.393  0.00  0.00    +0.000 OA
ATOM     21  O   UNL     1       7.577   5.445  14.214  0.00  0.00    +0.000 OA
ATOM     22  C   UNL     1       6.869   4.230  16.464  0.00  0.00    +0.000 C 
ENDBRANCH  14  16
ENDBRANCH   1  14
TORSDOF 3
ENDMDL
MODEL 9
REMARK VINA RESULT:      -6.2      4.263      7.239
REMARK  Name = 
REMARK  4 active torsions:
REMARK  status: ('A' for Active; 'I' for Inactive)
REMARK    1  A    between atoms: C_1  and  N_2
REMARK    2  A    between atoms: C_8  and  S_9
REMARK    3  A    between atoms: S_9  and  N_12
REMARK    4  A    between atoms: N_12  and  C_13
REMARK                            x       y       z     vdW  Elec       q    Type
REMARK                         _______ _______ _______ _____ _____    ______ ____
ROOT
ATOM      1  S   UNL     1       3.207   5.267  18.561  0.00  0.00    +0.000 S 
ATOM      2  O   UNL     1       2.170   4.302  18.275  0.00  0.00    +0.000 OA
ATOM      3  O   UNL     1       3.806   5.373  19.877  0.00  0.00    +0.000 OA
ENDROOT
BRANCH   1  11
ATOM      4  C   UNL     1       7.773   8.550  17.693  0.00  0.00    +0.000 C 
ATOM      5  N   UNL     1       7.097   7.325  17.336  0.00  0.00    +0.000 N 
ATOM      6  N   UNL     1       7.571   6.548  16.354  0.00  0.00    +0.000 NA
ATOM      7  C   UNL     1       6.639   5.590  16.264  0.00  0.00    +0.000 A 
ATOM      8  C   UNL     1       6.578   4.502  15.375  0.00  0.00    +0.000 A 
ATOM      9  C   UNL     1       5.445   3.680  15.526  0.00  0.00    +0.000 A 
ATOM     10  C   UNL     1       4.438   3.919  16.497  0.00  0.00    +0.000 A 
ATOM     11  C   UNL     1       4.490   4.998  17.407  0.00  0.00    +0.000 A 
ATOM     12  C   UNL     1       5.610   5.841  17.287  0.00  0.00    +0.000 A 
ATOM     13  N   UNL     1       5.988   6.927  17.990  0.00  0.00    +0.000 NA
ENDBRANCH   1  11
BRANCH   1  14
ATOM     14  N   UNL     1       2.603   6.787  18.168  0.00  0.00    +0.000 NA
ATOM     15  H   UNL     1       3.055   7.081  17.292  0.00  0.00    +0.000 HD
BRANCH  14  16
ATOM     16  C   UNL     1       2.473   7.854  19.186  0.00  0.00    +0.000 C 
ATOM     17  C   UNL     1       1.526   8.900  18.579  0.00  0.00    +0.000 C 
ATOM     18  C   UNL     1       1.128   9.845  19.692  0.00  0.00    +0.000 C 
ATOM     19  S   UNL     1       0.891   8.792  21.104  0.00  0.00    +0.000 S 
ATOM     20  O   UNL     1      -0.515   8.451  21.183  0.00  0.00    +0.000 OA
ATOM     21  O   UNL     1       1.610   9.373  22.216  0.00  0.00    +0.000 OA
ATOM     22  C   UNL     1       1.802   7.376  20.480  0.00  0.00    +0.000 C 
ENDBRANCH  14  16
ENDBRANCH   1  14
TORSDOF 3
ENDMDL
