MODEL 1
REMARK VINA RESULT:      -7.3      0.000      0.000
REMARK  Name = 
REMARK  4 active torsions:
REMARK  status: ('A' for Active; 'I' for Inactive)
REMARK    1  A    between atoms: C_4  and  C_5
REMARK    2  A    between atoms: C_5  and  C_6
REMARK    3  A    between atoms: C_6  and  C_7
REMARK    4  A    between atoms: C_7  and  C_8
REMARK                            x       y       z     vdW  Elec       q    Type
REMARK                         _______ _______ _______ _____ _____    ______ ____
ROOT
ATOM      1  C   UNL     1       4.538   3.170  18.314  0.00  0.00    +0.000 A 
ATOM      2  N   UNL     1       4.536   3.335  16.980  0.00  0.00    +0.000 NA
ATOM      3  C   UNL     1       5.379   4.264  16.486  0.00  0.00    +0.000 A 
ATOM      4  C   UNL     1       6.205   5.040  17.271  0.00  0.00    +0.000 A 
ATOM      5  C   UNL     1       6.146   4.792  18.633  0.00  0.00    +0.000 A 
ATOM      6  N   UNL     1       5.314   3.869  19.170  0.00  0.00    +0.000 NA
ATOM      7  C   UNL     1       6.978   5.617  19.597  0.00  0.00    +0.000 C 
ATOM      8  N   UNL     1       8.061   6.415  18.985  0.00  0.00    +0.000 NA
ATOM      9  C   UNL     1       7.586   7.072  17.763  0.00  0.00    +0.000 C 
ATOM     10  C   UNL     1       7.154   6.049  16.703  0.00  0.00    +0.000 C 
ATOM     11  H   UNL     1       8.830   5.788  18.754  0.00  0.00    +0.000 HD
ENDROOT
BRANCH   1  12
ATOM     12  C   UNL     1       3.579   2.164  18.902  0.00  0.00    +0.000 C 
BRANCH  12  13
ATOM     13  C   UNL     1       2.279   2.102  18.095  0.00  0.00    +0.000 C 
BRANCH  13  14
ATOM     14  C   UNL     1       1.151   2.922  18.736  0.00  0.00    +0.000 C 
BRANCH  14  18
ATOM     15  C   UNL     1       2.311   6.992  19.626  0.00  0.00    +0.000 A 
ATOM     16  C   UNL     1       1.951   6.123  20.652  0.00  0.00    +0.000 A 
ATOM     17  C   UNL     1       1.589   4.807  20.361  0.00  0.00    +0.000 A 
ATOM     18  C   UNL     1       1.585   4.340  19.037  0.00  0.00    +0.000 A 
ATOM     19  C   UNL     1       1.956   5.222  18.012  0.00  0.00    +0.000 A 
ATOM     20  C   UNL     1       2.317   6.539  18.307  0.00  0.00    +0.000 A 
ENDBRANCH  14  18
ENDBRANCH  13  14
ENDBRANCH  12  13
ENDBRANCH   1  12
TORSDOF 4
ENDMDL
MODEL 2
REMARK VINA RESULT:      -7.3      2.465      6.441
REMARK  Name = 
REMARK  4 active torsions:
REMARK  status: ('A' for Active; 'I' for Inactive)
REMARK    1  A    between atoms: C_4  and  C_5
REMARK    2  A    between atoms: C_5  and  C_6
REMARK    3  A    between atoms: C_6  and  C_7
REMARK    4  A    between atoms: C_7  and  C_8
REMARK                            x       y       z     vdW  Elec       q    Type
REMARK                         _______ _______ _______ _____ _____    ______ ____
ROOT
ATOM      1  C   UNL     1       4.054   5.766  17.284  0.00  0.00    +0.000 A 
ATOM      2  N   UNL     1       3.509   6.516  18.256  0.00  0.00    +0.000 NA
ATOM      3  C   UNL     1       2.636   5.898  19.077  0.00  0.00    +0.000 A 
ATOM      4  C   UNL     1       2.277   4.573  18.952  0.00  0.00    +0.000 A 
ATOM      5  C   UNL     1       2.898   3.877  17.928  0.00  0.00    +0.000 A 
ATOM      6  N   UNL     1       3.780   4.459  17.081  0.00  0.00    +0.000 NA
ATOM      7  C   UNL     1       2.547   2.424  17.669  0.00  0.00    +0.000 C 
ATOM      8  N   UNL     1       1.804   1.743  18.749  0.00  0.00    +0.000 NA
ATOM      9  C   UNL     1       0.746   2.615  19.273  0.00  0.00    +0.000 C 
ATOM     10  C   UNL     1       1.325   3.897  19.889  0.00  0.00    +0.000 C 
ATOM     11  H   UNL     1       2.458   1.521  19.497  0.00  0.00    +0.000 HD
ENDROOT
BRANCH   1  12
ATOM     12  C   UNL     1       5.007   6.436  16.325  0.00  0.00    +0.000 C 
BRANCH  12  13
ATOM     13  C   UNL     1       6.463   6.209  16.744  0.00  0.00    +0.000 C 
BRANCH  13  14
ATOM     14  C   UNL     1       6.972   4.813  16.359  0.00  0.00    +0.000 C 
BRANCH  14  18
ATOM     15  C   UNL     1       6.869   4.274  12.069  0.00  0.00    +0.000 A 
ATOM     16  C   UNL     1       7.765   5.170  12.644  0.00  0.00    +0.000 A 
ATOM     17  C   UNL     1       7.803   5.332  14.030  0.00  0.00    +0.000 A 
ATOM     18  C   UNL     1       6.946   4.595  14.862  0.00  0.00    +0.000 A 
ATOM     19  C   UNL     1       6.051   3.690  14.273  0.00  0.00    +0.000 A 
ATOM     20  C   UNL     1       6.015   3.531  12.885  0.00  0.00    +0.000 A 
ENDBRANCH  14  18
ENDBRANCH  13  14
ENDBRANCH  12  13
ENDBRANCH   1  12
TORSDOF 4
ENDMDL
MODEL 3
REMARK VINA RESULT:      -7.3      4.380      7.068
REMARK  Name = 
REMARK  4 active torsions:
REMARK  status: ('A' for Active; 'I' for Inactive)
REMARK    1  A    between atoms: C_4  and  C_5
REMARK    2  A    between atoms: C_5  and  C_6
REMARK    3  A    between atoms: C_6  and  C_7
REMARK    4  A    between atoms: C_7  and  C_8
REMARK                            x       y       z     vdW  Elec       q    Type
REMARK                         _______ _______ _______ _____ _____    ______ ____
ROOT
ATOM      1  C   UNL     1       1.297   9.353  19.018  0.00  0.00    +0.000 A 
ATOM      2  N   UNL     1       0.830  10.536  18.584  0.00  0.00    +0.000 NA
ATOM      3  C   UNL     1       0.201  11.306  19.495  0.00  0.00    +0.000 A 
ATOM      4  C   UNL     1       0.009  10.933  20.808  0.00  0.00    +0.000 A 
ATOM      5  C   UNL     1       0.534   9.702  21.166  0.00  0.00    +0.000 A 
ATOM      6  N   UNL     1       1.172   8.898  20.283  0.00  0.00    +0.000 NA
ATOM      7  C   UNL     1       0.344   9.170  22.574  0.00  0.00    +0.000 C 
ATOM      8  N   UNL     1      -0.106  10.158  23.576  0.00  0.00    +0.000 NA
ATOM      9  C   UNL     1      -1.166  11.006  23.020  0.00  0.00    +0.000 C 
ATOM     10  C   UNL     1      -0.669  11.813  21.812  0.00  0.00    +0.000 C 
ATOM     11  H   UNL     1       0.691  10.739  23.832  0.00  0.00    +0.000 HD
ENDROOT
BRANCH   1  12
ATOM     12  C   UNL     1       1.974   8.450  18.015  0.00  0.00    +0.000 C 
BRANCH  12  13
ATOM     13  C   UNL     1       2.717   7.308  18.713  0.00  0.00    +0.000 C 
BRANCH  13  14
ATOM     14  C   UNL     1       2.757   6.029  17.865  0.00  0.00    +0.000 C 
BRANCH  14  18
ATOM     15  C   UNL     1       0.958   2.661  19.895  0.00  0.00    +0.000 A 
ATOM     16  C   UNL     1       1.387   2.540  18.576  0.00  0.00    +0.000 A 
ATOM     17  C   UNL     1       1.978   3.626  17.930  0.00  0.00    +0.000 A 
ATOM     18  C   UNL     1       2.151   4.850  18.595  0.00  0.00    +0.000 A 
ATOM     19  C   UNL     1       1.722   4.959  19.925  0.00  0.00    +0.000 A 
ATOM     20  C   UNL     1       1.130   3.869  20.570  0.00  0.00    +0.000 A 
ENDBRANCH  14  18
ENDBRANCH  13  14
ENDBRANCH  12  13
ENDBRANCH   1  12
TORSDOF 4
ENDMDL
MODEL 4
REMARK VINA RESULT:      -7.3      1.667      3.468
REMARK  Name = 
REMARK  4 active torsions:
REMARK  status: ('A' for Active; 'I' for Inactive)
REMARK    1  A    between atoms: C_4  and  C_5
REMARK    2  A    between atoms: C_5  and  C_6
REMARK    3  A    between atoms: C_6  and  C_7
REMARK    4  A    between atoms: C_7  and  C_8
REMARK                            x       y       z     vdW  Elec       q    Type
REMARK                         _______ _______ _______ _____ _____    ______ ____
ROOT
ATOM      1  C   UNL     1       3.680   6.071  18.945  0.00  0.00    +0.000 A 
ATOM      2  N   UNL     1       4.591   5.533  19.773  0.00  0.00    +0.000 NA
ATOM      3  C   UNL     1       5.742   5.112  19.212  0.00  0.00    +0.000 A 
ATOM      4  C   UNL     1       6.008   5.192  17.862  0.00  0.00    +0.000 A 
ATOM      5  C   UNL     1       5.014   5.771  17.088  0.00  0.00    +0.000 A 
ATOM      6  N   UNL     1       3.844   6.206  17.611  0.00  0.00    +0.000 NA
ATOM      7  C   UNL     1       5.179   5.871  15.583  0.00  0.00    +0.000 C 
ATOM      8  N   UNL     1       6.548   5.646  15.073  0.00  0.00    +0.000 NA
ATOM      9  C   UNL     1       7.165   4.500  15.750  0.00  0.00    +0.000 C 
ATOM     10  C   UNL     1       7.302   4.743  17.259  0.00  0.00    +0.000 C 
ATOM     11  H   UNL     1       7.099   6.483  15.256  0.00  0.00    +0.000 HD
ENDROOT
BRANCH   1  12
ATOM     12  C   UNL     1       2.365   6.518  19.535  0.00  0.00    +0.000 C 
BRANCH  12  13
ATOM     13  C   UNL     1       1.964   5.637  20.722  0.00  0.00    +0.000 C 
BRANCH  13  14
ATOM     14  C   UNL     1       1.121   4.427  20.296  0.00  0.00    +0.000 C 
BRANCH  14  18
ATOM     15  C   UNL     1       3.531   1.572  18.119  0.00  0.00    +0.000 A 
ATOM     16  C   UNL     1       3.755   1.792  19.475  0.00  0.00    +0.000 A 
ATOM     17  C   UNL     1       2.966   2.706  20.176  0.00  0.00    +0.000 A 
ATOM     18  C   UNL     1       1.939   3.411  19.530  0.00  0.00    +0.000 A 
ATOM     19  C   UNL     1       1.718   3.177  18.165  0.00  0.00    +0.000 A 
ATOM     20  C   UNL     1       2.509   2.261  17.466  0.00  0.00    +0.000 A 
ENDBRANCH  14  18
ENDBRANCH  13  14
ENDBRANCH  12  13
ENDBRANCH   1  12
TORSDOF 4
ENDMDL
MODEL 5
REMARK VINA RESULT:      -7.2      2.315      6.222
REMARK  Name = 
REMARK  4 active torsions:
REMARK  status: ('A' for Active; 'I' for Inactive)
REMARK    1  A    between atoms: C_4  and  C_5
REMARK    2  A    between atoms: C_5  and  C_6
REMARK    3  A    between atoms: C_6  and  C_7
REMARK    4  A    between atoms: C_7  and  C_8
REMARK                            x       y       z     vdW  Elec       q    Type
REMARK                         _______ _______ _______ _____ _____    ______ ____
ROOT
ATOM      1  C   UNL     1       5.387   4.644  18.840  0.00  0.00    +0.000 A 
ATOM      2  N   UNL     1       4.612   5.679  19.209  0.00  0.00    +0.000 NA
ATOM      3  C   UNL     1       3.300   5.420  19.373  0.00  0.00    +0.000 A 
ATOM      4  C   UNL     1       2.733   4.180  19.169  0.00  0.00    +0.000 A 
ATOM      5  C   UNL     1       3.611   3.173  18.800  0.00  0.00    +0.000 A 
ATOM      6  N   UNL     1       4.935   3.390  18.624  0.00  0.00    +0.000 NA
ATOM      7  C   UNL     1       3.092   1.778  18.505  0.00  0.00    +0.000 C 
ATOM      8  N   UNL     1       1.714   1.498  18.959  0.00  0.00    +0.000 NA
ATOM      9  C   UNL     1       0.833   2.631  18.651  0.00  0.00    +0.000 C 
ATOM     10  C   UNL     1       1.277   3.906  19.381  0.00  0.00    +0.000 C 
ATOM     11  H   UNL     1       1.733   1.350  19.966  0.00  0.00    +0.000 HD
ENDROOT
BRANCH   1  12
ATOM     12  C   UNL     1       6.855   4.907  18.611  0.00  0.00    +0.000 C 
BRANCH  12  13
ATOM     13  C   UNL     1       7.242   4.648  17.152  0.00  0.00    +0.000 C 
BRANCH  13  14
ATOM     14  C   UNL     1       6.307   5.358  16.163  0.00  0.00    +0.000 C 
BRANCH  14  18
ATOM     15  C   UNL     1       6.809   3.981  12.095  0.00  0.00    +0.000 A 
ATOM     16  C   UNL     1       7.687   4.916  12.633  0.00  0.00    +0.000 A 
ATOM     17  C   UNL     1       7.528   5.349  13.951  0.00  0.00    +0.000 A 
ATOM     18  C   UNL     1       6.488   4.848  14.750  0.00  0.00    +0.000 A 
ATOM     19  C   UNL     1       5.614   3.900  14.200  0.00  0.00    +0.000 A 
ATOM     20  C   UNL     1       5.775   3.470  12.880  0.00  0.00    +0.000 A 
ENDBRANCH  14  18
ENDBRANCH  13  14
ENDBRANCH  12  13
ENDBRANCH   1  12
TORSDOF 4
ENDMDL
MODEL 6
REMARK VINA RESULT:      -7.2      1.691      2.891
REMARK  Name = 
REMARK  4 active torsions:
REMARK  status: ('A' for Active; 'I' for Inactive)
REMARK    1  A    between atoms: C_4  and  C_5
REMARK    2  A    between atoms: C_5  and  C_6
REMARK    3  A    between atoms: C_6  and  C_7
REMARK    4  A    between atoms: C_7  and  C_8
REMARK                            x       y       z     vdW  Elec       q    Type
REMARK                         _______ _______ _______ _____ _____    ______ ____
ROOT
ATOM      1  C   UNL     1       3.320   3.894  19.223  0.00  0.00    +0.000 A 
ATOM      2  N   UNL     1       2.726   3.550  18.067  0.00  0.00    +0.000 NA
ATOM      3  C   UNL     1       3.499   3.569  16.963  0.00  0.00    +0.000 A 
ATOM      4  C   UNL     1       4.829   3.933  16.968  0.00  0.00    +0.000 A 
ATOM      5  C   UNL     1       5.357   4.261  18.206  0.00  0.00    +0.000 A 
ATOM      6  N   UNL     1       4.616   4.255  19.339  0.00  0.00    +0.000 NA
ATOM      7  C   UNL     1       6.799   4.719  18.325  0.00  0.00    +0.000 C 
ATOM      8  N   UNL     1       7.651   4.462  17.146  0.00  0.00    +0.000 NA
ATOM      9  C   UNL     1       6.931   4.794  15.911  0.00  0.00    +0.000 C 
ATOM     10  C   UNL     1       5.679   3.924  15.736  0.00  0.00    +0.000 C 
ATOM     11  H   UNL     1       7.896   3.473  17.138  0.00  0.00    +0.000 HD
ENDROOT
BRANCH   1  12
ATOM     12  C   UNL     1       2.474   3.918  20.472  0.00  0.00    +0.000 C 
BRANCH  12  13
ATOM     13  C   UNL     1       1.502   5.102  20.458  0.00  0.00    +0.000 C 
BRANCH  13  14
ATOM     14  C   UNL     1       2.169   6.414  20.895  0.00  0.00    +0.000 C 
BRANCH  14  18
ATOM     15  C   UNL     1       1.621   9.599  18.022  0.00  0.00    +0.000 A 
ATOM     16  C   UNL     1       2.353   8.465  17.684  0.00  0.00    +0.000 A 
ATOM     17  C   UNL     1       2.518   7.434  18.610  0.00  0.00    +0.000 A 
ATOM     18  C   UNL     1       1.947   7.522  19.890  0.00  0.00    +0.000 A 
ATOM     19  C   UNL     1       1.205   8.666  20.218  0.00  0.00    +0.000 A 
ATOM     20  C   UNL     1       1.043   9.696  19.288  0.00  0.00    +0.000 A 
ENDBRANCH  14  18
ENDBRANCH  13  14
ENDBRANCH  12  13
ENDBRANCH   1  12
TORSDOF 4
ENDMDL
MODEL 7
REMARK VINA RESULT:      -7.2      2.408      6.348
REMARK  Name = 
REMARK  4 active torsions:
REMARK  status: ('A' for Active; 'I' for Inactive)
REMARK    1  A    between atoms: C_4  and  C_5
REMARK    2  A    between atoms: C_5  and  C_6
REMARK    3  A    between atoms: C_6  and  C_7
REMARK    4  A    between atoms: C_7  and  C_8
REMARK                            x       y       z     vdW  Elec       q    Type
REMARK                         _______ _______ _______ _____ _____    ______ ____
ROOT
ATOM      1  C   UNL     1       4.922   5.102  18.549  0.00  0.00    +0.000 A 
ATOM      2  N   UNL     1       4.258   5.814  19.475  0.00  0.00    +0.000 NA
ATOM      3  C   UNL     1       3.083   5.307  19.897  0.00  0.00    +0.000 A 
ATOM      4  C   UNL     1       2.543   4.131  19.421  0.00  0.00    +0.000 A 
ATOM      5  C   UNL     1       3.303   3.461  18.477  0.00  0.00    +0.000 A 
ATOM      6  N   UNL     1       4.488   3.935  18.025  0.00  0.00    +0.000 NA
ATOM      7  C   UNL     1       2.787   2.179  17.850  0.00  0.00    +0.000 C 
ATOM      8  N   UNL     1       1.644   1.545  18.539  0.00  0.00    +0.000 NA
ATOM      9  C   UNL     1       0.656   2.556  18.931  0.00  0.00    +0.000 C 
ATOM     10  C   UNL     1       1.248   3.570  19.921  0.00  0.00    +0.000 C 
ATOM     11  H   UNL     1       1.994   1.075  19.373  0.00  0.00    +0.000 HD
ENDROOT
BRANCH   1  12
ATOM     12  C   UNL     1       6.223   5.660  18.027  0.00  0.00    +0.000 C 
BRANCH  12  13
ATOM     13  C   UNL     1       6.841   4.732  16.978  0.00  0.00    +0.000 C 
BRANCH  13  14
ATOM     14  C   UNL     1       7.339   5.493  15.741  0.00  0.00    +0.000 C 
BRANCH  14  18
ATOM     15  C   UNL     1       6.039   3.552  12.103  0.00  0.00    +0.000 A 
ATOM     16  C   UNL     1       5.278   3.452  13.264  0.00  0.00    +0.000 A 
ATOM     17  C   UNL     1       5.696   4.090  14.432  0.00  0.00    +0.000 A 
ATOM     18  C   UNL     1       6.881   4.842  14.455  0.00  0.00    +0.000 A 
ATOM     19  C   UNL     1       7.636   4.942  13.278  0.00  0.00    +0.000 A 
ATOM     20  C   UNL     1       7.215   4.301  12.109  0.00  0.00    +0.000 A 
ENDBRANCH  14  18
ENDBRANCH  13  14
ENDBRANCH  12  13
ENDBRANCH   1  12
TORSDOF 4
ENDMDL
MODEL 8
REMARK VINA RESULT:      -7.2      2.567      6.449
REMARK  Name = 
REMARK  4 active torsions:
REMARK  status: ('A' for Active; 'I' for Inactive)
REMARK    1  A    between atoms: C_4  and  C_5
REMARK    2  A    between atoms: C_5  and  C_6
REMARK    3  A    between atoms: C_6  and  C_7
REMARK    4  A    between atoms: C_7  and  C_8
REMARK                            x       y       z     vdW  Elec       q    Type
REMARK                         _______ _______ _______ _____ _____    ______ ____
ROOT
ATOM      1  C   UNL     1       4.187   5.553  17.447  0.00  0.00    +0.000 A 
ATOM      2  N   UNL     1       4.058   6.180  18.629  0.00  0.00    +0.000 NA
ATOM      3  C   UNL     1       3.343   5.540  19.575  0.00  0.00    +0.000 A 
ATOM      4  C   UNL     1       2.742   4.315  19.381  0.00  0.00    +0.000 A 
ATOM      5  C   UNL     1       2.938   3.741  18.135  0.00  0.00    +0.000 A 
ATOM      6  N   UNL     1       3.649   4.349  17.156  0.00  0.00    +0.000 NA
ATOM      7  C   UNL     1       2.286   2.414  17.793  0.00  0.00    +0.000 C 
ATOM      8  N   UNL     1       1.752   1.650  18.940  0.00  0.00    +0.000 NA
ATOM      9  C   UNL     1       1.039   2.541  19.862  0.00  0.00    +0.000 C 
ATOM     10  C   UNL     1       1.972   3.607  20.452  0.00  0.00    +0.000 C 
ATOM     11  H   UNL     1       2.534   1.216  19.427  0.00  0.00    +0.000 HD
ENDROOT
BRANCH   1  12
ATOM     12  C   UNL     1       4.951   6.259  16.353  0.00  0.00    +0.000 C 
BRANCH  12  13
ATOM     13  C   UNL     1       6.462   6.149  16.576  0.00  0.00    +0.000 C 
BRANCH  13  14
ATOM     14  C   UNL     1       7.022   4.787  16.142  0.00  0.00    +0.000 C 
BRANCH  14  18
ATOM     15  C   UNL     1       6.859   4.175  11.865  0.00  0.00    +0.000 A 
ATOM     16  C   UNL     1       6.029   3.446  12.711  0.00  0.00    +0.000 A 
ATOM     17  C   UNL     1       6.077   3.656  14.090  0.00  0.00    +0.000 A 
ATOM     18  C   UNL     1       6.955   4.602  14.642  0.00  0.00    +0.000 A 
ATOM     19  C   UNL     1       7.781   5.336  13.780  0.00  0.00    +0.000 A 
ATOM     20  C   UNL     1       7.732   5.123  12.399  0.00  0.00    +0.000 A 
ENDBRANCH  14  18
ENDBRANCH  13  14
ENDBRANCH  12  13
ENDBRANCH   1  12
TORSDOF 4
ENDMDL
MODEL 9
REMARK VINA RESULT:      -7.0      1.802      5.519
REMARK  Name = 
REMARK  4 active torsions:
REMARK  status: ('A' for Active; 'I' for Inactive)
REMARK    1  A    between atoms: C_4  and  C_5
REMARK    2  A    between atoms: C_5  and  C_6
REMARK    3  A    between atoms: C_6  and  C_7
REMARK    4  A    between atoms: C_7  and  C_8
REMARK                            x       y       z     vdW  Elec       q    Type
REMARK                         _______ _______ _______ _____ _____    ______ ____
ROOT
ATOM      1  C   UNL     1       3.614   4.927  17.707  0.00  0.00    +0.000 A 
ATOM      2  N   UNL     1       2.426   5.540  17.847  0.00  0.00    +0.000 NA
ATOM      3  C   UNL     1       1.677   5.167  18.903  0.00  0.00    +0.000 A 
ATOM      4  C   UNL     1       2.059   4.201  19.809  0.00  0.00    +0.000 A 
ATOM      5  C   UNL     1       3.304   3.632  19.590  0.00  0.00    +0.000 A 
ATOM      6  N   UNL     1       4.088   3.977  18.542  0.00  0.00    +0.000 NA
ATOM      7  C   UNL     1       3.809   2.526  20.498  0.00  0.00    +0.000 C 
ATOM      8  N   UNL     1       3.076   2.358  21.770  0.00  0.00    +0.000 NA
ATOM      9  C   UNL     1       1.629   2.443  21.542  0.00  0.00    +0.000 C 
ATOM     10  C   UNL     1       1.224   3.817  20.991  0.00  0.00    +0.000 C 
ATOM     11  H   UNL     1       3.363   3.101  22.405  0.00  0.00    +0.000 HD
ENDROOT
BRANCH   1  12
ATOM     12  C   UNL     1       4.463   5.295  16.514  0.00  0.00    +0.000 C 
BRANCH  12  13
ATOM     13  C   UNL     1       5.226   4.078  15.983  0.00  0.00    +0.000 C 
BRANCH  13  14
ATOM     14  C   UNL     1       6.738   4.328  15.892  0.00  0.00    +0.000 C 
BRANCH  14  18
ATOM     15  C   UNL     1       8.162   7.148  18.845  0.00  0.00    +0.000 A 
ATOM     16  C   UNL     1       7.753   7.590  17.590  0.00  0.00    +0.000 A 
ATOM     17  C   UNL     1       7.283   6.677  16.645  0.00  0.00    +0.000 A 
ATOM     18  C   UNL     1       7.212   5.308  16.943  0.00  0.00    +0.000 A 
ATOM     19  C   UNL     1       7.620   4.874  18.212  0.00  0.00    +0.000 A 
ATOM     20  C   UNL     1       8.091   5.790  19.157  0.00  0.00    +0.000 A 
ENDBRANCH  14  18
ENDBRANCH  13  14
ENDBRANCH  12  13
ENDBRANCH   1  12
TORSDOF 4
ENDMDL
