MODEL 1
REMARK VINA RESULT:      -8.9      0.000      0.000
REMARK  Name = 
REMARK  6 active torsions:
REMARK  status: ('A' for Active; 'I' for Inactive)
REMARK    1  A    between atoms: C_1  and  C_2
REMARK    2  A    between atoms: C_2  and  C_3
REMARK    3  A    between atoms: C_6  and  N_7
REMARK    4  A    between atoms: C_11  and  S_12
REMARK    5  A    between atoms: S_12  and  C_13
REMARK    6  A    between atoms: C_13  and  N_14
REMARK                            x       y       z     vdW  Elec       q    Type
REMARK                         _______ _______ _______ _____ _____    ______ ____
ROOT
ATOM      1  N   UNL     1       8.866   8.600  19.223  0.00  0.00    +0.000 N 
ATOM      2  C   UNL     1       8.279   7.733  18.358  0.00  0.00    +0.000 A 
ATOM      3  N   UNL     1       7.965   7.926  17.091  0.00  0.00    +0.000 NA
ATOM      4  N   UNL     1       7.350   6.842  16.505  0.00  0.00    +0.000 NA
ATOM      5  C   UNL     1       7.204   5.851  17.352  0.00  0.00    +0.000 A 
ATOM      6  S   UNL     1       7.835   6.155  18.912  0.00  0.00    +0.000 S 
ATOM      7  H   UNL     1       9.043   8.261  20.159  0.00  0.00    +0.000 HD
ENDROOT
BRANCH   1  11
ATOM      8  C   UNL     1       9.411  12.801  18.904  0.00  0.00    +0.000 A 
ATOM      9  C   UNL     1       9.788  12.105  20.056  0.00  0.00    +0.000 A 
ATOM     10  C   UNL     1       9.610  10.717  20.135  0.00  0.00    +0.000 A 
ATOM     11  C   UNL     1       9.059   9.994  19.069  0.00  0.00    +0.000 A 
ATOM     12  C   UNL     1       8.698  10.702  17.915  0.00  0.00    +0.000 A 
ATOM     13  C   UNL     1       8.871  12.084  17.833  0.00  0.00    +0.000 A 
BRANCH   8  15
ATOM     14  C   UNL     1       8.312  15.037  18.876  0.00  0.00    +0.000 C 
ATOM     15  C   UNL     1       9.631  14.286  18.785  0.00  0.00    +0.000 C 
ENDBRANCH   8  15
ENDBRANCH   1  11
BRANCH   5  16
ATOM     16  S   UNL     1       6.433   4.349  16.919  0.00  0.00    +0.000 S 
BRANCH  16  17
ATOM     17  C   UNL     1       4.845   4.978  16.278  0.00  0.00    +0.000 C 
BRANCH  17  18
ATOM     18  N   UNL     1       3.756   4.505  17.117  0.00  0.00    +0.000 N 
ATOM     19  N   UNL     1       3.085   3.390  16.693  0.00  0.00    +0.000 NA
ATOM     20  N   UNL     1       2.172   2.885  17.385  0.00  0.00    +0.000 NA
ATOM     21  C   UNL     1       2.046   3.265  18.728  0.00  0.00    +0.000 A 
ATOM     22  C   UNL     1       1.282   2.479  19.597  0.00  0.00    +0.000 A 
ATOM     23  C   UNL     1       1.235   2.769  20.965  0.00  0.00    +0.000 A 
ATOM     24  C   UNL     1       1.935   3.863  21.475  0.00  0.00    +0.000 A 
ATOM     25  C   UNL     1       2.651   4.686  20.610  0.00  0.00    +0.000 A 
ATOM     26  C   UNL     1       2.688   4.378  19.247  0.00  0.00    +0.000 A 
ATOM     27  C   UNL     1       3.497   5.147  18.310  0.00  0.00    +0.000 A 
ATOM     28  O   UNL     1       3.945   6.242  18.636  0.00  0.00    +0.000 OA
ENDBRANCH  17  18
ENDBRANCH  16  17
ENDBRANCH   5  16
TORSDOF 5
ENDMDL
MODEL 2
REMARK VINA RESULT:      -8.8      1.272      1.589
REMARK  Name = 
REMARK  6 active torsions:
REMARK  status: ('A' for Active; 'I' for Inactive)
REMARK    1  A    between atoms: C_1  and  C_2
REMARK    2  A    between atoms: C_2  and  C_3
REMARK    3  A    between atoms: C_6  and  N_7
REMARK    4  A    between atoms: C_11  and  S_12
REMARK    5  A    between atoms: S_12  and  C_13
REMARK    6  A    between atoms: C_13  and  N_14
REMARK                            x       y       z     vdW  Elec       q    Type
REMARK                         _______ _______ _______ _____ _____    ______ ____
ROOT
ATOM      1  N   UNL     1       8.737   8.438  19.184  0.00  0.00    +0.000 N 
ATOM      2  C   UNL     1       8.228   7.596  18.248  0.00  0.00    +0.000 A 
ATOM      3  N   UNL     1       7.995   7.834  16.971  0.00  0.00    +0.000 NA
ATOM      4  N   UNL     1       7.444   6.763  16.304  0.00  0.00    +0.000 NA
ATOM      5  C   UNL     1       7.263   5.736  17.100  0.00  0.00    +0.000 A 
ATOM      6  S   UNL     1       7.782   5.989  18.710  0.00  0.00    +0.000 S 
ATOM      7  H   UNL     1       8.859   8.065  20.116  0.00  0.00    +0.000 HD
ENDROOT
BRANCH   1  11
ATOM      8  C   UNL     1       9.201  12.660  19.062  0.00  0.00    +0.000 A 
ATOM      9  C   UNL     1       9.423  11.938  20.239  0.00  0.00    +0.000 A 
ATOM     10  C   UNL     1       9.275  10.544  20.254  0.00  0.00    +0.000 A 
ATOM     11  C   UNL     1       8.910   9.841  19.098  0.00  0.00    +0.000 A 
ATOM     12  C   UNL     1       8.706  10.575  17.922  0.00  0.00    +0.000 A 
ATOM     13  C   UNL     1       8.848  11.962  17.904  0.00  0.00    +0.000 A 
BRANCH   8  15
ATOM     14  C   UNL     1      10.849  14.502  18.752  0.00  0.00    +0.000 C 
ATOM     15  C   UNL     1       9.393  14.152  19.017  0.00  0.00    +0.000 C 
ENDBRANCH   8  15
ENDBRANCH   1  11
BRANCH   5  16
ATOM     16  S   UNL     1       6.555   4.239  16.558  0.00  0.00    +0.000 S 
BRANCH  16  17
ATOM     17  C   UNL     1       4.785   4.630  16.761  0.00  0.00    +0.000 C 
BRANCH  17  18
ATOM     18  N   UNL     1       4.243   3.881  17.882  0.00  0.00    +0.000 N 
ATOM     19  N   UNL     1       5.108   3.570  18.896  0.00  0.00    +0.000 NA
ATOM     20  N   UNL     1       4.710   2.976  19.924  0.00  0.00    +0.000 NA
ATOM     21  C   UNL     1       3.335   2.909  20.182  0.00  0.00    +0.000 A 
ATOM     22  C   UNL     1       2.891   2.572  21.465  0.00  0.00    +0.000 A 
ATOM     23  C   UNL     1       1.528   2.612  21.781  0.00  0.00    +0.000 A 
ATOM     24  C   UNL     1       0.593   2.970  20.809  0.00  0.00    +0.000 A 
ATOM     25  C   UNL     1       1.018   3.250  19.514  0.00  0.00    +0.000 A 
ATOM     26  C   UNL     1       2.385   3.207  19.219  0.00  0.00    +0.000 A 
ATOM     27  C   UNL     1       2.896   3.583  17.907  0.00  0.00    +0.000 A 
ATOM     28  O   UNL     1       2.133   3.680  16.952  0.00  0.00    +0.000 OA
ENDBRANCH  17  18
ENDBRANCH  16  17
ENDBRANCH   5  16
TORSDOF 5
ENDMDL
MODEL 3
REMARK VINA RESULT:      -8.4      1.683      2.192
REMARK  Name = 
REMARK  6 active torsions:
REMARK  status: ('A' for Active; 'I' for Inactive)
REMARK    1  A    between atoms: C_1  and  C_2
REMARK    2  A    between atoms: C_2  and  C_3
REMARK    3  A    between atoms: C_6  and  N_7
REMARK    4  A    between atoms: C_11  and  S_12
REMARK    5  A    between atoms: S_12  and  C_13
REMARK    6  A    between atoms: C_13  and  N_14
REMARK                            x       y       z     vdW  Elec       q    Type
REMARK                         _______ _______ _______ _____ _____    ______ ____
ROOT
ATOM      1  N   UNL     1       7.889   9.658  17.709  0.00  0.00    +0.000 N 
ATOM      2  C   UNL     1       7.849   8.311  17.878  0.00  0.00    +0.000 A 
ATOM      3  N   UNL     1       8.402   7.588  18.833  0.00  0.00    +0.000 NA
ATOM      4  N   UNL     1       8.190   6.235  18.690  0.00  0.00    +0.000 NA
ATOM      5  C   UNL     1       7.486   5.964  17.618  0.00  0.00    +0.000 A 
ATOM      6  S   UNL     1       7.002   7.340  16.724  0.00  0.00    +0.000 S 
ATOM      7  H   UNL     1       7.385  10.035  16.917  0.00  0.00    +0.000 HD
ENDROOT
BRANCH   1  11
ATOM      8  C   UNL     1      10.452  12.522  19.520  0.00  0.00    +0.000 A 
ATOM      9  C   UNL     1       9.761  12.809  18.338  0.00  0.00    +0.000 A 
ATOM     10  C   UNL     1       8.912  11.853  17.764  0.00  0.00    +0.000 A 
ATOM     11  C   UNL     1       8.728  10.597  18.357  0.00  0.00    +0.000 A 
ATOM     12  C   UNL     1       9.415  10.328  19.548  0.00  0.00    +0.000 A 
ATOM     13  C   UNL     1      10.264  11.275  20.121  0.00  0.00    +0.000 A 
BRANCH   8  15
ATOM     14  C   UNL     1      12.078  14.368  19.126  0.00  0.00    +0.000 C 
ATOM     15  C   UNL     1      11.338  13.550  20.172  0.00  0.00    +0.000 C 
ENDBRANCH   8  15
ENDBRANCH   1  11
BRANCH   5  16
ATOM     16  S   UNL     1       7.076   4.337  17.146  0.00  0.00    +0.000 S 
BRANCH  16  17
ATOM     17  C   UNL     1       5.275   4.513  16.917  0.00  0.00    +0.000 C 
BRANCH  17  18
ATOM     18  N   UNL     1       4.575   3.813  17.981  0.00  0.00    +0.000 N 
ATOM     19  N   UNL     1       5.293   3.524  19.111  0.00  0.00    +0.000 NA
ATOM     20  N   UNL     1       4.751   2.973  20.096  0.00  0.00    +0.000 NA
ATOM     21  C   UNL     1       3.353   2.937  20.171  0.00  0.00    +0.000 A 
ATOM     22  C   UNL     1       2.736   2.652  21.394  0.00  0.00    +0.000 A 
ATOM     23  C   UNL     1       1.345   2.725  21.525  0.00  0.00    +0.000 A 
ATOM     24  C   UNL     1       0.554   3.063  20.427  0.00  0.00    +0.000 A 
ATOM     25  C   UNL     1       1.152   3.290  19.191  0.00  0.00    +0.000 A 
ATOM     26  C   UNL     1       2.544   3.216  19.081  0.00  0.00    +0.000 A 
ATOM     27  C   UNL     1       3.231   3.537  17.837  0.00  0.00    +0.000 A 
ATOM     28  O   UNL     1       2.603   3.613  16.786  0.00  0.00    +0.000 OA
ENDBRANCH  17  18
ENDBRANCH  16  17
ENDBRANCH   5  16
TORSDOF 5
ENDMDL
MODEL 4
REMARK VINA RESULT:      -8.2      1.269      1.637
REMARK  Name = 
REMARK  6 active torsions:
REMARK  status: ('A' for Active; 'I' for Inactive)
REMARK    1  A    between atoms: C_1  and  C_2
REMARK    2  A    between atoms: C_2  and  C_3
REMARK    3  A    between atoms: C_6  and  N_7
REMARK    4  A    between atoms: C_11  and  S_12
REMARK    5  A    between atoms: S_12  and  C_13
REMARK    6  A    between atoms: C_13  and  N_14
REMARK                            x       y       z     vdW  Elec       q    Type
REMARK                         _______ _______ _______ _____ _____    ______ ____
ROOT
ATOM      1  N   UNL     1       7.981   9.658  17.724  0.00  0.00    +0.000 N 
ATOM      2  C   UNL     1       7.854   8.322  17.929  0.00  0.00    +0.000 A 
ATOM      3  N   UNL     1       8.405   7.581  18.872  0.00  0.00    +0.000 NA
ATOM      4  N   UNL     1       8.090   6.244  18.776  0.00  0.00    +0.000 NA
ATOM      5  C   UNL     1       7.310   6.002  17.750  0.00  0.00    +0.000 A 
ATOM      6  S   UNL     1       6.877   7.389  16.848  0.00  0.00    +0.000 S 
ATOM      7  H   UNL     1       7.462  10.053  16.950  0.00  0.00    +0.000 HD
ENDROOT
BRANCH   1  11
ATOM      8  C   UNL     1      10.852  12.351  19.321  0.00  0.00    +0.000 A 
ATOM      9  C   UNL     1      10.237  12.592  18.089  0.00  0.00    +0.000 A 
ATOM     10  C   UNL     1       9.284  11.695  17.586  0.00  0.00    +0.000 A 
ATOM     11  C   UNL     1       8.920  10.547  18.301  0.00  0.00    +0.000 A 
ATOM     12  C   UNL     1       9.533  10.326  19.541  0.00  0.00    +0.000 A 
ATOM     13  C   UNL     1      10.485  11.213  20.044  0.00  0.00    +0.000 A 
BRANCH   8  15
ATOM     14  C   UNL     1      11.178  14.640  20.250  0.00  0.00    +0.000 C 
ATOM     15  C   UNL     1      11.849  13.322  19.896  0.00  0.00    +0.000 C 
ENDBRANCH   8  15
ENDBRANCH   1  11
BRANCH   5  16
ATOM     16  S   UNL     1       6.759   4.399  17.343  0.00  0.00    +0.000 S 
BRANCH  16  17
ATOM     17  C   UNL     1       5.342   4.809  16.270  0.00  0.00    +0.000 C 
BRANCH  17  18
ATOM     18  N   UNL     1       4.104   4.415  16.922  0.00  0.00    +0.000 N 
ATOM     19  N   UNL     1       3.643   3.151  16.667  0.00  0.00    +0.000 NA
ATOM     20  N   UNL     1       2.615   2.714  17.232  0.00  0.00    +0.000 NA
ATOM     21  C   UNL     1       2.115   3.388  18.353  0.00  0.00    +0.000 A 
ATOM     22  C   UNL     1       1.203   2.743  19.194  0.00  0.00    +0.000 A 
ATOM     23  C   UNL     1       0.777   3.348  20.382  0.00  0.00    +0.000 A 
ATOM     24  C   UNL     1       1.245   4.615  20.731  0.00  0.00    +0.000 A 
ATOM     25  C   UNL     1       2.107   5.291  19.873  0.00  0.00    +0.000 A 
ATOM     26  C   UNL     1       2.523   4.668  18.691  0.00  0.00    +0.000 A 
ATOM     27  C   UNL     1       3.497   5.288  17.802  0.00  0.00    +0.000 A 
ATOM     28  O   UNL     1       3.771   6.478  17.919  0.00  0.00    +0.000 OA
ENDBRANCH  17  18
ENDBRANCH  16  17
ENDBRANCH   5  16
TORSDOF 5
ENDMDL
MODEL 5
REMARK VINA RESULT:      -8.0      7.475      9.541
REMARK  Name = 
REMARK  6 active torsions:
REMARK  status: ('A' for Active; 'I' for Inactive)
REMARK    1  A    between atoms: C_1  and  C_2
REMARK    2  A    between atoms: C_2  and  C_3
REMARK    3  A    between atoms: C_6  and  N_7
REMARK    4  A    between atoms: C_11  and  S_12
REMARK    5  A    between atoms: S_12  and  C_13
REMARK    6  A    between atoms: C_13  and  N_14
REMARK                            x       y       z     vdW  Elec       q    Type
REMARK                         _______ _______ _______ _____ _____    ______ ____
ROOT
ATOM      1  N   UNL     1       2.791   6.563  18.546  0.00  0.00    +0.000 N 
ATOM      2  C   UNL     1       2.306   7.826  18.425  0.00  0.00    +0.000 A 
ATOM      3  N   UNL     1       2.365   8.630  17.380  0.00  0.00    +0.000 NA
ATOM      4  N   UNL     1       1.795   9.864  17.603  0.00  0.00    +0.000 NA
ATOM      5  C   UNL     1       1.324   9.968  18.823  0.00  0.00    +0.000 A 
ATOM      6  S   UNL     1       1.511   8.560  19.775  0.00  0.00    +0.000 S 
ATOM      7  H   UNL     1       2.633   6.096  19.429  0.00  0.00    +0.000 HD
ENDROOT
BRANCH   1  11
ATOM      8  C   UNL     1       5.483   4.644  15.877  0.00  0.00    +0.000 A 
ATOM      9  C   UNL     1       5.506   6.030  16.061  0.00  0.00    +0.000 A 
ATOM     10  C   UNL     1       4.616   6.641  16.956  0.00  0.00    +0.000 A 
ATOM     11  C   UNL     1       3.691   5.886  17.688  0.00  0.00    +0.000 A 
ATOM     12  C   UNL     1       3.688   4.497  17.505  0.00  0.00    +0.000 A 
ATOM     13  C   UNL     1       4.569   3.885  16.613  0.00  0.00    +0.000 A 
BRANCH   8  15
ATOM     14  C   UNL     1       5.914   3.926  13.531  0.00  0.00    +0.000 C 
ATOM     15  C   UNL     1       6.457   3.966  14.951  0.00  0.00    +0.000 C 
ENDBRANCH   8  15
ENDBRANCH   1  11
BRANCH   5  16
ATOM     16  S   UNL     1       0.569  11.421  19.420  0.00  0.00    +0.000 S 
BRANCH  16  17
ATOM     17  C   UNL     1      -0.353  10.743  20.841  0.00  0.00    +0.000 C 
BRANCH  17  18
ATOM     18  N   UNL     1      -1.448  11.634  21.184  0.00  0.00    +0.000 N 
ATOM     19  N   UNL     1      -2.188  12.137  20.147  0.00  0.00    +0.000 NA
ATOM     20  N   UNL     1      -3.182  12.867  20.359  0.00  0.00    +0.000 NA
ATOM     21  C   UNL     1      -3.729  12.914  21.648  0.00  0.00    +0.000 A 
ATOM     22  C   UNL     1      -5.017  13.428  21.831  0.00  0.00    +0.000 A 
ATOM     23  C   UNL     1      -5.632  13.381  23.087  0.00  0.00    +0.000 A 
ATOM     24  C   UNL     1      -4.956  12.836  24.179  0.00  0.00    +0.000 A 
ATOM     25  C   UNL     1      -3.652  12.375  24.022  0.00  0.00    +0.000 A 
ATOM     26  C   UNL     1      -3.056  12.429  22.758  0.00  0.00    +0.000 A 
ATOM     27  C   UNL     1      -1.731  11.875  22.513  0.00  0.00    +0.000 A 
ATOM     28  O   UNL     1      -0.994  11.596  23.454  0.00  0.00    +0.000 OA
ENDBRANCH  17  18
ENDBRANCH  16  17
ENDBRANCH   5  16
TORSDOF 5
ENDMDL
MODEL 6
REMARK VINA RESULT:      -7.9      1.284      1.937
REMARK  Name = 
REMARK  6 active torsions:
REMARK  status: ('A' for Active; 'I' for Inactive)
REMARK    1  A    between atoms: C_1  and  C_2
REMARK    2  A    between atoms: C_2  and  C_3
REMARK    3  A    between atoms: C_6  and  N_7
REMARK    4  A    between atoms: C_11  and  S_12
REMARK    5  A    between atoms: S_12  and  C_13
REMARK    6  A    between atoms: C_13  and  N_14
REMARK                            x       y       z     vdW  Elec       q    Type
REMARK                         _______ _______ _______ _____ _____    ______ ____
ROOT
ATOM      1  N   UNL     1       9.078   9.006  19.400  0.00  0.00    +0.000 N 
ATOM      2  C   UNL     1       8.444   8.234  18.481  0.00  0.00    +0.000 A 
ATOM      3  N   UNL     1       7.949   8.591  17.311  0.00  0.00    +0.000 NA
ATOM      4  N   UNL     1       7.340   7.559  16.633  0.00  0.00    +0.000 NA
ATOM      5  C   UNL     1       7.380   6.439  17.316  0.00  0.00    +0.000 A 
ATOM      6  S   UNL     1       8.192   6.555  18.816  0.00  0.00    +0.000 S 
ATOM      7  H   UNL     1       9.404   8.544  20.239  0.00  0.00    +0.000 HD
ENDROOT
BRANCH   1  11
ATOM      8  C   UNL     1       9.374  13.244  19.448  0.00  0.00    +0.000 A 
ATOM      9  C   UNL     1       9.281  12.535  18.246  0.00  0.00    +0.000 A 
ATOM     10  C   UNL     1       9.173  11.138  18.255  0.00  0.00    +0.000 A 
ATOM     11  C   UNL     1       9.149  10.419  19.457  0.00  0.00    +0.000 A 
ATOM     12  C   UNL     1       9.228  11.143  20.654  0.00  0.00    +0.000 A 
ATOM     13  C   UNL     1       9.339  12.533  20.651  0.00  0.00    +0.000 A 
BRANCH   8  15
ATOM     14  C   UNL     1       9.954  15.274  18.126  0.00  0.00    +0.000 C 
ATOM     15  C   UNL     1       9.452  14.748  19.461  0.00  0.00    +0.000 C 
ENDBRANCH   8  15
ENDBRANCH   1  11
BRANCH   5  16
ATOM     16  S   UNL     1       6.667   4.958  16.737  0.00  0.00    +0.000 S 
BRANCH  16  17
ATOM     17  C   UNL     1       4.937   5.496  16.526  0.00  0.00    +0.000 C 
BRANCH  17  18
ATOM     18  N   UNL     1       4.151   5.078  17.674  0.00  0.00    +0.000 N 
ATOM     19  N   UNL     1       3.844   6.039  18.600  0.00  0.00    +0.000 NA
ATOM     20  N   UNL     1       3.124   5.775  19.589  0.00  0.00    +0.000 NA
ATOM     21  C   UNL     1       2.374   4.591  19.590  0.00  0.00    +0.000 A 
ATOM     22  C   UNL     1       1.319   4.445  20.496  0.00  0.00    +0.000 A 
ATOM     23  C   UNL     1       0.482   3.324  20.440  0.00  0.00    +0.000 A 
ATOM     24  C   UNL     1       0.706   2.328  19.489  0.00  0.00    +0.000 A 
ATOM     25  C   UNL     1       1.788   2.435  18.621  0.00  0.00    +0.000 A 
ATOM     26  C   UNL     1       2.611   3.564  18.691  0.00  0.00    +0.000 A 
ATOM     27  C   UNL     1       3.701   3.775  17.746  0.00  0.00    +0.000 A 
ATOM     28  O   UNL     1       4.098   2.851  17.045  0.00  0.00    +0.000 OA
ENDBRANCH  17  18
ENDBRANCH  16  17
ENDBRANCH   5  16
TORSDOF 5
ENDMDL
MODEL 7
REMARK VINA RESULT:      -7.8      7.307      9.231
REMARK  Name = 
REMARK  6 active torsions:
REMARK  status: ('A' for Active; 'I' for Inactive)
REMARK    1  A    between atoms: C_1  and  C_2
REMARK    2  A    between atoms: C_2  and  C_3
REMARK    3  A    between atoms: C_6  and  N_7
REMARK    4  A    between atoms: C_11  and  S_12
REMARK    5  A    between atoms: S_12  and  C_13
REMARK    6  A    between atoms: C_13  and  N_14
REMARK                            x       y       z     vdW  Elec       q    Type
REMARK                         _______ _______ _______ _____ _____    ______ ____
ROOT
ATOM      1  N   UNL     1       2.917   6.423  18.927  0.00  0.00    +0.000 N 
ATOM      2  C   UNL     1       2.205   7.579  18.953  0.00  0.00    +0.000 A 
ATOM      3  N   UNL     1       1.949   8.407  17.959  0.00  0.00    +0.000 NA
ATOM      4  N   UNL     1       1.217   9.511  18.336  0.00  0.00    +0.000 NA
ATOM      5  C   UNL     1       0.944   9.496  19.619  0.00  0.00    +0.000 A 
ATOM      6  S   UNL     1       1.529   8.121  20.451  0.00  0.00    +0.000 S 
ATOM      7  H   UNL     1       2.991   5.912  19.797  0.00  0.00    +0.000 HD
ENDROOT
BRANCH   1  11
ATOM      8  C   UNL     1       5.482   4.852  15.926  0.00  0.00    +0.000 A 
ATOM      9  C   UNL     1       4.552   4.042  16.585  0.00  0.00    +0.000 A 
ATOM     10  C   UNL     1       3.708   4.584  17.564  0.00  0.00    +0.000 A 
ATOM     11  C   UNL     1       3.768   5.942  17.902  0.00  0.00    +0.000 A 
ATOM     12  C   UNL     1       4.693   6.745  17.224  0.00  0.00    +0.000 A 
ATOM     13  C   UNL     1       5.538   6.210  16.252  0.00  0.00    +0.000 A 
BRANCH   8  15
ATOM     14  C   UNL     1       5.572   4.016  13.581  0.00  0.00    +0.000 C 
ATOM     15  C   UNL     1       6.370   4.298  14.844  0.00  0.00    +0.000 C 
ENDBRANCH   8  15
ENDBRANCH   1  11
BRANCH   5  16
ATOM     16  S   UNL     1       0.055  10.772  20.406  0.00  0.00    +0.000 S 
BRANCH  16  17
ATOM     17  C   UNL     1      -0.224  11.889  18.991  0.00  0.00    +0.000 C 
BRANCH  17  18
ATOM     18  N   UNL     1      -1.639  11.919  18.663  0.00  0.00    +0.000 N 
ATOM     19  N   UNL     1      -2.030  11.242  17.538  0.00  0.00    +0.000 NA
ATOM     20  N   UNL     1      -3.238  11.171  17.215  0.00  0.00    +0.000 NA
ATOM     21  C   UNL     1      -4.216  11.508  18.160  0.00  0.00    +0.000 A 
ATOM     22  C   UNL     1      -5.541  11.111  17.951  0.00  0.00    +0.000 A 
ATOM     23  C   UNL     1      -6.514  11.331  18.932  0.00  0.00    +0.000 A 
ATOM     24  C   UNL     1      -6.176  11.970  20.125  0.00  0.00    +0.000 A 
ATOM     25  C   UNL     1      -4.874  12.422  20.319  0.00  0.00    +0.000 A 
ATOM     26  C   UNL     1      -3.915  12.190  19.328  0.00  0.00    +0.000 A 
ATOM     27  C   UNL     1      -2.517  12.556  19.516  0.00  0.00    +0.000 A 
ATOM     28  O   UNL     1      -2.194  13.317  20.422  0.00  0.00    +0.000 OA
ENDBRANCH  17  18
ENDBRANCH  16  17
ENDBRANCH   5  16
TORSDOF 5
ENDMDL
MODEL 8
REMARK VINA RESULT:      -7.8      7.528      9.669
REMARK  Name = 
REMARK  6 active torsions:
REMARK  status: ('A' for Active; 'I' for Inactive)
REMARK    1  A    between atoms: C_1  and  C_2
REMARK    2  A    between atoms: C_2  and  C_3
REMARK    3  A    between atoms: C_6  and  N_7
REMARK    4  A    between atoms: C_11  and  S_12
REMARK    5  A    between atoms: S_12  and  C_13
REMARK    6  A    between atoms: C_13  and  N_14
REMARK                            x       y       z     vdW  Elec       q    Type
REMARK                         _______ _______ _______ _____ _____    ______ ____
ROOT
ATOM      1  N   UNL     1       2.834   6.746  18.641  0.00  0.00    +0.000 N 
ATOM      2  C   UNL     1       2.280   7.976  18.488  0.00  0.00    +0.000 A 
ATOM      3  N   UNL     1       2.250   8.733  17.407  0.00  0.00    +0.000 NA
ATOM      4  N   UNL     1       1.628   9.946  17.602  0.00  0.00    +0.000 NA
ATOM      5  C   UNL     1       1.209  10.083  18.837  0.00  0.00    +0.000 A 
ATOM      6  S   UNL     1       1.510   8.732  19.841  0.00  0.00    +0.000 S 
ATOM      7  H   UNL     1       2.740   6.313  19.550  0.00  0.00    +0.000 HD
ENDROOT
BRANCH   1  11
ATOM      8  C   UNL     1       5.499   4.608  16.116  0.00  0.00    +0.000 A 
ATOM      9  C   UNL     1       4.375   3.992  16.674  0.00  0.00    +0.000 A 
ATOM     10  C   UNL     1       3.502   4.720  17.495  0.00  0.00    +0.000 A 
ATOM     11  C   UNL     1       3.728   6.074  17.772  0.00  0.00    +0.000 A 
ATOM     12  C   UNL     1       4.850   6.682  17.196  0.00  0.00    +0.000 A 
ATOM     13  C   UNL     1       5.723   5.962  16.381  0.00  0.00    +0.000 A 
BRANCH   8  15
ATOM     14  C   UNL     1       5.949   3.939  13.759  0.00  0.00    +0.000 C 
ATOM     15  C   UNL     1       6.426   3.853  15.200  0.00  0.00    +0.000 C 
ENDBRANCH   8  15
ENDBRANCH   1  11
BRANCH   5  16
ATOM     16  S   UNL     1       0.408  11.523  19.405  0.00  0.00    +0.000 S 
BRANCH  16  17
ATOM     17  C   UNL     1       0.574  11.294  21.207  0.00  0.00    +0.000 C 
BRANCH  17  18
ATOM     18  N   UNL     1      -0.307  12.217  21.901  0.00  0.00    +0.000 N 
ATOM     19  N   UNL     1      -0.292  13.521  21.486  0.00  0.00    +0.000 NA
ATOM     20  N   UNL     1      -1.061  14.369  21.993  0.00  0.00    +0.000 NA
ATOM     21  C   UNL     1      -2.151  13.929  22.757  0.00  0.00    +0.000 A 
ATOM     22  C   UNL     1      -3.199  14.812  23.033  0.00  0.00    +0.000 A 
ATOM     23  C   UNL     1      -4.351  14.368  23.691  0.00  0.00    +0.000 A 
ATOM     24  C   UNL     1      -4.457  13.038  24.100  0.00  0.00    +0.000 A 
ATOM     25  C   UNL     1      -3.395  12.164  23.883  0.00  0.00    +0.000 A 
ATOM     26  C   UNL     1      -2.254  12.628  23.220  0.00  0.00    +0.000 A 
ATOM     27  C   UNL     1      -1.152  11.736  22.882  0.00  0.00    +0.000 A 
ATOM     28  O   UNL     1      -1.070  10.629  23.404  0.00  0.00    +0.000 OA
ENDBRANCH  17  18
ENDBRANCH  16  17
ENDBRANCH   5  16
TORSDOF 5
ENDMDL
MODEL 9
REMARK VINA RESULT:      -7.8      7.838      9.739
REMARK  Name = 
REMARK  6 active torsions:
REMARK  status: ('A' for Active; 'I' for Inactive)
REMARK    1  A    between atoms: C_1  and  C_2
REMARK    2  A    between atoms: C_2  and  C_3
REMARK    3  A    between atoms: C_6  and  N_7
REMARK    4  A    between atoms: C_11  and  S_12
REMARK    5  A    between atoms: S_12  and  C_13
REMARK    6  A    between atoms: C_13  and  N_14
REMARK                            x       y       z     vdW  Elec       q    Type
REMARK                         _______ _______ _______ _____ _____    ______ ____
ROOT
ATOM      1  N   UNL     1       2.504   6.870  19.152  0.00  0.00    +0.000 N 
ATOM      2  C   UNL     1       1.933   8.090  18.982  0.00  0.00    +0.000 A 
ATOM      3  N   UNL     1       1.793   8.783  17.868  0.00  0.00    +0.000 NA
ATOM      4  N   UNL     1       1.188  10.007  18.053  0.00  0.00    +0.000 NA
ATOM      5  C   UNL     1       0.892  10.216  19.313  0.00  0.00    +0.000 A 
ATOM      6  S   UNL     1       1.297   8.924  20.359  0.00  0.00    +0.000 S 
ATOM      7  H   UNL     1       2.503   6.491  20.089  0.00  0.00    +0.000 HD
ENDROOT
BRANCH   1  11
ATOM      8  C   UNL     1       4.915   4.585  16.503  0.00  0.00    +0.000 A 
ATOM      9  C   UNL     1       3.842   4.009  17.189  0.00  0.00    +0.000 A 
ATOM     10  C   UNL     1       3.052   4.784  18.050  0.00  0.00    +0.000 A 
ATOM     11  C   UNL     1       3.311   6.148  18.239  0.00  0.00    +0.000 A 
ATOM     12  C   UNL     1       4.381   6.716  17.534  0.00  0.00    +0.000 A 
ATOM     13  C   UNL     1       5.171   5.947  16.680  0.00  0.00    +0.000 A 
BRANCH   8  15
ATOM     14  C   UNL     1       5.845   4.470  14.195  0.00  0.00    +0.000 C 
ATOM     15  C   UNL     1       5.750   3.777  15.545  0.00  0.00    +0.000 C 
ENDBRANCH   8  15
ENDBRANCH   1  11
BRANCH   5  16
ATOM     16  S   UNL     1       0.144  11.688  19.872  0.00  0.00    +0.000 S 
BRANCH  16  17
ATOM     17  C   UNL     1      -0.989  12.020  18.482  0.00  0.00    +0.000 C 
BRANCH  17  18
ATOM     18  N   UNL     1      -2.362  12.017  18.957  0.00  0.00    +0.000 N 
ATOM     19  N   UNL     1      -2.642  12.792  20.051  0.00  0.00    +0.000 NA
ATOM     20  N   UNL     1      -3.810  12.890  20.490  0.00  0.00    +0.000 NA
ATOM     21  C   UNL     1      -4.877  12.466  19.687  0.00  0.00    +0.000 A 
ATOM     22  C   UNL     1      -6.177  12.878  19.997  0.00  0.00    +0.000 A 
ATOM     23  C   UNL     1      -7.245  12.567  19.147  0.00  0.00    +0.000 A 
ATOM     24  C   UNL     1      -7.025  11.823  17.988  0.00  0.00    +0.000 A 
ATOM     25  C   UNL     1      -5.745  11.357  17.700  0.00  0.00    +0.000 A 
ATOM     26  C   UNL     1      -4.691  11.681  18.561  0.00  0.00    +0.000 A 
ATOM     27  C   UNL     1      -3.316  11.303  18.261  0.00  0.00    +0.000 A 
ATOM     28  O   UNL     1      -3.080  10.463  17.399  0.00  0.00    +0.000 OA
ENDBRANCH  17  18
ENDBRANCH  16  17
ENDBRANCH   5  16
TORSDOF 5
ENDMDL
