MODEL 1
REMARK VINA RESULT:      -7.6      0.000      0.000
REMARK  Name = 
REMARK  12 active torsions:
REMARK  status: ('A' for Active; 'I' for Inactive)
REMARK    1  A    between atoms: C_1  and  O_2
REMARK    2  A    between atoms: O_2  and  C_3
REMARK    3  A    between atoms: C_6  and  C_7
REMARK    4  A    between atoms: C_7  and  N_8
REMARK    5  A    between atoms: C_7  and  C_17
REMARK    6  A    between atoms: N_8  and  C_9
REMARK    7  A    between atoms: C_15  and  C_16
REMARK    8  A    between atoms: C_26  and  O_27
REMARK    9  A    between atoms: C_28  and  O_29
REMARK   10  A    between atoms: O_29  and  C_30
REMARK   11  A    between atoms: C_31  and  O_32
REMARK   12  A    between atoms: O_32  and  C_33
REMARK                            x       y       z     vdW  Elec       q    Type
REMARK                         _______ _______ _______ _____ _____    ______ ____
ROOT
ATOM      1  C   UNL     1      -0.200  11.160  19.473  0.00  0.00    +0.000 C 
ENDROOT
BRANCH   1   2
ATOM      2  C   UNL     1       0.722   9.925  19.678  0.00  0.00    +0.000 A 
ATOM      3  C   UNL     1       0.642   9.141  20.842  0.00  0.00    +0.000 A 
ATOM      4  C   UNL     1       1.294   7.902  20.932  0.00  0.00    +0.000 A 
ATOM      5  C   UNL     1       2.045   7.405  19.857  0.00  0.00    +0.000 A 
ATOM      6  C   UNL     1       2.572   6.104  19.837  0.00  0.00    +0.000 A 
ATOM      7  C   UNL     1       3.287   5.665  18.729  0.00  0.00    +0.000 A 
ATOM      8  C   UNL     1       3.501   6.558  17.693  0.00  0.00    +0.000 A 
ATOM      9  N   UNL     1       2.985   7.804  17.662  0.00  0.00    +0.000 NA
ATOM     10  C   UNL     1       2.235   8.199  18.717  0.00  0.00    +0.000 A 
ATOM     11  C   UNL     1       1.548   9.414  18.648  0.00  0.00    +0.000 A 
BRANCH  11  12
ATOM     12  O   UNL     1       1.664  10.090  17.443  0.00  0.00    +0.000 OA
ATOM     13  H   UNL     1       1.476   9.397  16.769  0.00  0.00    +0.000 HD
ENDBRANCH  11  12
ENDBRANCH   1   2
BRANCH   1  17
ATOM     14  C   UNL     1       1.912  14.987  19.795  0.00  0.00    +0.000 A 
ATOM     15  C   UNL     1       1.530  14.453  18.563  0.00  0.00    +0.000 A 
ATOM     16  C   UNL     1       0.844  13.239  18.489  0.00  0.00    +0.000 A 
ATOM     17  C   UNL     1       0.464  12.539  19.654  0.00  0.00    +0.000 A 
ATOM     18  C   UNL     1       0.732  13.151  20.901  0.00  0.00    +0.000 A 
ATOM     19  C   UNL     1       1.500  14.352  20.981  0.00  0.00    +0.000 A 
BRANCH  14  21
ATOM     20  C   UNL     1       3.333  16.369  18.489  0.00  0.00    +0.000 C 
ATOM     21  O   UNL     1       2.599  16.169  19.694  0.00  0.00    +0.000 OA
ENDBRANCH  14  21
BRANCH  18  22
ATOM     22  O   UNL     1       0.199  12.508  21.996  0.00  0.00    +0.000 OA
ATOM     23  C   UNL     1      -1.047  13.012  22.470  0.00  0.00    +0.000 C 
ENDBRANCH  18  22
BRANCH  19  24
ATOM     24  O   UNL     1       1.908  14.746  22.232  0.00  0.00    +0.000 OA
ATOM     25  C   UNL     1       1.319  15.921  22.777  0.00  0.00    +0.000 C 
ENDBRANCH  19  24
ENDBRANCH   1  17
BRANCH   1  26
ATOM     26  N   UNL     1      -0.943  11.044  18.211  0.00  0.00    +0.000 N 
ATOM     27  H   UNL     1      -0.722  10.131  17.816  0.00  0.00    +0.000 HD
BRANCH  26  28
ATOM     28  C   UNL     1      -2.334  11.187  18.166  0.00  0.00    +0.000 A 
ATOM     29  N   UNL     1      -2.986  11.861  19.139  0.00  0.00    +0.000 NA
ATOM     30  C   UNL     1      -4.306  12.128  18.954  0.00  0.00    +0.000 A 
ATOM     31  C   UNL     1      -5.030  11.748  17.836  0.00  0.00    +0.000 A 
ATOM     32 CL   UNL     1      -6.680  12.178  17.655  0.00  0.00    +0.000 Cl
ATOM     33  C   UNL     1      -4.379  11.017  16.866  0.00  0.00    +0.000 A 
ATOM     34  C   UNL     1      -3.014  10.708  17.026  0.00  0.00    +0.000 A 
ATOM     35  C   UNL     1      -2.336   9.897  15.961  0.00  0.00    +0.000 C 
ENDBRANCH  26  28
ENDBRANCH   1  26
TORSDOF 8
ENDMDL
MODEL 2
REMARK VINA RESULT:      -7.2      1.521      1.868
REMARK  Name = 
REMARK  12 active torsions:
REMARK  status: ('A' for Active; 'I' for Inactive)
REMARK    1  A    between atoms: C_1  and  O_2
REMARK    2  A    between atoms: O_2  and  C_3
REMARK    3  A    between atoms: C_6  and  C_7
REMARK    4  A    between atoms: C_7  and  N_8
REMARK    5  A    between atoms: C_7  and  C_17
REMARK    6  A    between atoms: N_8  and  C_9
REMARK    7  A    between atoms: C_15  and  C_16
REMARK    8  A    between atoms: C_26  and  O_27
REMARK    9  A    between atoms: C_28  and  O_29
REMARK   10  A    between atoms: O_29  and  C_30
REMARK   11  A    between atoms: C_31  and  O_32
REMARK   12  A    between atoms: O_32  and  C_33
REMARK                            x       y       z     vdW  Elec       q    Type
REMARK                         _______ _______ _______ _____ _____    ______ ____
ROOT
ATOM      1  C   UNL     1       0.506  11.224  19.167  0.00  0.00    +0.000 C 
ENDROOT
BRANCH   1   2
ATOM      2  C   UNL     1       1.092   9.805  18.925  0.00  0.00    +0.000 A 
ATOM      3  C   UNL     1       1.893   9.530  17.803  0.00  0.00    +0.000 A 
ATOM      4  C   UNL     1       2.614   8.330  17.700  0.00  0.00    +0.000 A 
ATOM      5  C   UNL     1       2.558   7.369  18.718  0.00  0.00    +0.000 A 
ATOM      6  C   UNL     1       3.388   6.236  18.738  0.00  0.00    +0.000 A 
ATOM      7  C   UNL     1       3.300   5.332  19.791  0.00  0.00    +0.000 A 
ATOM      8  C   UNL     1       2.346   5.559  20.768  0.00  0.00    +0.000 A 
ATOM      9  N   UNL     1       1.554   6.651  20.800  0.00  0.00    +0.000 NA
ATOM     10  C   UNL     1       1.694   7.557  19.805  0.00  0.00    +0.000 A 
ATOM     11  C   UNL     1       1.013   8.775  19.892  0.00  0.00    +0.000 A 
BRANCH  11  12
ATOM     12  O   UNL     1       0.281   8.960  21.055  0.00  0.00    +0.000 OA
ATOM     13  H   UNL     1      -0.544   9.395  20.744  0.00  0.00    +0.000 HD
ENDBRANCH  11  12
ENDBRANCH   1   2
BRANCH   1  17
ATOM     14  C   UNL     1       3.626  14.280  19.533  0.00  0.00    +0.000 A 
ATOM     15  C   UNL     1       3.218  13.782  18.294  0.00  0.00    +0.000 A 
ATOM     16  C   UNL     1       2.209  12.821  18.204  0.00  0.00    +0.000 A 
ATOM     17  C   UNL     1       1.532  12.359  19.352  0.00  0.00    +0.000 A 
ATOM     18  C   UNL     1       1.854  12.964  20.589  0.00  0.00    +0.000 A 
ATOM     19  C   UNL     1       2.935  13.891  20.696  0.00  0.00    +0.000 A 
BRANCH  14  21
ATOM     20  C   UNL     1       5.364  15.228  18.223  0.00  0.00    +0.000 C 
ATOM     21  O   UNL     1       4.642  15.197  19.451  0.00  0.00    +0.000 OA
ENDBRANCH  14  21
BRANCH  18  22
ATOM     22  O   UNL     1       1.054  12.596  21.649  0.00  0.00    +0.000 OA
ATOM     23  C   UNL     1      -0.016  13.485  21.960  0.00  0.00    +0.000 C 
ENDBRANCH  18  22
BRANCH  19  24
ATOM     24  O   UNL     1       3.325  14.248  21.964  0.00  0.00    +0.000 OA
ATOM     25  C   UNL     1       3.066  15.585  22.379  0.00  0.00    +0.000 C 
ENDBRANCH  19  24
ENDBRANCH   1  17
BRANCH   1  26
ATOM     26  N   UNL     1      -0.518  11.538  18.161  0.00  0.00    +0.000 N 
ATOM     27  H   UNL     1      -0.396  10.878  17.394  0.00  0.00    +0.000 HD
BRANCH  26  28
ATOM     28  C   UNL     1      -1.880  11.550  18.481  0.00  0.00    +0.000 A 
ATOM     29  N   UNL     1      -2.334  12.294  19.513  0.00  0.00    +0.000 NA
ATOM     30  C   UNL     1      -3.680  12.415  19.667  0.00  0.00    +0.000 A 
ATOM     31  C   UNL     1      -4.616  11.819  18.839  0.00  0.00    +0.000 A 
ATOM     32 CL   UNL     1      -6.297  12.072  19.069  0.00  0.00    +0.000 Cl
ATOM     33  C   UNL     1      -4.154  11.018  17.817  0.00  0.00    +0.000 A 
ATOM     34  C   UNL     1      -2.768  10.856  17.632  0.00  0.00    +0.000 A 
ATOM     35  C   UNL     1      -2.295   9.966  16.520  0.00  0.00    +0.000 C 
ENDBRANCH  26  28
ENDBRANCH   1  26
TORSDOF 8
ENDMDL
MODEL 3
REMARK VINA RESULT:      -7.2      1.317      2.469
REMARK  Name = 
REMARK  12 active torsions:
REMARK  status: ('A' for Active; 'I' for Inactive)
REMARK    1  A    between atoms: C_1  and  O_2
REMARK    2  A    between atoms: O_2  and  C_3
REMARK    3  A    between atoms: C_6  and  C_7
REMARK    4  A    between atoms: C_7  and  N_8
REMARK    5  A    between atoms: C_7  and  C_17
REMARK    6  A    between atoms: N_8  and  C_9
REMARK    7  A    between atoms: C_15  and  C_16
REMARK    8  A    between atoms: C_26  and  O_27
REMARK    9  A    between atoms: C_28  and  O_29
REMARK   10  A    between atoms: O_29  and  C_30
REMARK   11  A    between atoms: C_31  and  O_32
REMARK   12  A    between atoms: O_32  and  C_33
REMARK                            x       y       z     vdW  Elec       q    Type
REMARK                         _______ _______ _______ _____ _____    ______ ____
ROOT
ATOM      1  C   UNL     1      -0.886  10.748  20.124  0.00  0.00    +0.000 C 
ENDROOT
BRANCH   1   2
ATOM      2  C   UNL     1       0.282   9.725  20.052  0.00  0.00    +0.000 A 
ATOM      3  C   UNL     1       0.493   8.787  21.078  0.00  0.00    +0.000 A 
ATOM      4  C   UNL     1       1.387   7.718  20.915  0.00  0.00    +0.000 A 
ATOM      5  C   UNL     1       2.095   7.550  19.717  0.00  0.00    +0.000 A 
ATOM      6  C   UNL     1       2.867   6.409  19.446  0.00  0.00    +0.000 A 
ATOM      7  C   UNL     1       3.526   6.293  18.227  0.00  0.00    +0.000 A 
ATOM      8  C   UNL     1       3.438   7.348  17.334  0.00  0.00    +0.000 A 
ATOM      9  N   UNL     1       2.681   8.445  17.545  0.00  0.00    +0.000 NA
ATOM     10  C   UNL     1       1.992   8.517  18.708  0.00  0.00    +0.000 A 
ATOM     11  C   UNL     1       1.072   9.553  18.891  0.00  0.00    +0.000 A 
BRANCH  11  12
ATOM     12  O   UNL     1       0.913  10.399  17.803  0.00  0.00    +0.000 OA
ATOM     13  H   UNL     1       1.150   9.835  17.033  0.00  0.00    +0.000 HD
ENDBRANCH  11  12
ENDBRANCH   1   2
BRANCH   1  17
ATOM     14  C   UNL     1      -0.522  14.262  22.719  0.00  0.00    +0.000 A 
ATOM     15  C   UNL     1      -1.094  13.068  23.164  0.00  0.00    +0.000 A 
ATOM     16  C   UNL     1      -1.182  11.958  22.322  0.00  0.00    +0.000 A 
ATOM     17  C   UNL     1      -0.651  11.984  21.015  0.00  0.00    +0.000 A 
ATOM     18  C   UNL     1       0.047  13.147  20.616  0.00  0.00    +0.000 A 
ATOM     19  C   UNL     1       0.073  14.310  21.445  0.00  0.00    +0.000 A 
BRANCH  14  21
ATOM     20  C   UNL     1      -1.801  15.857  23.925  0.00  0.00    +0.000 C 
ATOM     21  O   UNL     1      -0.535  15.261  23.657  0.00  0.00    +0.000 OA
ENDBRANCH  14  21
BRANCH  18  22
ATOM     22  O   UNL     1       0.684  13.061  19.397  0.00  0.00    +0.000 OA
ATOM     23  C   UNL     1       2.108  13.099  19.434  0.00  0.00    +0.000 C 
ENDBRANCH  18  22
BRANCH  19  24
ATOM     24  O   UNL     1       0.569  15.461  20.884  0.00  0.00    +0.000 OA
ATOM     25  C   UNL     1      -0.363  16.361  20.294  0.00  0.00    +0.000 C 
ENDBRANCH  19  24
ENDBRANCH   1  17
BRANCH   1  26
ATOM     26  N   UNL     1      -1.349  11.097  18.774  0.00  0.00    +0.000 N 
ATOM     27  H   UNL     1      -1.020  10.364  18.147  0.00  0.00    +0.000 HD
BRANCH  26  28
ATOM     28  C   UNL     1      -2.705  11.299  18.496  0.00  0.00    +0.000 A 
ATOM     29  N   UNL     1      -3.476  12.024  19.335  0.00  0.00    +0.000 NA
ATOM     30  C   UNL     1      -4.733  12.344  18.929  0.00  0.00    +0.000 A 
ATOM     31  C   UNL     1      -5.279  11.970  17.712  0.00  0.00    +0.000 A 
ATOM     32 CL   UNL     1      -6.854  12.468  17.252  0.00  0.00    +0.000 Cl
ATOM     33  C   UNL     1      -4.512  11.188  16.876  0.00  0.00    +0.000 A 
ATOM     34  C   UNL     1      -3.209  10.823  17.266  0.00  0.00    +0.000 A 
ATOM     35  C   UNL     1      -2.402   9.958  16.342  0.00  0.00    +0.000 C 
ENDBRANCH  26  28
ENDBRANCH   1  26
TORSDOF 8
ENDMDL
MODEL 4
REMARK VINA RESULT:      -7.2      1.362      1.484
REMARK  Name = 
REMARK  12 active torsions:
REMARK  status: ('A' for Active; 'I' for Inactive)
REMARK    1  A    between atoms: C_1  and  O_2
REMARK    2  A    between atoms: O_2  and  C_3
REMARK    3  A    between atoms: C_6  and  C_7
REMARK    4  A    between atoms: C_7  and  N_8
REMARK    5  A    between atoms: C_7  and  C_17
REMARK    6  A    between atoms: N_8  and  C_9
REMARK    7  A    between atoms: C_15  and  C_16
REMARK    8  A    between atoms: C_26  and  O_27
REMARK    9  A    between atoms: C_28  and  O_29
REMARK   10  A    between atoms: O_29  and  C_30
REMARK   11  A    between atoms: C_31  and  O_32
REMARK   12  A    between atoms: O_32  and  C_33
REMARK                            x       y       z     vdW  Elec       q    Type
REMARK                         _______ _______ _______ _____ _____    ______ ____
ROOT
ATOM      1  C   UNL     1       0.005  11.717  19.081  0.00  0.00    +0.000 C 
ENDROOT
BRANCH   1   2
ATOM      2  C   UNL     1       0.724  10.426  19.565  0.00  0.00    +0.000 A 
ATOM      3  C   UNL     1       0.641  10.004  20.903  0.00  0.00    +0.000 A 
ATOM      4  C   UNL     1       1.082   8.731  21.294  0.00  0.00    +0.000 A 
ATOM      5  C   UNL     1       1.617   7.837  20.357  0.00  0.00    +0.000 A 
ATOM      6  C   UNL     1       1.913   6.501  20.667  0.00  0.00    +0.000 A 
ATOM      7  C   UNL     1       2.421   5.658  19.684  0.00  0.00    +0.000 A 
ATOM      8  C   UNL     1       2.667   6.192  18.430  0.00  0.00    +0.000 A 
ATOM      9  N   UNL     1       2.366   7.461  18.086  0.00  0.00    +0.000 NA
ATOM     10  C   UNL     1       1.812   8.254  19.033  0.00  0.00    +0.000 A 
ATOM     11  C   UNL     1       1.336   9.516  18.670  0.00  0.00    +0.000 A 
BRANCH  11  12
ATOM     12  O   UNL     1       1.432   9.818  17.320  0.00  0.00    +0.000 OA
ATOM     13  H   UNL     1       2.389  10.008  17.192  0.00  0.00    +0.000 HD
ENDBRANCH  11  12
ENDBRANCH   1   2
BRANCH   1  17
ATOM     14  C   UNL     1       2.782  15.067  18.552  0.00  0.00    +0.000 A 
ATOM     15  C   UNL     1       3.141  13.752  18.248  0.00  0.00    +0.000 A 
ATOM     16  C   UNL     1       2.231  12.705  18.410  0.00  0.00    +0.000 A 
ATOM     17  C   UNL     1       0.907  12.943  18.832  0.00  0.00    +0.000 A 
ATOM     18  C   UNL     1       0.508  14.288  19.008  0.00  0.00    +0.000 A 
ATOM     19  C   UNL     1       1.454  15.354  18.917  0.00  0.00    +0.000 A 
BRANCH  14  21
ATOM     20  C   UNL     1       5.111  15.433  18.272  0.00  0.00    +0.000 C 
ATOM     21  O   UNL     1       3.795  15.971  18.363  0.00  0.00    +0.000 OA
ENDBRANCH  14  21
BRANCH  18  22
ATOM     22  O   UNL     1      -0.834  14.475  19.261  0.00  0.00    +0.000 OA
ATOM     23  C   UNL     1      -1.201  14.582  20.634  0.00  0.00    +0.000 C 
ENDBRANCH  18  22
BRANCH  19  24
ATOM     24  O   UNL     1       1.033  16.595  19.328  0.00  0.00    +0.000 OA
ATOM     25  C   UNL     1       1.477  17.051  20.601  0.00  0.00    +0.000 C 
ENDBRANCH  19  24
ENDBRANCH   1  17
BRANCH   1  26
ATOM     26  N   UNL     1      -0.880  11.420  17.946  0.00  0.00    +0.000 N 
ATOM     27  H   UNL     1      -0.600  10.512  17.579  0.00  0.00    +0.000 HD
BRANCH  26  28
ATOM     28  C   UNL     1      -2.271  11.393  18.092  0.00  0.00    +0.000 A 
ATOM     29  N   UNL     1      -2.858  11.958  19.170  0.00  0.00    +0.000 NA
ATOM     30  C   UNL     1      -4.213  12.067  19.173  0.00  0.00    +0.000 A 
ATOM     31  C   UNL     1      -5.034  11.631  18.145  0.00  0.00    +0.000 A 
ATOM     32 CL   UNL     1      -6.732  11.863  18.203  0.00  0.00    +0.000 Cl
ATOM     33  C   UNL     1      -4.440  11.011  17.068  0.00  0.00    +0.000 A 
ATOM     34  C   UNL     1      -3.040  10.865  17.033  0.00  0.00    +0.000 A 
ATOM     35  C   UNL     1      -2.423  10.171  15.854  0.00  0.00    +0.000 C 
ENDBRANCH  26  28
ENDBRANCH   1  26
TORSDOF 8
ENDMDL
MODEL 5
REMARK VINA RESULT:      -7.1      2.175      6.346
REMARK  Name = 
REMARK  12 active torsions:
REMARK  status: ('A' for Active; 'I' for Inactive)
REMARK    1  A    between atoms: C_1  and  O_2
REMARK    2  A    between atoms: O_2  and  C_3
REMARK    3  A    between atoms: C_6  and  C_7
REMARK    4  A    between atoms: C_7  and  N_8
REMARK    5  A    between atoms: C_7  and  C_17
REMARK    6  A    between atoms: N_8  and  C_9
REMARK    7  A    between atoms: C_15  and  C_16
REMARK    8  A    between atoms: C_26  and  O_27
REMARK    9  A    between atoms: C_28  and  O_29
REMARK   10  A    between atoms: O_29  and  C_30
REMARK   11  A    between atoms: C_31  and  O_32
REMARK   12  A    between atoms: O_32  and  C_33
REMARK                            x       y       z     vdW  Elec       q    Type
REMARK                         _______ _______ _______ _____ _____    ______ ____
ROOT
ATOM      1  C   UNL     1       0.802  10.542  18.755  0.00  0.00    +0.000 C 
ENDROOT
BRANCH   1   2
ATOM      2  C   UNL     1       1.631  11.826  19.042  0.00  0.00    +0.000 A 
ATOM      3  C   UNL     1       2.210  12.568  17.998  0.00  0.00    +0.000 A 
ATOM      4  C   UNL     1       2.753  13.841  18.224  0.00  0.00    +0.000 A 
ATOM      5  C   UNL     1       2.730  14.416  19.502  0.00  0.00    +0.000 A 
ATOM      6  C   UNL     1       3.105  15.747  19.742  0.00  0.00    +0.000 A 
ATOM      7  C   UNL     1       3.035  16.264  21.031  0.00  0.00    +0.000 A 
ATOM      8  C   UNL     1       2.643  15.417  22.054  0.00  0.00    +0.000 A 
ATOM      9  N   UNL     1       2.245  14.143  21.859  0.00  0.00    +0.000 NA
ATOM     10  C   UNL     1       2.254  13.671  20.590  0.00  0.00    +0.000 A 
ATOM     11  C   UNL     1       1.695  12.418  20.326  0.00  0.00    +0.000 A 
BRANCH  11  12
ATOM     12  O   UNL     1       1.117  11.787  21.418  0.00  0.00    +0.000 OA
ATOM     13  H   UNL     1       0.162  12.012  21.338  0.00  0.00    +0.000 HD
ENDBRANCH  11  12
ENDBRANCH   1   2
BRANCH   1  17
ATOM     14  C   UNL     1       2.864   6.675  18.762  0.00  0.00    +0.000 A 
ATOM     15  C   UNL     1       3.070   7.623  17.757  0.00  0.00    +0.000 A 
ATOM     16  C   UNL     1       2.412   8.854  17.788  0.00  0.00    +0.000 A 
ATOM     17  C   UNL     1       1.563   9.206  18.857  0.00  0.00    +0.000 A 
ATOM     18  C   UNL     1       1.464   8.300  19.939  0.00  0.00    +0.000 A 
ATOM     19  C   UNL     1       2.073   7.010  19.876  0.00  0.00    +0.000 A 
BRANCH  14  21
ATOM     20  C   UNL     1       4.941   5.538  18.929  0.00  0.00    +0.000 C 
ATOM     21  O   UNL     1       3.562   5.511  18.571  0.00  0.00    +0.000 OA
ENDBRANCH  14  21
BRANCH  18  22
ATOM     22  O   UNL     1       0.754   8.760  21.027  0.00  0.00    +0.000 OA
ATOM     23  C   UNL     1       1.504   8.956  22.223  0.00  0.00    +0.000 C 
ENDBRANCH  18  22
BRANCH  19  24
ATOM     24  O   UNL     1       1.734   6.114  20.861  0.00  0.00    +0.000 OA
ATOM     25  C   UNL     1       1.182   4.867  20.454  0.00  0.00    +0.000 C 
ENDBRANCH  19  24
ENDBRANCH   1  17
BRANCH   1  26
ATOM     26  N   UNL     1      -0.446  10.550  19.532  0.00  0.00    +0.000 N 
ATOM     27  H   UNL     1      -0.332  11.240  20.273  0.00  0.00    +0.000 HD
BRANCH  26  28
ATOM     28  C   UNL     1      -1.682  10.797  18.927  0.00  0.00    +0.000 A 
ATOM     29  N   UNL     1      -2.192   9.926  18.029  0.00  0.00    +0.000 NA
ATOM     30  C   UNL     1      -3.472  10.117  17.611  0.00  0.00    +0.000 A 
ATOM     31  C   UNL     1      -4.286  11.152  18.040  0.00  0.00    +0.000 A 
ATOM     32 CL   UNL     1      -5.911  11.286  17.507  0.00  0.00    +0.000 Cl
ATOM     33  C   UNL     1      -3.751  12.070  18.917  0.00  0.00    +0.000 A 
ATOM     34  C   UNL     1      -2.424  11.915  19.364  0.00  0.00    +0.000 A 
ATOM     35  C   UNL     1      -1.863  12.940  20.306  0.00  0.00    +0.000 C 
ENDBRANCH  26  28
ENDBRANCH   1  26
TORSDOF 8
ENDMDL
MODEL 6
REMARK VINA RESULT:      -7.0      1.210      2.139
REMARK  Name = 
REMARK  12 active torsions:
REMARK  status: ('A' for Active; 'I' for Inactive)
REMARK    1  A    between atoms: C_1  and  O_2
REMARK    2  A    between atoms: O_2  and  C_3
REMARK    3  A    between atoms: C_6  and  C_7
REMARK    4  A    between atoms: C_7  and  N_8
REMARK    5  A    between atoms: C_7  and  C_17
REMARK    6  A    between atoms: N_8  and  C_9
REMARK    7  A    between atoms: C_15  and  C_16
REMARK    8  A    between atoms: C_26  and  O_27
REMARK    9  A    between atoms: C_28  and  O_29
REMARK   10  A    between atoms: O_29  and  C_30
REMARK   11  A    between atoms: C_31  and  O_32
REMARK   12  A    between atoms: O_32  and  C_33
REMARK                            x       y       z     vdW  Elec       q    Type
REMARK                         _______ _______ _______ _____ _____    ______ ____
ROOT
ATOM      1  C   UNL     1      -0.775  11.196  20.029  0.00  0.00    +0.000 C 
ENDROOT
BRANCH   1   2
ATOM      2  C   UNL     1       0.282  10.058  20.097  0.00  0.00    +0.000 A 
ATOM      3  C   UNL     1       0.396   9.237  21.232  0.00  0.00    +0.000 A 
ATOM      4  C   UNL     1       1.176   8.070  21.211  0.00  0.00    +0.000 A 
ATOM      5  C   UNL     1       1.864   7.686  20.052  0.00  0.00    +0.000 A 
ATOM      6  C   UNL     1       2.515   6.449  19.931  0.00  0.00    +0.000 A 
ATOM      7  C   UNL     1       3.159   6.119  18.744  0.00  0.00    +0.000 A 
ATOM      8  C   UNL     1       3.179   7.059  17.728  0.00  0.00    +0.000 A 
ATOM      9  N   UNL     1       2.538   8.245  17.795  0.00  0.00    +0.000 NA
ATOM     10  C   UNL     1       1.859   8.528  18.931  0.00  0.00    +0.000 A 
ATOM     11  C   UNL     1       1.050   9.667  18.975  0.00  0.00    +0.000 A 
BRANCH  11  12
ATOM     12  O   UNL     1       0.979  10.386  17.791  0.00  0.00    +0.000 OA
ATOM     13  H   UNL     1       0.319  11.090  17.986  0.00  0.00    +0.000 HD
ENDBRANCH  11  12
ENDBRANCH   1   2
BRANCH   1  17
ATOM     14  C   UNL     1       0.182  15.118  21.735  0.00  0.00    +0.000 A 
ATOM     15  C   UNL     1      -0.345  14.082  22.509  0.00  0.00    +0.000 A 
ATOM     16  C   UNL     1      -0.625  12.836  21.944  0.00  0.00    +0.000 A 
ATOM     17  C   UNL     1      -0.338  12.563  20.590  0.00  0.00    +0.000 A 
ATOM     18  C   UNL     1       0.320  13.569  19.846  0.00  0.00    +0.000 A 
ATOM     19  C   UNL     1       0.540  14.868  20.397  0.00  0.00    +0.000 A 
BRANCH  14  21
ATOM     20  C   UNL     1       1.721  16.584  22.792  0.00  0.00    +0.000 C 
ATOM     21  O   UNL     1       0.375  16.282  22.432  0.00  0.00    +0.000 OA
ENDBRANCH  14  21
BRANCH  18  22
ATOM     22  O   UNL     1       0.724  13.196  18.582  0.00  0.00    +0.000 OA
ATOM     23  C   UNL     1       2.127  13.244  18.336  0.00  0.00    +0.000 C 
ENDBRANCH  18  22
BRANCH  19  24
ATOM     24  O   UNL     1       0.970  15.846  19.533  0.00  0.00    +0.000 OA
ATOM     25  C   UNL     1      -0.023  16.625  18.875  0.00  0.00    +0.000 C 
ENDBRANCH  19  24
ENDBRANCH   1  17
BRANCH   1  26
ATOM     26  N   UNL     1      -1.346  11.289  18.678  0.00  0.00    +0.000 N 
ATOM     27  H   UNL     1      -1.033  10.466  18.165  0.00  0.00    +0.000 HD
BRANCH  26  28
ATOM     28  C   UNL     1      -2.725  11.403  18.473  0.00  0.00    +0.000 A 
ATOM     29  N   UNL     1      -3.497  12.067  19.361  0.00  0.00    +0.000 NA
ATOM     30  C   UNL     1      -4.792  12.307  19.025  0.00  0.00    +0.000 A 
ATOM     31  C   UNL     1      -5.375  11.909  17.833  0.00  0.00    +0.000 A 
ATOM     32 CL   UNL     1      -7.002  12.305  17.462  0.00  0.00    +0.000 Cl
ATOM     33  C   UNL     1      -4.603  11.188  16.948  0.00  0.00    +0.000 A 
ATOM     34  C   UNL     1      -3.260  10.907  17.266  0.00  0.00    +0.000 A 
ATOM     35  C   UNL     1      -2.448  10.106  16.290  0.00  0.00    +0.000 C 
ENDBRANCH  26  28
ENDBRANCH   1  26
TORSDOF 8
ENDMDL
MODEL 7
REMARK VINA RESULT:      -6.9      2.224      6.000
REMARK  Name = 
REMARK  12 active torsions:
REMARK  status: ('A' for Active; 'I' for Inactive)
REMARK    1  A    between atoms: C_1  and  O_2
REMARK    2  A    between atoms: O_2  and  C_3
REMARK    3  A    between atoms: C_6  and  C_7
REMARK    4  A    between atoms: C_7  and  N_8
REMARK    5  A    between atoms: C_7  and  C_17
REMARK    6  A    between atoms: N_8  and  C_9
REMARK    7  A    between atoms: C_15  and  C_16
REMARK    8  A    between atoms: C_26  and  O_27
REMARK    9  A    between atoms: C_28  and  O_29
REMARK   10  A    between atoms: O_29  and  C_30
REMARK   11  A    between atoms: C_31  and  O_32
REMARK   12  A    between atoms: O_32  and  C_33
REMARK                            x       y       z     vdW  Elec       q    Type
REMARK                         _______ _______ _______ _____ _____    ______ ____
ROOT
ATOM      1  C   UNL     1       0.638  10.571  18.787  0.00  0.00    +0.000 C 
ENDROOT
BRANCH   1   2
ATOM      2  C   UNL     1       1.346  11.860  19.293  0.00  0.00    +0.000 A 
ATOM      3  C   UNL     1       1.221  12.284  20.627  0.00  0.00    +0.000 A 
ATOM      4  C   UNL     1       2.036  13.300  21.147  0.00  0.00    +0.000 A 
ATOM      5  C   UNL     1       3.006  13.923  20.350  0.00  0.00    +0.000 A 
ATOM      6  C   UNL     1       3.952  14.820  20.868  0.00  0.00    +0.000 A 
ATOM      7  C   UNL     1       4.904  15.385  20.026  0.00  0.00    +0.000 A 
ATOM      8  C   UNL     1       4.848  15.077  18.677  0.00  0.00    +0.000 A 
ATOM      9  N   UNL     1       3.975  14.196  18.148  0.00  0.00    +0.000 NA
ATOM     10  C   UNL     1       3.095  13.602  18.988  0.00  0.00    +0.000 A 
ATOM     11  C   UNL     1       2.289  12.566  18.509  0.00  0.00    +0.000 A 
BRANCH  11  12
ATOM     12  O   UNL     1       2.519  12.201  17.191  0.00  0.00    +0.000 OA
ATOM     13  H   UNL     1       3.491  12.312  17.085  0.00  0.00    +0.000 HD
ENDBRANCH  11  12
ENDBRANCH   1   2
BRANCH   1  17
ATOM     14  C   UNL     1       2.875   6.802  18.734  0.00  0.00    +0.000 A 
ATOM     15  C   UNL     1       3.028   7.769  17.738  0.00  0.00    +0.000 A 
ATOM     16  C   UNL     1       2.315   8.969  17.788  0.00  0.00    +0.000 A 
ATOM     17  C   UNL     1       1.461   9.269  18.869  0.00  0.00    +0.000 A 
ATOM     18  C   UNL     1       1.413   8.349  19.941  0.00  0.00    +0.000 A 
ATOM     19  C   UNL     1       2.080   7.089  19.859  0.00  0.00    +0.000 A 
BRANCH  14  21
ATOM     20  C   UNL     1       4.807   5.548  19.310  0.00  0.00    +0.000 C 
ATOM     21  O   UNL     1       3.624   5.673  18.525  0.00  0.00    +0.000 OA
ENDBRANCH  14  21
BRANCH  18  22
ATOM     22  O   UNL     1       0.693   8.764  21.040  0.00  0.00    +0.000 OA
ATOM     23  C   UNL     1       1.459   9.145  22.180  0.00  0.00    +0.000 C 
ENDBRANCH  18  22
BRANCH  19  24
ATOM     24  O   UNL     1       1.791   6.168  20.837  0.00  0.00    +0.000 OA
ATOM     25  C   UNL     1       1.226   4.928  20.426  0.00  0.00    +0.000 C 
ENDBRANCH  19  24
ENDBRANCH   1  17
BRANCH   1  26
ATOM     26  N   UNL     1      -0.695  10.443  19.394  0.00  0.00    +0.000 N 
ATOM     27  H   UNL     1      -0.655  10.902  20.303  0.00  0.00    +0.000 HD
BRANCH  26  28
ATOM     28  C   UNL     1      -1.841  10.914  18.745  0.00  0.00    +0.000 A 
ATOM     29  N   UNL     1      -2.202  10.413  17.543  0.00  0.00    +0.000 NA
ATOM     30  C   UNL     1      -3.416  10.768  17.043  0.00  0.00    +0.000 A 
ATOM     31  C   UNL     1      -4.304  11.617  17.683  0.00  0.00    +0.000 A 
ATOM     32 CL   UNL     1      -5.842  11.967  17.010  0.00  0.00    +0.000 Cl
ATOM     33  C   UNL     1      -3.916  12.168  18.885  0.00  0.00    +0.000 A 
ATOM     34  C   UNL     1      -2.661  11.835  19.430  0.00  0.00    +0.000 A 
ATOM     35  C   UNL     1      -2.258  12.464  20.732  0.00  0.00    +0.000 C 
ENDBRANCH  26  28
ENDBRANCH   1  26
TORSDOF 8
ENDMDL
MODEL 8
REMARK VINA RESULT:      -6.9      1.426      1.791
REMARK  Name = 
REMARK  12 active torsions:
REMARK  status: ('A' for Active; 'I' for Inactive)
REMARK    1  A    between atoms: C_1  and  O_2
REMARK    2  A    between atoms: O_2  and  C_3
REMARK    3  A    between atoms: C_6  and  C_7
REMARK    4  A    between atoms: C_7  and  N_8
REMARK    5  A    between atoms: C_7  and  C_17
REMARK    6  A    between atoms: N_8  and  C_9
REMARK    7  A    between atoms: C_15  and  C_16
REMARK    8  A    between atoms: C_26  and  O_27
REMARK    9  A    between atoms: C_28  and  O_29
REMARK   10  A    between atoms: O_29  and  C_30
REMARK   11  A    between atoms: C_31  and  O_32
REMARK   12  A    between atoms: O_32  and  C_33
REMARK                            x       y       z     vdW  Elec       q    Type
REMARK                         _______ _______ _______ _____ _____    ______ ____
ROOT
ATOM      1  C   UNL     1       0.617  11.043  19.268  0.00  0.00    +0.000 C 
ENDROOT
BRANCH   1   2
ATOM      2  C   UNL     1       1.211   9.655  19.642  0.00  0.00    +0.000 A 
ATOM      3  C   UNL     1       0.964   9.072  20.897  0.00  0.00    +0.000 A 
ATOM      4  C   UNL     1       1.292   7.732  21.154  0.00  0.00    +0.000 A 
ATOM      5  C   UNL     1       1.875   6.932  20.162  0.00  0.00    +0.000 A 
ATOM      6  C   UNL     1       2.065   5.550  20.316  0.00  0.00    +0.000 A 
ATOM      7  C   UNL     1       2.627   4.808  19.283  0.00  0.00    +0.000 A 
ATOM      8  C   UNL     1       3.032   5.481  18.143  0.00  0.00    +0.000 A 
ATOM      9  N   UNL     1       2.838   6.801  17.944  0.00  0.00    +0.000 NA
ATOM     10  C   UNL     1       2.231   7.501  18.931  0.00  0.00    +0.000 A 
ATOM     11  C   UNL     1       1.863   8.829  18.697  0.00  0.00    +0.000 A 
BRANCH  11  12
ATOM     12  O   UNL     1       2.117   9.294  17.415  0.00  0.00    +0.000 OA
ATOM     13  H   UNL     1       2.132   8.475  16.870  0.00  0.00    +0.000 HD
ENDBRANCH  11  12
ENDBRANCH   1   2
BRANCH   1  17
ATOM     14  C   UNL     1       3.566  14.283  19.404  0.00  0.00    +0.000 A 
ATOM     15  C   UNL     1       3.175  13.686  18.203  0.00  0.00    +0.000 A 
ATOM     16  C   UNL     1       2.221  12.667  18.186  0.00  0.00    +0.000 A 
ATOM     17  C   UNL     1       1.581  12.242  19.369  0.00  0.00    +0.000 A 
ATOM     18  C   UNL     1       1.879  12.941  20.562  0.00  0.00    +0.000 A 
ATOM     19  C   UNL     1       2.908  13.931  20.597  0.00  0.00    +0.000 A 
BRANCH  14  21
ATOM     20  C   UNL     1       5.352  15.138  18.093  0.00  0.00    +0.000 C 
ATOM     21  O   UNL     1       4.529  15.247  19.252  0.00  0.00    +0.000 OA
ENDBRANCH  14  21
BRANCH  18  22
ATOM     22  O   UNL     1       1.110  12.597  21.652  0.00  0.00    +0.000 OA
ATOM     23  C   UNL     1       0.070  13.510  21.994  0.00  0.00    +0.000 C 
ENDBRANCH  18  22
BRANCH  19  24
ATOM     24  O   UNL     1       3.288  14.388  21.835  0.00  0.00    +0.000 OA
ATOM     25  C   UNL     1       4.588  14.036  22.295  0.00  0.00    +0.000 C 
ENDBRANCH  19  24
ENDBRANCH   1  17
BRANCH   1  26
ATOM     26  N   UNL     1      -0.077  10.975  17.975  0.00  0.00    +0.000 N 
ATOM     27  H   UNL     1       0.294  10.166  17.479  0.00  0.00    +0.000 HD
BRANCH  26  28
ATOM     28  C   UNL     1      -1.472  10.903  17.897  0.00  0.00    +0.000 A 
ATOM     29  N   UNL     1      -2.074   9.802  17.396  0.00  0.00    +0.000 NA
ATOM     30  C   UNL     1      -3.425   9.706  17.511  0.00  0.00    +0.000 A 
ATOM     31  C   UNL     1      -4.227  10.667  18.104  0.00  0.00    +0.000 A 
ATOM     32 CL   UNL     1      -5.919  10.439  18.263  0.00  0.00    +0.000 Cl
ATOM     33  C   UNL     1      -3.620  11.813  18.570  0.00  0.00    +0.000 A 
ATOM     34  C   UNL     1      -2.224  11.957  18.457  0.00  0.00    +0.000 A 
ATOM     35  C   UNL     1      -1.593  13.223  18.960  0.00  0.00    +0.000 C 
ENDBRANCH  26  28
ENDBRANCH   1  26
TORSDOF 8
ENDMDL
MODEL 9
REMARK VINA RESULT:      -6.9      2.801      5.240
REMARK  Name = 
REMARK  12 active torsions:
REMARK  status: ('A' for Active; 'I' for Inactive)
REMARK    1  A    between atoms: C_1  and  O_2
REMARK    2  A    between atoms: O_2  and  C_3
REMARK    3  A    between atoms: C_6  and  C_7
REMARK    4  A    between atoms: C_7  and  N_8
REMARK    5  A    between atoms: C_7  and  C_17
REMARK    6  A    between atoms: N_8  and  C_9
REMARK    7  A    between atoms: C_15  and  C_16
REMARK    8  A    between atoms: C_26  and  O_27
REMARK    9  A    between atoms: C_28  and  O_29
REMARK   10  A    between atoms: O_29  and  C_30
REMARK   11  A    between atoms: C_31  and  O_32
REMARK   12  A    between atoms: O_32  and  C_33
REMARK                            x       y       z     vdW  Elec       q    Type
REMARK                         _______ _______ _______ _____ _____    ______ ____
ROOT
ATOM      1  C   UNL     1      -0.146  11.981  19.119  0.00  0.00    +0.000 C 
ENDROOT
BRANCH   1   2
ATOM      2  C   UNL     1       0.566  10.685  19.601  0.00  0.00    +0.000 A 
ATOM      3  C   UNL     1       0.315  10.147  20.875  0.00  0.00    +0.000 A 
ATOM      4  C   UNL     1       0.765   8.865  21.226  0.00  0.00    +0.000 A 
ATOM      5  C   UNL     1       1.478   8.078  20.310  0.00  0.00    +0.000 A 
ATOM      6  C   UNL     1       1.800   6.734  20.554  0.00  0.00    +0.000 A 
ATOM      7  C   UNL     1       2.488   6.002  19.594  0.00  0.00    +0.000 A 
ATOM      8  C   UNL     1       2.882   6.651  18.436  0.00  0.00    +0.000 A 
ATOM      9  N   UNL     1       2.564   7.931  18.151  0.00  0.00    +0.000 NA
ATOM     10  C   UNL     1       1.837   8.615  19.066  0.00  0.00    +0.000 A 
ATOM     11  C   UNL     1       1.349   9.882  18.738  0.00  0.00    +0.000 A 
BRANCH  11  12
ATOM     12  O   UNL     1       1.621  10.302  17.444  0.00  0.00    +0.000 OA
ATOM     13  H   UNL     1       2.592  10.462  17.450  0.00  0.00    +0.000 HD
ENDBRANCH  11  12
ENDBRANCH   1   2
BRANCH   1  17
ATOM     14  C   UNL     1      -4.515  11.981  18.783  0.00  0.00    +0.000 A 
ATOM     15  C   UNL     1      -3.702  11.318  17.863  0.00  0.00    +0.000 A 
ATOM     16  C   UNL     1      -2.312  11.319  18.003  0.00  0.00    +0.000 A 
ATOM     17  C   UNL     1      -1.687  11.942  19.103  0.00  0.00    +0.000 A 
ATOM     18  C   UNL     1      -2.520  12.494  20.103  0.00  0.00    +0.000 A 
ATOM     19  C   UNL     1      -3.935  12.561  19.926  0.00  0.00    +0.000 A 
BRANCH  14  21
ATOM     20  C   UNL     1      -6.454  10.620  18.619  0.00  0.00    +0.000 C 
ATOM     21  O   UNL     1      -5.853  11.906  18.490  0.00  0.00    +0.000 OA
ENDBRANCH  14  21
BRANCH  18  22
ATOM     22  O   UNL     1      -1.866  12.943  21.230  0.00  0.00    +0.000 OA
ATOM     23  C   UNL     1      -2.003  12.133  22.394  0.00  0.00    +0.000 C 
ENDBRANCH  18  22
BRANCH  19  24
ATOM     24  O   UNL     1      -4.639  13.317  20.832  0.00  0.00    +0.000 OA
ATOM     25  C   UNL     1      -5.527  12.634  21.710  0.00  0.00    +0.000 C 
ENDBRANCH  19  24
ENDBRANCH   1  17
BRANCH   1  26
ATOM     26  N   UNL     1       0.389  13.155  19.824  0.00  0.00    +0.000 N 
ATOM     27  H   UNL     1       1.308  12.896  20.181  0.00  0.00    +0.000 HD
BRANCH  26  28
ATOM     28  C   UNL     1       0.528  14.391  19.184  0.00  0.00    +0.000 A 
ATOM     29  N   UNL     1      -0.526  15.230  19.079  0.00  0.00    +0.000 NA
ATOM     30  C   UNL     1      -0.295  16.487  18.615  0.00  0.00    +0.000 A 
ATOM     31  C   UNL     1       0.950  16.963  18.237  0.00  0.00    +0.000 A 
ATOM     32 CL   UNL     1       1.164  18.583  17.719  0.00  0.00    +0.000 Cl
ATOM     33  C   UNL     1       2.016  16.092  18.296  0.00  0.00    +0.000 A 
ATOM     34  C   UNL     1       1.816  14.777  18.758  0.00  0.00    +0.000 A 
ATOM     35  C   UNL     1       2.993  13.847  18.797  0.00  0.00    +0.000 C 
ENDBRANCH  26  28
ENDBRANCH   1  26
TORSDOF 8
ENDMDL
