MODEL 1
REMARK VINA RESULT:      -7.3      0.000      0.000
REMARK  Name = 
REMARK  4 active torsions:
REMARK  status: ('A' for Active; 'I' for Inactive)
REMARK    1  A    between atoms: C_1  and  S_2
REMARK    2  A    between atoms: S_2  and  C_3
REMARK    3  A    between atoms: C_16  and  C_17
REMARK    4  A    between atoms: C_16  and  C_18
REMARK                            x       y       z     vdW  Elec       q    Type
REMARK                         _______ _______ _______ _____ _____    ______ ____
ROOT
ATOM      1  C   UNL     1       0.904   8.929  20.699  0.00  0.00    +0.000 A 
ATOM      2  N   UNL     1       1.065   7.752  21.261  0.00  0.00    +0.000 NA
ATOM      3  C   UNL     1       1.742   6.824  20.520  0.00  0.00    +0.000 A 
ATOM      4  O   UNL     1       2.023   5.539  20.922  0.00  0.00    +0.000 OA
ATOM      5  C   UNL     1       2.719   4.943  19.902  0.00  0.00    +0.000 A 
ATOM      6  C   UNL     1       2.910   5.821  18.854  0.00  0.00    +0.000 A 
ATOM      7  C   UNL     1       2.276   6.989  19.257  0.00  0.00    +0.000 A 
ATOM      8  C   UNL     1       2.073   8.298  18.666  0.00  0.00    +0.000 A 
ATOM      9  N   UNL     1       2.436   8.792  17.511  0.00  0.00    +0.000 NA
ATOM     10  N   UNL     1       1.979  10.095  17.482  0.00  0.00    +0.000 NA
ATOM     11  C   UNL     1       1.360  10.336  18.621  0.00  0.00    +0.000 A 
ATOM     12  N   UNL     1       1.393   9.221  19.411  0.00  0.00    +0.000 N 
ATOM     13  C   UNL     1       3.629   5.526  17.594  0.00  0.00    +0.000 C 
ATOM     14  C   UNL     1       4.619   4.344  17.716  0.00  0.00    +0.000 C 
ATOM     15  C   UNL     1       5.848   4.710  18.564  0.00  0.00    +0.000 C 
ATOM     16  C   UNL     1       5.089   3.982  16.298  0.00  0.00    +0.000 C 
ATOM     17  S   UNL     1       3.782   2.852  18.459  0.00  0.00    +0.000 S 
ATOM     18  C   UNL     1       3.195   3.549  20.068  0.00  0.00    +0.000 C 
ENDROOT
BRANCH   1  20
ATOM     19  C   UNL     1      -0.037   9.505  23.223  0.00  0.00    +0.000 C 
ATOM     20  S   UNL     1       0.052  10.206  21.565  0.00  0.00    +0.000 S 
ENDBRANCH   1  20
TORSDOF 1
ENDMDL
MODEL 2
REMARK VINA RESULT:      -7.0      1.736      3.612
REMARK  Name = 
REMARK  4 active torsions:
REMARK  status: ('A' for Active; 'I' for Inactive)
REMARK    1  A    between atoms: C_1  and  S_2
REMARK    2  A    between atoms: S_2  and  C_3
REMARK    3  A    between atoms: C_16  and  C_17
REMARK    4  A    between atoms: C_16  and  C_18
REMARK                            x       y       z     vdW  Elec       q    Type
REMARK                         _______ _______ _______ _____ _____    ______ ____
ROOT
ATOM      1  C   UNL     1       1.288  10.398  19.090  0.00  0.00    +0.000 A 
ATOM      2  N   UNL     1       1.806   9.625  18.162  0.00  0.00    +0.000 NA
ATOM      3  C   UNL     1       2.088   8.343  18.542  0.00  0.00    +0.000 A 
ATOM      4  O   UNL     1       2.626   7.374  17.727  0.00  0.00    +0.000 OA
ATOM      5  C   UNL     1       2.743   6.235  18.482  0.00  0.00    +0.000 A 
ATOM      6  C   UNL     1       2.275   6.441  19.765  0.00  0.00    +0.000 A 
ATOM      7  C   UNL     1       1.884   7.773  19.784  0.00  0.00    +0.000 A 
ATOM      8  C   UNL     1       1.317   8.657  20.784  0.00  0.00    +0.000 A 
ATOM      9  N   UNL     1       0.998   8.458  22.037  0.00  0.00    +0.000 NA
ATOM     10  N   UNL     1       0.491   9.652  22.507  0.00  0.00    +0.000 NA
ATOM     11  C   UNL     1       0.521  10.526  21.520  0.00  0.00    +0.000 A 
ATOM     12  N   UNL     1       1.039   9.940  20.399  0.00  0.00    +0.000 N 
ATOM     13  C   UNL     1       2.234   5.432  20.847  0.00  0.00    +0.000 C 
ATOM     14  C   UNL     1       2.256   3.975  20.328  0.00  0.00    +0.000 C 
ATOM     15  C   UNL     1       0.932   3.589  19.647  0.00  0.00    +0.000 C 
ATOM     16  C   UNL     1       2.477   3.053  21.537  0.00  0.00    +0.000 C 
ATOM     17  S   UNL     1       3.662   3.720  19.127  0.00  0.00    +0.000 S 
ATOM     18  C   UNL     1       3.265   4.999  17.852  0.00  0.00    +0.000 C 
ENDROOT
BRANCH   1  20
ATOM     19  C   UNL     1       2.475  12.709  18.174  0.00  0.00    +0.000 C 
ATOM     20  S   UNL     1       0.877  12.070  18.712  0.00  0.00    +0.000 S 
ENDBRANCH   1  20
TORSDOF 1
ENDMDL
MODEL 3
REMARK VINA RESULT:      -6.6      4.419      6.717
REMARK  Name = 
REMARK  4 active torsions:
REMARK  status: ('A' for Active; 'I' for Inactive)
REMARK    1  A    between atoms: C_1  and  S_2
REMARK    2  A    between atoms: S_2  and  C_3
REMARK    3  A    between atoms: C_16  and  C_17
REMARK    4  A    between atoms: C_16  and  C_18
REMARK                            x       y       z     vdW  Elec       q    Type
REMARK                         _______ _______ _______ _____ _____    ______ ____
ROOT
ATOM      1  C   UNL     1       5.981   4.465  15.568  0.00  0.00    +0.000 A 
ATOM      2  N   UNL     1       4.738   4.084  15.373  0.00  0.00    +0.000 NA
ATOM      3  C   UNL     1       4.015   3.807  16.500  0.00  0.00    +0.000 A 
ATOM      4  O   UNL     1       2.701   3.401  16.519  0.00  0.00    +0.000 OA
ATOM      5  C   UNL     1       2.350   3.241  17.836  0.00  0.00    +0.000 A 
ATOM      6  C   UNL     1       3.406   3.552  18.670  0.00  0.00    +0.000 A 
ATOM      7  C   UNL     1       4.443   3.890  17.811  0.00  0.00    +0.000 A 
ATOM      8  C   UNL     1       5.821   4.308  17.987  0.00  0.00    +0.000 A 
ATOM      9  N   UNL     1       6.540   4.489  19.063  0.00  0.00    +0.000 NA
ATOM     10  N   UNL     1       7.788   4.897  18.636  0.00  0.00    +0.000 NA
ATOM     11  C   UNL     1       7.772   4.946  17.318  0.00  0.00    +0.000 A 
ATOM     12  N   UNL     1       6.540   4.580  16.856  0.00  0.00    +0.000 N 
ATOM     13  C   UNL     1       3.386   3.507  20.150  0.00  0.00    +0.000 C 
ATOM     14  C   UNL     1       1.962   3.597  20.746  0.00  0.00    +0.000 C 
ATOM     15  C   UNL     1       1.359   5.003  20.584  0.00  0.00    +0.000 C 
ATOM     16  C   UNL     1       2.063   3.275  22.246  0.00  0.00    +0.000 C 
ATOM     17  S   UNL     1       0.828   2.347  19.949  0.00  0.00    +0.000 S 
ATOM     18  C   UNL     1       0.964   2.839  18.173  0.00  0.00    +0.000 C 
ENDROOT
BRANCH   1  20
ATOM     19  C   UNL     1       6.332   3.753  12.930  0.00  0.00    +0.000 C 
ATOM     20  S   UNL     1       7.006   4.855  14.188  0.00  0.00    +0.000 S 
ENDBRANCH   1  20
TORSDOF 1
ENDMDL
MODEL 4
REMARK VINA RESULT:      -6.5      1.821      3.295
REMARK  Name = 
REMARK  4 active torsions:
REMARK  status: ('A' for Active; 'I' for Inactive)
REMARK    1  A    between atoms: C_1  and  S_2
REMARK    2  A    between atoms: S_2  and  C_3
REMARK    3  A    between atoms: C_16  and  C_17
REMARK    4  A    between atoms: C_16  and  C_18
REMARK                            x       y       z     vdW  Elec       q    Type
REMARK                         _______ _______ _______ _____ _____    ______ ____
ROOT
ATOM      1  C   UNL     1       1.124  10.201  18.760  0.00  0.00    +0.000 A 
ATOM      2  N   UNL     1       1.905   9.825  17.772  0.00  0.00    +0.000 NA
ATOM      3  C   UNL     1       2.500   8.602  17.914  0.00  0.00    +0.000 A 
ATOM      4  O   UNL     1       3.345   8.021  16.998  0.00  0.00    +0.000 OA
ATOM      5  C   UNL     1       3.714   6.802  17.510  0.00  0.00    +0.000 A 
ATOM      6  C   UNL     1       3.111   6.576  18.732  0.00  0.00    +0.000 A 
ATOM      7  C   UNL     1       2.367   7.724  18.972  0.00  0.00    +0.000 A 
ATOM      8  C   UNL     1       1.503   8.175  20.046  0.00  0.00    +0.000 A 
ATOM      9  N   UNL     1       1.157   7.612  21.174  0.00  0.00    +0.000 NA
ATOM     10  N   UNL     1       0.305   8.495  21.807  0.00  0.00    +0.000 NA
ATOM     11  C   UNL     1       0.169   9.555  21.036  0.00  0.00    +0.000 A 
ATOM     12  N   UNL     1       0.913   9.400  19.899  0.00  0.00    +0.000 N 
ATOM     13  C   UNL     1       3.267   5.363  19.566  0.00  0.00    +0.000 C 
ATOM     14  C   UNL     1       3.730   4.124  18.765  0.00  0.00    +0.000 C 
ATOM     15  C   UNL     1       2.620   3.588  17.844  0.00  0.00    +0.000 C 
ATOM     16  C   UNL     1       4.103   3.028  19.776  0.00  0.00    +0.000 C 
ATOM     17  S   UNL     1       5.239   4.521  17.740  0.00  0.00    +0.000 S 
ATOM     18  C   UNL     1       4.603   5.922  16.715  0.00  0.00    +0.000 C 
ENDROOT
BRANCH   1  20
ATOM     19  C   UNL     1      -1.336  11.257  18.111  0.00  0.00    +0.000 C 
ATOM     20  S   UNL     1       0.299  11.757  18.683  0.00  0.00    +0.000 S 
ENDBRANCH   1  20
TORSDOF 1
ENDMDL
MODEL 5
REMARK VINA RESULT:      -6.4      2.448      6.414
REMARK  Name = 
REMARK  4 active torsions:
REMARK  status: ('A' for Active; 'I' for Inactive)
REMARK    1  A    between atoms: C_1  and  S_2
REMARK    2  A    between atoms: S_2  and  C_3
REMARK    3  A    between atoms: C_16  and  C_17
REMARK    4  A    between atoms: C_16  and  C_18
REMARK                            x       y       z     vdW  Elec       q    Type
REMARK                         _______ _______ _______ _____ _____    ______ ____
ROOT
ATOM      1  C   UNL     1       4.649   5.286  17.483  0.00  0.00    +0.000 A 
ATOM      2  N   UNL     1       4.317   6.506  17.124  0.00  0.00    +0.000 NA
ATOM      3  C   UNL     1       3.382   7.125  17.906  0.00  0.00    +0.000 A 
ATOM      4  O   UNL     1       2.902   8.399  17.709  0.00  0.00    +0.000 OA
ATOM      5  C   UNL     1       1.994   8.644  18.708  0.00  0.00    +0.000 A 
ATOM      6  C   UNL     1       1.889   7.560  19.557  0.00  0.00    +0.000 A 
ATOM      7  C   UNL     1       2.757   6.615  19.026  0.00  0.00    +0.000 A 
ATOM      8  C   UNL     1       3.143   5.264  19.389  0.00  0.00    +0.000 A 
ATOM      9  N   UNL     1       2.760   4.488  20.369  0.00  0.00    +0.000 NA
ATOM     10  N   UNL     1       3.464   3.308  20.231  0.00  0.00    +0.000 NA
ATOM     11  C   UNL     1       4.243   3.419  19.174  0.00  0.00    +0.000 A 
ATOM     12  N   UNL     1       4.076   4.649  18.602  0.00  0.00    +0.000 N 
ATOM     13  C   UNL     1       1.018   7.474  20.751  0.00  0.00    +0.000 C 
ATOM     14  C   UNL     1       0.609   8.856  21.313  0.00  0.00    +0.000 C 
ATOM     15  C   UNL     1       1.792   9.575  21.983  0.00  0.00    +0.000 C 
ATOM     16  C   UNL     1      -0.488   8.625  22.364  0.00  0.00    +0.000 C 
ATOM     17  S   UNL     1      -0.084   9.942  19.963  0.00  0.00    +0.000 S 
ATOM     18  C   UNL     1       1.332   9.968  18.777  0.00  0.00    +0.000 C 
ENDROOT
BRANCH   1  20
ATOM     19  C   UNL     1       7.339   4.695  17.523  0.00  0.00    +0.000 C 
ATOM     20  S   UNL     1       5.850   4.392  16.553  0.00  0.00    +0.000 S 
ENDBRANCH   1  20
TORSDOF 1
ENDMDL
MODEL 6
REMARK VINA RESULT:      -6.4      1.154      1.234
REMARK  Name = 
REMARK  4 active torsions:
REMARK  status: ('A' for Active; 'I' for Inactive)
REMARK    1  A    between atoms: C_1  and  S_2
REMARK    2  A    between atoms: S_2  and  C_3
REMARK    3  A    between atoms: C_16  and  C_17
REMARK    4  A    between atoms: C_16  and  C_18
REMARK                            x       y       z     vdW  Elec       q    Type
REMARK                         _______ _______ _______ _____ _____    ______ ____
ROOT
ATOM      1  C   UNL     1       1.033   8.192  20.536  0.00  0.00    +0.000 A 
ATOM      2  N   UNL     1       1.484   6.994  20.836  0.00  0.00    +0.000 NA
ATOM      3  C   UNL     1       2.334   6.431  19.924  0.00  0.00    +0.000 A 
ATOM      4  O   UNL     1       2.920   5.193  20.047  0.00  0.00    +0.000 OA
ATOM      5  C   UNL     1       3.702   5.008  18.935  0.00  0.00    +0.000 A 
ATOM      6  C   UNL     1       3.647   6.109  18.103  0.00  0.00    +0.000 A 
ATOM      7  C   UNL     1       2.771   6.981  18.736  0.00  0.00    +0.000 A 
ATOM      8  C   UNL     1       2.249   8.301  18.436  0.00  0.00    +0.000 A 
ATOM      9  N   UNL     1       2.446   9.101  17.420  0.00  0.00    +0.000 NA
ATOM     10  N   UNL     1       1.697  10.235  17.663  0.00  0.00    +0.000 NA
ATOM     11  C   UNL     1       1.078  10.075  18.816  0.00  0.00    +0.000 A 
ATOM     12  N   UNL     1       1.398   8.858  19.349  0.00  0.00    +0.000 N 
ATOM     13  C   UNL     1       4.372   6.267  16.822  0.00  0.00    +0.000 C 
ATOM     14  C   UNL     1       5.614   5.353  16.705  0.00  0.00    +0.000 C 
ATOM     15  C   UNL     1       6.752   5.809  17.634  0.00  0.00    +0.000 C 
ATOM     16  C   UNL     1       6.108   5.421  15.251  0.00  0.00    +0.000 C 
ATOM     17  S   UNL     1       5.175   3.582  17.096  0.00  0.00    +0.000 S 
ATOM     18  C   UNL     1       4.496   3.763  18.806  0.00  0.00    +0.000 C 
ENDROOT
BRANCH   1  20
ATOM     19  C   UNL     1       1.035   9.374  23.024  0.00  0.00    +0.000 C 
ATOM     20  S   UNL     1      -0.064   9.018  21.641  0.00  0.00    +0.000 S 
ENDBRANCH   1  20
TORSDOF 1
ENDMDL
MODEL 7
REMARK VINA RESULT:      -6.3      1.894      5.787
REMARK  Name = 
REMARK  4 active torsions:
REMARK  status: ('A' for Active; 'I' for Inactive)
REMARK    1  A    between atoms: C_1  and  S_2
REMARK    2  A    between atoms: S_2  and  C_3
REMARK    3  A    between atoms: C_16  and  C_17
REMARK    4  A    between atoms: C_16  and  C_18
REMARK                            x       y       z     vdW  Elec       q    Type
REMARK                         _______ _______ _______ _____ _____    ______ ____
ROOT
ATOM      1  C   UNL     1       3.367   4.323  19.162  0.00  0.00    +0.000 A 
ATOM      2  N   UNL     1       2.559   4.716  20.121  0.00  0.00    +0.000 NA
ATOM      3  C   UNL     1       2.196   6.034  20.094  0.00  0.00    +0.000 A 
ATOM      4  O   UNL     1       1.357   6.644  20.997  0.00  0.00    +0.000 OA
ATOM      5  C   UNL     1       1.242   7.957  20.613  0.00  0.00    +0.000 A 
ATOM      6  C   UNL     1       1.976   8.204  19.470  0.00  0.00    +0.000 A 
ATOM      7  C   UNL     1       2.577   6.989  19.171  0.00  0.00    +0.000 A 
ATOM      8  C   UNL     1       3.474   6.520  18.131  0.00  0.00    +0.000 A 
ATOM      9  N   UNL     1       4.023   7.138  17.118  0.00  0.00    +0.000 NA
ATOM     10  N   UNL     1       4.782   6.198  16.451  0.00  0.00    +0.000 NA
ATOM     11  C   UNL     1       4.661   5.049  17.087  0.00  0.00    +0.000 A 
ATOM     12  N   UNL     1       3.836   5.202  18.166  0.00  0.00    +0.000 N 
ATOM     13  C   UNL     1       2.075   9.502  18.766  0.00  0.00    +0.000 C 
ATOM     14  C   UNL     1       0.897  10.456  19.071  0.00  0.00    +0.000 C 
ATOM     15  C   UNL     1      -0.411   9.978  18.419  0.00  0.00    +0.000 C 
ATOM     16  C   UNL     1       1.256  11.838  18.500  0.00  0.00    +0.000 C 
ATOM     17  S   UNL     1       0.640  10.627  20.911  0.00  0.00    +0.000 S 
ATOM     18  C   UNL     1       0.361   8.863  21.387  0.00  0.00    +0.000 C 
ENDROOT
BRANCH   1  20
ATOM     19  C   UNL     1       2.727   1.956  17.907  0.00  0.00    +0.000 C 
ATOM     20  S   UNL     1       3.897   2.643  19.093  0.00  0.00    +0.000 S 
ENDBRANCH   1  20
TORSDOF 1
ENDMDL
MODEL 8
REMARK VINA RESULT:      -6.1      2.210      3.825
REMARK  Name = 
REMARK  4 active torsions:
REMARK  status: ('A' for Active; 'I' for Inactive)
REMARK    1  A    between atoms: C_1  and  S_2
REMARK    2  A    between atoms: S_2  and  C_3
REMARK    3  A    between atoms: C_16  and  C_17
REMARK    4  A    between atoms: C_16  and  C_18
REMARK                            x       y       z     vdW  Elec       q    Type
REMARK                         _______ _______ _______ _____ _____    ______ ____
ROOT
ATOM      1  C   UNL     1       0.127  11.212  19.635  0.00  0.00    +0.000 A 
ATOM      2  N   UNL     1       0.850  10.966  18.565  0.00  0.00    +0.000 NA
ATOM      3  C   UNL     1       1.501   9.764  18.548  0.00  0.00    +0.000 A 
ATOM      4  O   UNL     1       2.301   9.310  17.526  0.00  0.00    +0.000 OA
ATOM      5  C   UNL     1       2.752   8.067  17.892  0.00  0.00    +0.000 A 
ATOM      6  C   UNL     1       2.246   7.700  19.124  0.00  0.00    +0.000 A 
ATOM      7  C   UNL     1       1.477   8.785  19.523  0.00  0.00    +0.000 A 
ATOM      8  C   UNL     1       0.675   9.094  20.690  0.00  0.00    +0.000 A 
ATOM      9  N   UNL     1       0.432   8.413  21.780  0.00  0.00    +0.000 NA
ATOM     10  N   UNL     1      -0.407   9.193  22.551  0.00  0.00    +0.000 NA
ATOM     11  C   UNL     1      -0.639  10.313  21.896  0.00  0.00    +0.000 A 
ATOM     12  N   UNL     1       0.028  10.299  20.703  0.00  0.00    +0.000 N 
ATOM     13  C   UNL     1       2.509   6.423  19.824  0.00  0.00    +0.000 C 
ATOM     14  C   UNL     1       2.962   5.286  18.878  0.00  0.00    +0.000 C 
ATOM     15  C   UNL     1       1.811   4.789  17.987  0.00  0.00    +0.000 C 
ATOM     16  C   UNL     1       3.448   4.119  19.752  0.00  0.00    +0.000 C 
ATOM     17  S   UNL     1       4.377   5.846  17.799  0.00  0.00    +0.000 S 
ATOM     18  C   UNL     1       3.616   7.306  16.958  0.00  0.00    +0.000 C 
ENDROOT
BRANCH   1  20
ATOM     19  C   UNL     1       0.097  13.742  18.546  0.00  0.00    +0.000 C 
ATOM     20  S   UNL     1      -0.762  12.729  19.763  0.00  0.00    +0.000 S 
ENDBRANCH   1  20
TORSDOF 1
ENDMDL
MODEL 9
REMARK VINA RESULT:      -6.1      1.745      5.808
REMARK  Name = 
REMARK  4 active torsions:
REMARK  status: ('A' for Active; 'I' for Inactive)
REMARK    1  A    between atoms: C_1  and  S_2
REMARK    2  A    between atoms: S_2  and  C_3
REMARK    3  A    between atoms: C_16  and  C_17
REMARK    4  A    between atoms: C_16  and  C_18
REMARK                            x       y       z     vdW  Elec       q    Type
REMARK                         _______ _______ _______ _____ _____    ______ ____
ROOT
ATOM      1  C   UNL     1       2.627   5.165  19.925  0.00  0.00    +0.000 A 
ATOM      2  N   UNL     1       1.817   5.668  20.831  0.00  0.00    +0.000 NA
ATOM      3  C   UNL     1       1.478   6.982  20.665  0.00  0.00    +0.000 A 
ATOM      4  O   UNL     1       0.642   7.695  21.492  0.00  0.00    +0.000 OA
ATOM      5  C   UNL     1       0.554   8.963  20.976  0.00  0.00    +0.000 A 
ATOM      6  C   UNL     1       1.304   9.081  19.822  0.00  0.00    +0.000 A 
ATOM      7  C   UNL     1       1.885   7.831  19.655  0.00  0.00    +0.000 A 
ATOM      8  C   UNL     1       2.783   7.244  18.678  0.00  0.00    +0.000 A 
ATOM      9  N   UNL     1       3.353   7.746  17.613  0.00  0.00    +0.000 NA
ATOM     10  N   UNL     1       4.102   6.730  17.054  0.00  0.00    +0.000 NA
ATOM     11  C   UNL     1       3.953   5.655  17.802  0.00  0.00    +0.000 A 
ATOM     12  N   UNL     1       3.121   5.931  18.850  0.00  0.00    +0.000 N 
ATOM     13  C   UNL     1       1.433  10.299  18.991  0.00  0.00    +0.000 C 
ATOM     14  C   UNL     1       0.269  11.299  19.184  0.00  0.00    +0.000 C 
ATOM     15  C   UNL     1      -1.041  10.779  18.569  0.00  0.00    +0.000 C 
ATOM     16  C   UNL     1       0.659  12.608  18.480  0.00  0.00    +0.000 C 
ATOM     17  S   UNL     1      -0.002  11.660  20.994  0.00  0.00    +0.000 S 
ATOM     18  C   UNL     1      -0.318   9.959  21.644  0.00  0.00    +0.000 C 
ENDROOT
BRANCH   1  20
ATOM     19  C   UNL     1       2.223   2.939  21.497  0.00  0.00    +0.000 C 
ATOM     20  S   UNL     1       3.127   3.479  20.034  0.00  0.00    +0.000 S 
ENDBRANCH   1  20
TORSDOF 1
ENDMDL
