MODEL 1
REMARK VINA RESULT:      -7.2      0.000      0.000
REMARK  Name = 
REMARK  7 active torsions:
REMARK  status: ('A' for Active; 'I' for Inactive)
REMARK    1  A    between atoms: C_2  and  C_3
REMARK    2  A    between atoms: C_3  and  N_4
REMARK    3  A    between atoms: C_7  and  O_8
REMARK    4  A    between atoms: C_9  and  C_10
REMARK    5  A    between atoms: C_13  and  C_14
REMARK    6  A    between atoms: C_20  and  C_21
REMARK    7  A    between atoms: C_21  and  C_22
REMARK                            x       y       z     vdW  Elec       q    Type
REMARK                         _______ _______ _______ _____ _____    ______ ____
ROOT
ATOM      1  N   UNL     1       5.684   4.349  15.951  0.00  0.00    +0.000 N 
ATOM      2  C   UNL     1       6.522   5.426  16.148  0.00  0.00    +0.000 C 
ATOM      3  O   UNL     1       7.612   5.663  15.654  0.00  0.00    +0.000 OA
ATOM      4  C   UNL     1       5.830   6.353  17.062  0.00  0.00    +0.000 C 
ATOM      5  C   UNL     1       4.638   5.817  17.356  0.00  0.00    +0.000 C 
ATOM      6  C   UNL     1       4.423   4.492  16.669  0.00  0.00    +0.000 C 
ENDROOT
BRANCH   5   7
ATOM      7  C   UNL     1       3.642   6.476  18.194  0.00  0.00    +0.000 A 
ATOM      8  C   UNL     1       3.063   7.688  17.804  0.00  0.00    +0.000 A 
ATOM      9  C   UNL     1       2.173   8.354  18.657  0.00  0.00    +0.000 A 
ATOM     10  C   UNL     1       1.843   7.815  19.909  0.00  0.00    +0.000 A 
ATOM     11  C   UNL     1       2.425   6.599  20.294  0.00  0.00    +0.000 A 
ATOM     12  C   UNL     1       3.325   5.947  19.450  0.00  0.00    +0.000 A 
BRANCH  10  13
ATOM     13  C   UNL     1       0.896   8.518  20.850  0.00  0.00    +0.000 C 
ATOM     14  F   UNL     1       1.500   9.017  21.963  0.00  0.00    +0.000 F 
ATOM     15  F   UNL     1       0.269   9.574  20.259  0.00  0.00    +0.000 F 
ATOM     16  F   UNL     1      -0.097   7.700  21.298  0.00  0.00    +0.000 F 
ENDBRANCH  10  13
ENDBRANCH   5   7
BRANCH   4  17
ATOM     17  O   UNL     1       6.342   7.561  17.431  0.00  0.00    +0.000 OA
ATOM     18  H   UNL     1       6.904   7.835  16.679  0.00  0.00    +0.000 HD
ENDBRANCH   4  17
BRANCH   6  19
ATOM     19  C   UNL     1       4.124   3.302  17.600  0.00  0.00    +0.000 C 
ATOM     20  C   UNL     1       2.689   2.783  17.568  0.00  0.00    +0.000 C 
ENDBRANCH   6  19
BRANCH   1  21
ATOM     21  C   UNL     1       5.920   3.361  14.919  0.00  0.00    +0.000 C 
BRANCH  21  23
ATOM     22  C   UNL     1       6.005   3.466  12.395  0.00  0.00    +0.000 C 
ATOM     23  C   UNL     1       5.663   3.987  13.577  0.00  0.00    +0.000 C 
ENDBRANCH  21  23
ENDBRANCH   1  21
TORSDOF 6
ENDMDL
MODEL 2
REMARK VINA RESULT:      -7.1      0.855      1.125
REMARK  Name = 
REMARK  7 active torsions:
REMARK  status: ('A' for Active; 'I' for Inactive)
REMARK    1  A    between atoms: C_2  and  C_3
REMARK    2  A    between atoms: C_3  and  N_4
REMARK    3  A    between atoms: C_7  and  O_8
REMARK    4  A    between atoms: C_9  and  C_10
REMARK    5  A    between atoms: C_13  and  C_14
REMARK    6  A    between atoms: C_20  and  C_21
REMARK    7  A    between atoms: C_21  and  C_22
REMARK                            x       y       z     vdW  Elec       q    Type
REMARK                         _______ _______ _______ _____ _____    ______ ____
ROOT
ATOM      1  N   UNL     1       5.706   3.998  16.291  0.00  0.00    +0.000 N 
ATOM      2  C   UNL     1       6.661   4.552  17.119  0.00  0.00    +0.000 C 
ATOM      3  O   UNL     1       7.873   4.416  17.107  0.00  0.00    +0.000 OA
ATOM      4  C   UNL     1       5.957   5.453  18.050  0.00  0.00    +0.000 C 
ATOM      5  C   UNL     1       4.654   5.413  17.746  0.00  0.00    +0.000 C 
ATOM      6  C   UNL     1       4.366   4.491  16.588  0.00  0.00    +0.000 C 
ENDROOT
BRANCH   5   7
ATOM      7  C   UNL     1       3.643   6.222  18.420  0.00  0.00    +0.000 A 
ATOM      8  C   UNL     1       3.233   7.449  17.887  0.00  0.00    +0.000 A 
ATOM      9  C   UNL     1       2.327   8.255  18.587  0.00  0.00    +0.000 A 
ATOM     10  C   UNL     1       1.811   7.845  19.826  0.00  0.00    +0.000 A 
ATOM     11  C   UNL     1       2.225   6.614  20.353  0.00  0.00    +0.000 A 
ATOM     12  C   UNL     1       3.142   5.820  19.663  0.00  0.00    +0.000 A 
BRANCH  10  13
ATOM     13  C   UNL     1       0.842   8.700  20.604  0.00  0.00    +0.000 C 
ATOM     14  F   UNL     1      -0.055   7.984  21.337  0.00  0.00    +0.000 F 
ATOM     15  F   UNL     1       1.474   9.523  21.488  0.00  0.00    +0.000 F 
ATOM     16  F   UNL     1       0.103   9.515  19.801  0.00  0.00    +0.000 F 
ENDBRANCH  10  13
ENDBRANCH   5   7
BRANCH   4  17
ATOM     17  O   UNL     1       6.599   6.219  18.977  0.00  0.00    +0.000 OA
ATOM     18  H   UNL     1       6.119   7.072  18.973  0.00  0.00    +0.000 HD
ENDBRANCH   4  17
BRANCH   6  19
ATOM     19  C   UNL     1       3.361   3.359  16.875  0.00  0.00    +0.000 C 
ATOM     20  C   UNL     1       3.702   2.459  18.060  0.00  0.00    +0.000 C 
ENDBRANCH   6  19
BRANCH   1  21
ATOM     21  C   UNL     1       6.051   3.262  15.094  0.00  0.00    +0.000 C 
BRANCH  21  23
ATOM     22  C   UNL     1       5.807   3.721  12.621  0.00  0.00    +0.000 C 
ATOM     23  C   UNL     1       5.776   4.123  13.894  0.00  0.00    +0.000 C 
ENDBRANCH  21  23
ENDBRANCH   1  21
TORSDOF 6
ENDMDL
MODEL 3
REMARK VINA RESULT:      -7.1      0.752      1.235
REMARK  Name = 
REMARK  7 active torsions:
REMARK  status: ('A' for Active; 'I' for Inactive)
REMARK    1  A    between atoms: C_2  and  C_3
REMARK    2  A    between atoms: C_3  and  N_4
REMARK    3  A    between atoms: C_7  and  O_8
REMARK    4  A    between atoms: C_9  and  C_10
REMARK    5  A    between atoms: C_13  and  C_14
REMARK    6  A    between atoms: C_20  and  C_21
REMARK    7  A    between atoms: C_21  and  C_22
REMARK                            x       y       z     vdW  Elec       q    Type
REMARK                         _______ _______ _______ _____ _____    ______ ____
ROOT
ATOM      1  N   UNL     1       5.559   4.627  16.205  0.00  0.00    +0.000 N 
ATOM      2  C   UNL     1       6.417   5.687  16.410  0.00  0.00    +0.000 C 
ATOM      3  O   UNL     1       7.557   5.853  16.007  0.00  0.00    +0.000 OA
ATOM      4  C   UNL     1       5.680   6.697  17.190  0.00  0.00    +0.000 C 
ATOM      5  C   UNL     1       4.446   6.223  17.404  0.00  0.00    +0.000 C 
ATOM      6  C   UNL     1       4.243   4.861  16.788  0.00  0.00    +0.000 C 
ENDROOT
BRANCH   5   7
ATOM      7  C   UNL     1       3.404   6.971  18.098  0.00  0.00    +0.000 A 
ATOM      8  C   UNL     1       2.851   8.126  17.534  0.00  0.00    +0.000 A 
ATOM      9  C   UNL     1       1.914   8.883  18.248  0.00  0.00    +0.000 A 
ATOM     10  C   UNL     1       1.508   8.494  19.534  0.00  0.00    +0.000 A 
ATOM     11  C   UNL     1       2.064   7.335  20.093  0.00  0.00    +0.000 A 
ATOM     12  C   UNL     1       3.012   6.592  19.387  0.00  0.00    +0.000 A 
BRANCH  10  13
ATOM     13  C   UNL     1       0.509   9.298  20.328  0.00  0.00    +0.000 C 
ATOM     14  F   UNL     1      -0.449   9.891  19.562  0.00  0.00    +0.000 F 
ATOM     15  F   UNL     1      -0.160   8.536  21.239  0.00  0.00    +0.000 F 
ATOM     16  F   UNL     1       1.093  10.301  21.039  0.00  0.00    +0.000 F 
ENDBRANCH  10  13
ENDBRANCH   5   7
BRANCH   4  17
ATOM     17  O   UNL     1       6.203   7.910  17.526  0.00  0.00    +0.000 OA
ATOM     18  H   UNL     1       5.447   8.420  17.881  0.00  0.00    +0.000 HD
ENDBRANCH   4  17
BRANCH   6  19
ATOM     19  C   UNL     1       3.813   3.749  17.763  0.00  0.00    +0.000 C 
ATOM     20  C   UNL     1       4.760   3.494  18.933  0.00  0.00    +0.000 C 
ENDBRANCH   6  19
BRANCH   1  21
ATOM     21  C   UNL     1       5.850   3.563  15.267  0.00  0.00    +0.000 C 
BRANCH  21  23
ATOM     22  C   UNL     1       6.275   3.684  12.779  0.00  0.00    +0.000 C 
ATOM     23  C   UNL     1       5.605   4.062  13.871  0.00  0.00    +0.000 C 
ENDBRANCH  21  23
ENDBRANCH   1  21
TORSDOF 6
ENDMDL
MODEL 4
REMARK VINA RESULT:      -7.0      0.295      1.294
REMARK  Name = 
REMARK  7 active torsions:
REMARK  status: ('A' for Active; 'I' for Inactive)
REMARK    1  A    between atoms: C_2  and  C_3
REMARK    2  A    between atoms: C_3  and  N_4
REMARK    3  A    between atoms: C_7  and  O_8
REMARK    4  A    between atoms: C_9  and  C_10
REMARK    5  A    between atoms: C_13  and  C_14
REMARK    6  A    between atoms: C_20  and  C_21
REMARK    7  A    between atoms: C_21  and  C_22
REMARK                            x       y       z     vdW  Elec       q    Type
REMARK                         _______ _______ _______ _____ _____    ______ ____
ROOT
ATOM      1  N   UNL     1       5.667   4.362  15.783  0.00  0.00    +0.000 N 
ATOM      2  C   UNL     1       6.564   5.397  15.945  0.00  0.00    +0.000 C 
ATOM      3  O   UNL     1       7.646   5.579  15.412  0.00  0.00    +0.000 OA
ATOM      4  C   UNL     1       5.951   6.360  16.879  0.00  0.00    +0.000 C 
ATOM      5  C   UNL     1       4.746   5.884  17.217  0.00  0.00    +0.000 C 
ATOM      6  C   UNL     1       4.441   4.569  16.545  0.00  0.00    +0.000 C 
ENDROOT
BRANCH   5   7
ATOM      7  C   UNL     1       3.814   6.594  18.087  0.00  0.00    +0.000 A 
ATOM      8  C   UNL     1       3.447   6.067  19.330  0.00  0.00    +0.000 A 
ATOM      9  C   UNL     1       2.487   6.715  20.117  0.00  0.00    +0.000 A 
ATOM     10  C   UNL     1       1.884   7.903  19.678  0.00  0.00    +0.000 A 
ATOM     11  C   UNL     1       2.257   8.427  18.433  0.00  0.00    +0.000 A 
ATOM     12  C   UNL     1       3.200   7.770  17.642  0.00  0.00    +0.000 A 
BRANCH  10  13
ATOM     13  C   UNL     1       0.839   8.614  20.502  0.00  0.00    +0.000 C 
ATOM     14  F   UNL     1       0.003   7.773  21.170  0.00  0.00    +0.000 F 
ATOM     15  F   UNL     1       1.391   9.423  21.450  0.00  0.00    +0.000 F 
ATOM     16  F   UNL     1       0.038   9.418  19.749  0.00  0.00    +0.000 F 
ENDBRANCH  10  13
ENDBRANCH   5   7
BRANCH   4  17
ATOM     17  O   UNL     1       6.534   7.542  17.224  0.00  0.00    +0.000 OA
ATOM     18  H   UNL     1       6.015   8.225  16.754  0.00  0.00    +0.000 HD
ENDBRANCH   4  17
BRANCH   6  19
ATOM     19  C   UNL     1       4.118   3.398  17.492  0.00  0.00    +0.000 C 
ATOM     20  C   UNL     1       2.664   2.932  17.493  0.00  0.00    +0.000 C 
ENDBRANCH   6  19
BRANCH   1  21
ATOM     21  C   UNL     1       5.818   3.361  14.748  0.00  0.00    +0.000 C 
BRANCH  21  23
ATOM     22  C   UNL     1       5.654   3.430  12.227  0.00  0.00    +0.000 C 
ATOM     23  C   UNL     1       5.409   3.956  13.430  0.00  0.00    +0.000 C 
ENDBRANCH  21  23
ENDBRANCH   1  21
TORSDOF 6
ENDMDL
MODEL 5
REMARK VINA RESULT:      -7.0      0.918      1.376
REMARK  Name = 
REMARK  7 active torsions:
REMARK  status: ('A' for Active; 'I' for Inactive)
REMARK    1  A    between atoms: C_2  and  C_3
REMARK    2  A    between atoms: C_3  and  N_4
REMARK    3  A    between atoms: C_7  and  O_8
REMARK    4  A    between atoms: C_9  and  C_10
REMARK    5  A    between atoms: C_13  and  C_14
REMARK    6  A    between atoms: C_20  and  C_21
REMARK    7  A    between atoms: C_21  and  C_22
REMARK                            x       y       z     vdW  Elec       q    Type
REMARK                         _______ _______ _______ _____ _____    ______ ____
ROOT
ATOM      1  N   UNL     1       5.648   4.042  16.224  0.00  0.00    +0.000 N 
ATOM      2  C   UNL     1       6.668   4.645  16.930  0.00  0.00    +0.000 C 
ATOM      3  O   UNL     1       7.873   4.470  16.856  0.00  0.00    +0.000 OA
ATOM      4  C   UNL     1       6.050   5.654  17.809  0.00  0.00    +0.000 C 
ATOM      5  C   UNL     1       4.728   5.624  17.593  0.00  0.00    +0.000 C 
ATOM      6  C   UNL     1       4.343   4.602  16.554  0.00  0.00    +0.000 C 
ENDROOT
BRANCH   5   7
ATOM      7  C   UNL     1       3.784   6.527  18.244  0.00  0.00    +0.000 A 
ATOM      8  C   UNL     1       3.222   6.206  19.484  0.00  0.00    +0.000 A 
ATOM      9  C   UNL     1       2.253   7.038  20.058  0.00  0.00    +0.000 A 
ATOM     10  C   UNL     1       1.837   8.208  19.406  0.00  0.00    +0.000 A 
ATOM     11  C   UNL     1       2.405   8.526  18.164  0.00  0.00    +0.000 A 
ATOM     12  C   UNL     1       3.357   7.685  17.585  0.00  0.00    +0.000 A 
BRANCH  10  13
ATOM     13  C   UNL     1       0.787   9.115  19.997  0.00  0.00    +0.000 C 
ATOM     14  F   UNL     1       1.301  10.175  20.681  0.00  0.00    +0.000 F 
ATOM     15  F   UNL     1      -0.032   9.647  19.046  0.00  0.00    +0.000 F 
ATOM     16  F   UNL     1      -0.032   8.467  20.872  0.00  0.00    +0.000 F 
ENDBRANCH  10  13
ENDBRANCH   5   7
BRANCH   4  17
ATOM     17  O   UNL     1       6.769   6.487  18.612  0.00  0.00    +0.000 OA
ATOM     18  H   UNL     1       7.494   5.932  18.964  0.00  0.00    +0.000 HD
ENDBRANCH   4  17
BRANCH   6  19
ATOM     19  C   UNL     1       3.331   3.536  17.015  0.00  0.00    +0.000 C 
ATOM     20  C   UNL     1       3.754   2.704  18.223  0.00  0.00    +0.000 C 
ENDBRANCH   6  19
BRANCH   1  21
ATOM     21  C   UNL     1       5.895   3.181  15.087  0.00  0.00    +0.000 C 
BRANCH  21  23
ATOM     22  C   UNL     1       6.200   3.571  12.608  0.00  0.00    +0.000 C 
ATOM     23  C   UNL     1       6.010   4.026  13.850  0.00  0.00    +0.000 C 
ENDBRANCH  21  23
ENDBRANCH   1  21
TORSDOF 6
ENDMDL
MODEL 6
REMARK VINA RESULT:      -6.9      1.330      1.860
REMARK  Name = 
REMARK  7 active torsions:
REMARK  status: ('A' for Active; 'I' for Inactive)
REMARK    1  A    between atoms: C_2  and  C_3
REMARK    2  A    between atoms: C_3  and  N_4
REMARK    3  A    between atoms: C_7  and  O_8
REMARK    4  A    between atoms: C_9  and  C_10
REMARK    5  A    between atoms: C_13  and  C_14
REMARK    6  A    between atoms: C_20  and  C_21
REMARK    7  A    between atoms: C_21  and  C_22
REMARK                            x       y       z     vdW  Elec       q    Type
REMARK                         _______ _______ _______ _____ _____    ______ ____
ROOT
ATOM      1  N   UNL     1       5.340   4.035  16.740  0.00  0.00    +0.000 N 
ATOM      2  C   UNL     1       6.299   4.382  17.669  0.00  0.00    +0.000 C 
ATOM      3  O   UNL     1       7.493   4.133  17.684  0.00  0.00    +0.000 OA
ATOM      4  C   UNL     1       5.635   5.219  18.685  0.00  0.00    +0.000 C 
ATOM      5  C   UNL     1       4.350   5.344  18.330  0.00  0.00    +0.000 C 
ATOM      6  C   UNL     1       4.037   4.611  17.049  0.00  0.00    +0.000 C 
ENDROOT
BRANCH   5   7
ATOM      7  C   UNL     1       3.384   6.152  19.067  0.00  0.00    +0.000 A 
ATOM      8  C   UNL     1       2.733   5.643  20.195  0.00  0.00    +0.000 A 
ATOM      9  C   UNL     1       1.746   6.397  20.842  0.00  0.00    +0.000 A 
ATOM     10  C   UNL     1       1.400   7.675  20.377  0.00  0.00    +0.000 A 
ATOM     11  C   UNL     1       2.058   8.181  19.247  0.00  0.00    +0.000 A 
ATOM     12  C   UNL     1       3.028   7.420  18.593  0.00  0.00    +0.000 A 
BRANCH  10  13
ATOM     13  C   UNL     1       0.333   8.502  21.050  0.00  0.00    +0.000 C 
ATOM     14  F   UNL     1      -0.696   7.765  21.552  0.00  0.00    +0.000 F 
ATOM     15  F   UNL     1       0.822   9.223  22.098  0.00  0.00    +0.000 F 
ATOM     16  F   UNL     1      -0.233   9.410  20.207  0.00  0.00    +0.000 F 
ENDBRANCH  10  13
ENDBRANCH   5   7
BRANCH   4  17
ATOM     17  O   UNL     1       6.296   5.794  19.729  0.00  0.00    +0.000 OA
ATOM     18  H   UNL     1       5.924   5.367  20.527  0.00  0.00    +0.000 HD
ENDBRANCH   4  17
BRANCH   6  19
ATOM     19  C   UNL     1       2.921   3.554  17.145  0.00  0.00    +0.000 C 
ATOM     20  C   UNL     1       3.228   2.349  18.032  0.00  0.00    +0.000 C 
ENDBRANCH   6  19
BRANCH   1  21
ATOM     21  C   UNL     1       5.676   3.429  15.469  0.00  0.00    +0.000 C 
BRANCH  21  23
ATOM     22  C   UNL     1       7.060   4.934  13.982  0.00  0.00    +0.000 C 
ATOM     23  C   UNL     1       5.881   4.514  14.450  0.00  0.00    +0.000 C 
ENDBRANCH  21  23
ENDBRANCH   1  21
TORSDOF 6
ENDMDL
MODEL 7
REMARK VINA RESULT:      -6.9      4.444      7.347
REMARK  Name = 
REMARK  7 active torsions:
REMARK  status: ('A' for Active; 'I' for Inactive)
REMARK    1  A    between atoms: C_2  and  C_3
REMARK    2  A    between atoms: C_3  and  N_4
REMARK    3  A    between atoms: C_7  and  O_8
REMARK    4  A    between atoms: C_9  and  C_10
REMARK    5  A    between atoms: C_13  and  C_14
REMARK    6  A    between atoms: C_20  and  C_21
REMARK    7  A    between atoms: C_21  and  C_22
REMARK                            x       y       z     vdW  Elec       q    Type
REMARK                         _______ _______ _______ _____ _____    ______ ____
ROOT
ATOM      1  N   UNL     1       1.463   8.261  20.593  0.00  0.00    +0.000 N 
ATOM      2  C   UNL     1       1.308   9.170  19.567  0.00  0.00    +0.000 C 
ATOM      3  O   UNL     1       0.771  10.266  19.575  0.00  0.00    +0.000 OA
ATOM      4  C   UNL     1       1.993   8.614  18.387  0.00  0.00    +0.000 C 
ATOM      5  C   UNL     1       2.524   7.438  18.744  0.00  0.00    +0.000 C 
ATOM      6  C   UNL     1       2.248   7.101  20.187  0.00  0.00    +0.000 C 
ENDROOT
BRANCH   5   7
ATOM      7  C   UNL     1       3.332   6.614  17.850  0.00  0.00    +0.000 A 
ATOM      8  C   UNL     1       3.083   5.244  17.716  0.00  0.00    +0.000 A 
ATOM      9  C   UNL     1       3.919   4.448  16.922  0.00  0.00    +0.000 A 
ATOM     10  C   UNL     1       5.011   5.010  16.244  0.00  0.00    +0.000 A 
ATOM     11  C   UNL     1       5.254   6.384  16.381  0.00  0.00    +0.000 A 
ATOM     12  C   UNL     1       4.431   7.172  17.187  0.00  0.00    +0.000 A 
BRANCH  10  13
ATOM     13  C   UNL     1       5.932   4.173  15.392  0.00  0.00    +0.000 C 
ATOM     14  F   UNL     1       7.253   4.425  15.604  0.00  0.00    +0.000 F 
ATOM     15  F   UNL     1       5.766   2.838  15.609  0.00  0.00    +0.000 F 
ATOM     16  F   UNL     1       5.725   4.361  14.059  0.00  0.00    +0.000 F 
ENDBRANCH  10  13
ENDBRANCH   5   7
BRANCH   4  17
ATOM     17  O   UNL     1       2.095   9.277  17.200  0.00  0.00    +0.000 OA
ATOM     18  H   UNL     1       3.029   9.164  16.929  0.00  0.00    +0.000 HD
ENDBRANCH   4  17
BRANCH   6  19
ATOM     19  C   UNL     1       1.517   5.767  20.429  0.00  0.00    +0.000 C 
ATOM     20  C   UNL     1       2.311   4.709  21.190  0.00  0.00    +0.000 C 
ENDBRANCH   6  19
BRANCH   1  21
ATOM     21  C   UNL     1       1.140   8.580  21.967  0.00  0.00    +0.000 C 
BRANCH  21  23
ATOM     22  C   UNL     1      -0.826   9.884  22.873  0.00  0.00    +0.000 C 
ATOM     23  C   UNL     1      -0.309   8.966  22.052  0.00  0.00    +0.000 C 
ENDBRANCH  21  23
ENDBRANCH   1  21
TORSDOF 6
ENDMDL
MODEL 8
REMARK VINA RESULT:      -6.8      2.836      3.563
REMARK  Name = 
REMARK  7 active torsions:
REMARK  status: ('A' for Active; 'I' for Inactive)
REMARK    1  A    between atoms: C_2  and  C_3
REMARK    2  A    between atoms: C_3  and  N_4
REMARK    3  A    between atoms: C_7  and  O_8
REMARK    4  A    between atoms: C_9  and  C_10
REMARK    5  A    between atoms: C_13  and  C_14
REMARK    6  A    between atoms: C_20  and  C_21
REMARK    7  A    between atoms: C_21  and  C_22
REMARK                            x       y       z     vdW  Elec       q    Type
REMARK                         _______ _______ _______ _____ _____    ______ ____
ROOT
ATOM      1  N   UNL     1       4.077   3.635  19.484  0.00  0.00    +0.000 N 
ATOM      2  C   UNL     1       5.152   4.329  18.970  0.00  0.00    +0.000 C 
ATOM      3  O   UNL     1       6.255   3.923  18.644  0.00  0.00    +0.000 OA
ATOM      4  C   UNL     1       4.721   5.729  18.797  0.00  0.00    +0.000 C 
ATOM      5  C   UNL     1       3.444   5.811  19.191  0.00  0.00    +0.000 C 
ATOM      6  C   UNL     1       2.904   4.483  19.657  0.00  0.00    +0.000 C 
ENDROOT
BRANCH   5   7
ATOM      7  C   UNL     1       2.653   7.035  19.112  0.00  0.00    +0.000 A 
ATOM      8  C   UNL     1       2.012   7.550  20.243  0.00  0.00    +0.000 A 
ATOM      9  C   UNL     1       1.187   8.677  20.137  0.00  0.00    +0.000 A 
ATOM     10  C   UNL     1       0.995   9.310  18.900  0.00  0.00    +0.000 A 
ATOM     11  C   UNL     1       1.642   8.790  17.769  0.00  0.00    +0.000 A 
ATOM     12  C   UNL     1       2.449   7.656  17.875  0.00  0.00    +0.000 A 
BRANCH  10  13
ATOM     13  C   UNL     1       0.103  10.517  18.756  0.00  0.00    +0.000 C 
ATOM     14  F   UNL     1       0.779  11.672  18.503  0.00  0.00    +0.000 F 
ATOM     15  F   UNL     1      -0.794  10.380  17.739  0.00  0.00    +0.000 F 
ATOM     16  F   UNL     1      -0.638  10.756  19.874  0.00  0.00    +0.000 F 
ENDBRANCH  10  13
ENDBRANCH   5   7
BRANCH   4  17
ATOM     17  O   UNL     1       5.515   6.693  18.251  0.00  0.00    +0.000 OA
ATOM     18  H   UNL     1       6.079   7.001  18.988  0.00  0.00    +0.000 HD
ENDBRANCH   4  17
BRANCH   6  19
ATOM     19  C   UNL     1       2.353   4.459  21.096  0.00  0.00    +0.000 C 
ATOM     20  C   UNL     1       1.361   3.340  21.404  0.00  0.00    +0.000 C 
ENDBRANCH   6  19
BRANCH   1  21
ATOM     21  C   UNL     1       4.047   2.189  19.549  0.00  0.00    +0.000 C 
BRANCH  21  23
ATOM     22  C   UNL     1       2.436   2.118  17.603  0.00  0.00    +0.000 C 
ATOM     23  C   UNL     1       3.507   1.653  18.253  0.00  0.00    +0.000 C 
ENDBRANCH  21  23
ENDBRANCH   1  21
TORSDOF 6
ENDMDL
MODEL 9
REMARK VINA RESULT:      -6.8      2.415      3.480
REMARK  Name = 
REMARK  7 active torsions:
REMARK  status: ('A' for Active; 'I' for Inactive)
REMARK    1  A    between atoms: C_2  and  C_3
REMARK    2  A    between atoms: C_3  and  N_4
REMARK    3  A    between atoms: C_7  and  O_8
REMARK    4  A    between atoms: C_9  and  C_10
REMARK    5  A    between atoms: C_13  and  C_14
REMARK    6  A    between atoms: C_20  and  C_21
REMARK    7  A    between atoms: C_21  and  C_22
REMARK                            x       y       z     vdW  Elec       q    Type
REMARK                         _______ _______ _______ _____ _____    ______ ____
ROOT
ATOM      1  N   UNL     1       3.118   3.931  17.943  0.00  0.00    +0.000 N 
ATOM      2  C   UNL     1       4.201   4.603  17.414  0.00  0.00    +0.000 C 
ATOM      3  O   UNL     1       5.151   4.170  16.783  0.00  0.00    +0.000 OA
ATOM      4  C   UNL     1       3.996   6.038  17.685  0.00  0.00    +0.000 C 
ATOM      5  C   UNL     1       2.831   6.165  18.334  0.00  0.00    +0.000 C 
ATOM      6  C   UNL     1       2.152   4.837  18.553  0.00  0.00    +0.000 C 
ENDROOT
BRANCH   5   7
ATOM      7  C   UNL     1       2.261   7.451  18.722  0.00  0.00    +0.000 A 
ATOM      8  C   UNL     1       1.907   7.708  20.051  0.00  0.00    +0.000 A 
ATOM      9  C   UNL     1       1.281   8.913  20.395  0.00  0.00    +0.000 A 
ATOM     10  C   UNL     1       1.008   9.883  19.419  0.00  0.00    +0.000 A 
ATOM     11  C   UNL     1       1.368   9.620  18.090  0.00  0.00    +0.000 A 
ATOM     12  C   UNL     1       1.974   8.411  17.746  0.00  0.00    +0.000 A 
BRANCH  10  13
ATOM     13  C   UNL     1       0.326  11.184  19.763  0.00  0.00    +0.000 C 
ATOM     14  F   UNL     1       1.108  12.039  20.478  0.00  0.00    +0.000 F 
ATOM     15  F   UNL     1      -0.063  11.872  18.652  0.00  0.00    +0.000 F 
ATOM     16  F   UNL     1      -0.803  11.002  20.502  0.00  0.00    +0.000 F 
ENDBRANCH  10  13
ENDBRANCH   5   7
BRANCH   4  17
ATOM     17  O   UNL     1       4.846   7.009  17.249  0.00  0.00    +0.000 OA
ATOM     18  H   UNL     1       5.727   6.583  17.230  0.00  0.00    +0.000 HD
ENDBRANCH   4  17
BRANCH   6  19
ATOM     19  C   UNL     1       1.842   4.484  20.020  0.00  0.00    +0.000 C 
ATOM     20  C   UNL     1       0.707   3.485  20.232  0.00  0.00    +0.000 C 
ENDBRANCH   6  19
BRANCH   1  21
ATOM     21  C   UNL     1       2.850   2.539  17.649  0.00  0.00    +0.000 C 
BRANCH  21  23
ATOM     22  C   UNL     1       4.283   2.106  19.686  0.00  0.00    +0.000 C 
ATOM     23  C   UNL     1       3.644   1.680  18.592  0.00  0.00    +0.000 C 
ENDBRANCH  21  23
ENDBRANCH   1  21
TORSDOF 6
ENDMDL
