MODEL 1
REMARK VINA RESULT:      -7.5      0.000      0.000
REMARK  Name = 
REMARK  6 active torsions:
REMARK  status: ('A' for Active; 'I' for Inactive)
REMARK    1  A    between atoms: C_1  and  O_2
REMARK    2  A    between atoms: O_2  and  C_3
REMARK    3  A    between atoms: C_8  and  N_9
REMARK    4  A    between atoms: C_10  and  C_12
REMARK    5  A    between atoms: C_12  and  S_13
REMARK    6  A    between atoms: S_13  and  C_14
REMARK                            x       y       z     vdW  Elec       q    Type
REMARK                         _______ _______ _______ _____ _____    ______ ____
ROOT
ATOM      1  C   UNL     1       2.613   3.458  21.048  0.00  0.00    +0.000 C 
ENDROOT
BRANCH   1   3
ATOM      2  N   UNL     1       2.516   5.884  20.507  0.00  0.00    +0.000 N 
ATOM      3  C   UNL     1       1.904   4.647  20.394  0.00  0.00    +0.000 C 
ATOM      4  O   UNL     1       0.804   4.460  19.869  0.00  0.00    +0.000 OA
ATOM      5  H   UNL     1       3.499   5.897  20.768  0.00  0.00    +0.000 HD
BRANCH   2  11
ATOM      6  C   UNL     1       2.214   7.692  18.892  0.00  0.00    +0.000 A 
ATOM      7  C   UNL     1       1.723   8.964  18.561  0.00  0.00    +0.000 A 
ATOM      8  C   UNL     1       0.949   9.684  19.469  0.00  0.00    +0.000 A 
ATOM      9  C   UNL     1       0.684   9.150  20.722  0.00  0.00    +0.000 A 
ATOM     10  C   UNL     1       1.197   7.896  21.072  0.00  0.00    +0.000 A 
ATOM     11  C   UNL     1       1.963   7.150  20.173  0.00  0.00    +0.000 A 
BRANCH   6  13
ATOM     12  C   UNL     1       3.834   7.664  17.167  0.00  0.00    +0.000 C 
ATOM     13  O   UNL     1       2.953   6.923  18.013  0.00  0.00    +0.000 OA
ENDBRANCH   6  13
ENDBRANCH   2  11
ENDBRANCH   1   3
BRANCH   1  14
ATOM     14  S   UNL     1       3.581   2.435  19.906  0.00  0.00    +0.000 S 
BRANCH  14  15
ATOM     15  C   UNL     1       4.398   3.574  18.871  0.00  0.00    +0.000 C 
ATOM     16  C   UNL     1       5.488   4.219  19.309  0.00  0.00    +0.000 C 
ATOM     17  C   UNL     1       6.275   5.115  18.437  0.00  0.00    +0.000 C 
ATOM     18  O   UNL     1       7.057   5.932  18.898  0.00  0.00    +0.000 OA
ATOM     19  C   UNL     1       6.148   4.890  16.983  0.00  0.00    +0.000 A 
ATOM     20  C   UNL     1       7.146   5.329  16.105  0.00  0.00    +0.000 A 
ATOM     21  C   UNL     1       7.126   4.903  14.773  0.00  0.00    +0.000 A 
ATOM     22  C   UNL     1       6.104   4.066  14.324  0.00  0.00    +0.000 A 
ATOM     23  C   UNL     1       5.058   3.707  15.178  0.00  0.00    +0.000 A 
ATOM     24  C   UNL     1       5.081   4.128  16.511  0.00  0.00    +0.000 A 
ATOM     25  C   UNL     1       3.999   3.743  17.440  0.00  0.00    +0.000 C 
ATOM     26  O   UNL     1       2.863   3.584  17.018  0.00  0.00    +0.000 OA
ENDBRANCH  14  15
ENDBRANCH   1  14
TORSDOF 5
ENDMDL
MODEL 2
REMARK VINA RESULT:      -7.4      1.067      1.902
REMARK  Name = 
REMARK  6 active torsions:
REMARK  status: ('A' for Active; 'I' for Inactive)
REMARK    1  A    between atoms: C_1  and  O_2
REMARK    2  A    between atoms: O_2  and  C_3
REMARK    3  A    between atoms: C_8  and  N_9
REMARK    4  A    between atoms: C_10  and  C_12
REMARK    5  A    between atoms: C_12  and  S_13
REMARK    6  A    between atoms: S_13  and  C_14
REMARK                            x       y       z     vdW  Elec       q    Type
REMARK                         _______ _______ _______ _____ _____    ______ ____
ROOT
ATOM      1  C   UNL     1       2.682   3.972  20.780  0.00  0.00    +0.000 C 
ENDROOT
BRANCH   1   3
ATOM      2  N   UNL     1       2.648   6.348  20.043  0.00  0.00    +0.000 N 
ATOM      3  C   UNL     1       2.105   5.083  19.897  0.00  0.00    +0.000 C 
ATOM      4  O   UNL     1       1.151   4.815  19.163  0.00  0.00    +0.000 OA
ATOM      5  H   UNL     1       3.550   6.420  20.508  0.00  0.00    +0.000 HD
BRANCH   2  11
ATOM      6  C   UNL     1       1.432   8.447  20.338  0.00  0.00    +0.000 A 
ATOM      7  C   UNL     1       0.886   9.626  19.809  0.00  0.00    +0.000 A 
ATOM      8  C   UNL     1       1.084   9.961  18.471  0.00  0.00    +0.000 A 
ATOM      9  C   UNL     1       1.803   9.108  17.647  0.00  0.00    +0.000 A 
ATOM     10  C   UNL     1       2.324   7.914  18.158  0.00  0.00    +0.000 A 
ATOM     11  C   UNL     1       2.151   7.564  19.500  0.00  0.00    +0.000 A 
BRANCH   6  13
ATOM     12  C   UNL     1       0.733   9.101  22.503  0.00  0.00    +0.000 C 
ATOM     13  O   UNL     1       1.297   8.089  21.666  0.00  0.00    +0.000 OA
ENDBRANCH   6  13
ENDBRANCH   2  11
ENDBRANCH   1   3
BRANCH   1  14
ATOM     14  S   UNL     1       3.921   2.929  19.964  0.00  0.00    +0.000 S 
BRANCH  14  15
ATOM     15  C   UNL     1       4.641   3.954  18.753  0.00  0.00    +0.000 C 
ATOM     16  C   UNL     1       5.693   4.724  19.063  0.00  0.00    +0.000 C 
ATOM     17  C   UNL     1       6.402   5.531  18.049  0.00  0.00    +0.000 C 
ATOM     18  O   UNL     1       7.136   6.455  18.365  0.00  0.00    +0.000 OA
ATOM     19  C   UNL     1       6.263   5.089  16.646  0.00  0.00    +0.000 A 
ATOM     20  C   UNL     1       7.214   5.457  15.687  0.00  0.00    +0.000 A 
ATOM     21  C   UNL     1       7.198   4.841  14.431  0.00  0.00    +0.000 A 
ATOM     22  C   UNL     1       6.226   3.885  14.137  0.00  0.00    +0.000 A 
ATOM     23  C   UNL     1       5.222   3.588  15.063  0.00  0.00    +0.000 A 
ATOM     24  C   UNL     1       5.242   4.200  16.320  0.00  0.00    +0.000 A 
ATOM     25  C   UNL     1       4.205   3.887  17.325  0.00  0.00    +0.000 C 
ATOM     26  O   UNL     1       3.074   3.597  16.962  0.00  0.00    +0.000 OA
ENDBRANCH  14  15
ENDBRANCH   1  14
TORSDOF 5
ENDMDL
MODEL 3
REMARK VINA RESULT:      -7.3      4.998      6.823
REMARK  Name = 
REMARK  6 active torsions:
REMARK  status: ('A' for Active; 'I' for Inactive)
REMARK    1  A    between atoms: C_1  and  O_2
REMARK    2  A    between atoms: O_2  and  C_3
REMARK    3  A    between atoms: C_8  and  N_9
REMARK    4  A    between atoms: C_10  and  C_12
REMARK    5  A    between atoms: C_12  and  S_13
REMARK    6  A    between atoms: S_13  and  C_14
REMARK                            x       y       z     vdW  Elec       q    Type
REMARK                         _______ _______ _______ _____ _____    ______ ____
ROOT
ATOM      1  C   UNL     1       7.985   7.252  18.562  0.00  0.00    +0.000 C 
ENDROOT
BRANCH   1   3
ATOM      2  N   UNL     1       9.239   9.344  19.054  0.00  0.00    +0.000 N 
ATOM      3  C   UNL     1       8.342   8.701  18.217  0.00  0.00    +0.000 C 
ATOM      4  O   UNL     1       7.767   9.238  17.268  0.00  0.00    +0.000 OA
ATOM      5  H   UNL     1       9.804   8.763  19.669  0.00  0.00    +0.000 HD
BRANCH   2  11
ATOM      6  C   UNL     1       9.372  11.466  20.257  0.00  0.00    +0.000 A 
ATOM      7  C   UNL     1       9.632  12.845  20.275  0.00  0.00    +0.000 A 
ATOM      8  C   UNL     1      10.120  13.490  19.140  0.00  0.00    +0.000 A 
ATOM      9  C   UNL     1      10.324  12.768  17.973  0.00  0.00    +0.000 A 
ATOM     10  C   UNL     1      10.037  11.399  17.936  0.00  0.00    +0.000 A 
ATOM     11  C   UNL     1       9.561  10.728  19.066  0.00  0.00    +0.000 A 
BRANCH   6  13
ATOM     12  C   UNL     1       8.370  11.593  22.397  0.00  0.00    +0.000 C 
ATOM     13  O   UNL     1       8.924  10.774  21.366  0.00  0.00    +0.000 OA
ENDBRANCH   6  13
ENDBRANCH   2  11
ENDBRANCH   1   3
BRANCH   1  14
ATOM     14  S   UNL     1       7.184   6.333  17.220  0.00  0.00    +0.000 S 
BRANCH  14  15
ATOM     15  C   UNL     1       5.587   5.973  17.816  0.00  0.00    +0.000 C 
ATOM     16  C   UNL     1       4.559   6.779  17.514  0.00  0.00    +0.000 C 
ATOM     17  C   UNL     1       3.170   6.463  17.908  0.00  0.00    +0.000 C 
ATOM     18  O   UNL     1       2.298   7.318  17.919  0.00  0.00    +0.000 OA
ATOM     19  C   UNL     1       2.874   5.042  18.177  0.00  0.00    +0.000 A 
ATOM     20  C   UNL     1       1.561   4.563  18.100  0.00  0.00    +0.000 A 
ATOM     21  C   UNL     1       1.330   3.183  18.123  0.00  0.00    +0.000 A 
ATOM     22  C   UNL     1       2.402   2.299  18.243  0.00  0.00    +0.000 A 
ATOM     23  C   UNL     1       3.702   2.783  18.414  0.00  0.00    +0.000 A 
ATOM     24  C   UNL     1       3.933   4.162  18.386  0.00  0.00    +0.000 A 
ATOM     25  C   UNL     1       5.301   4.698  18.542  0.00  0.00    +0.000 C 
ATOM     26  O   UNL     1       6.114   4.100  19.231  0.00  0.00    +0.000 OA
ENDBRANCH  14  15
ENDBRANCH   1  14
TORSDOF 5
ENDMDL
MODEL 4
REMARK VINA RESULT:      -7.2      2.685      7.068
REMARK  Name = 
REMARK  6 active torsions:
REMARK  status: ('A' for Active; 'I' for Inactive)
REMARK    1  A    between atoms: C_1  and  O_2
REMARK    2  A    between atoms: O_2  and  C_3
REMARK    3  A    between atoms: C_8  and  N_9
REMARK    4  A    between atoms: C_10  and  C_12
REMARK    5  A    between atoms: C_12  and  S_13
REMARK    6  A    between atoms: S_13  and  C_14
REMARK                            x       y       z     vdW  Elec       q    Type
REMARK                         _______ _______ _______ _____ _____    ______ ____
ROOT
ATOM      1  C   UNL     1       6.414   6.200  17.745  0.00  0.00    +0.000 C 
ENDROOT
BRANCH   1   3
ATOM      2  N   UNL     1       6.240   5.599  15.337  0.00  0.00    +0.000 N 
ATOM      3  C   UNL     1       6.839   5.332  16.556  0.00  0.00    +0.000 C 
ATOM      4  O   UNL     1       7.627   4.405  16.757  0.00  0.00    +0.000 OA
ATOM      5  H   UNL     1       5.774   6.497  15.231  0.00  0.00    +0.000 HD
BRANCH   2  11
ATOM      6  C   UNL     1       7.434   4.942  13.309  0.00  0.00    +0.000 A 
ATOM      7  C   UNL     1       7.497   4.215  12.111  0.00  0.00    +0.000 A 
ATOM      8  C   UNL     1       6.479   3.328  11.765  0.00  0.00    +0.000 A 
ATOM      9  C   UNL     1       5.380   3.183  12.599  0.00  0.00    +0.000 A 
ATOM     10  C   UNL     1       5.294   3.928  13.781  0.00  0.00    +0.000 A 
ATOM     11  C   UNL     1       6.309   4.812  14.155  0.00  0.00    +0.000 A 
BRANCH   6  13
ATOM     12  C   UNL     1       9.344   6.192  12.683  0.00  0.00    +0.000 C 
ATOM     13  O   UNL     1       8.435   5.804  13.715  0.00  0.00    +0.000 OA
ENDBRANCH   6  13
ENDBRANCH   2  11
ENDBRANCH   1   3
BRANCH   1  14
ATOM     14  S   UNL     1       4.831   7.057  17.525  0.00  0.00    +0.000 S 
BRANCH  14  15
ATOM     15  C   UNL     1       3.622   5.879  17.955  0.00  0.00    +0.000 C 
ATOM     16  C   UNL     1       3.473   4.769  17.219  0.00  0.00    +0.000 C 
ATOM     17  C   UNL     1       2.536   3.693  17.600  0.00  0.00    +0.000 C 
ATOM     18  O   UNL     1       2.166   2.851  16.795  0.00  0.00    +0.000 OA
ATOM     19  C   UNL     1       2.161   3.626  19.027  0.00  0.00    +0.000 A 
ATOM     20  C   UNL     1       1.682   2.434  19.581  0.00  0.00    +0.000 A 
ATOM     21  C   UNL     1       1.559   2.322  20.970  0.00  0.00    +0.000 A 
ATOM     22  C   UNL     1       1.892   3.402  21.789  0.00  0.00    +0.000 A 
ATOM     23  C   UNL     1       2.280   4.621  21.227  0.00  0.00    +0.000 A 
ATOM     24  C   UNL     1       2.408   4.731  19.839  0.00  0.00    +0.000 A 
ATOM     25  C   UNL     1       2.838   6.002  19.222  0.00  0.00    +0.000 C 
ATOM     26  O   UNL     1       2.547   7.065  19.752  0.00  0.00    +0.000 OA
ENDBRANCH  14  15
ENDBRANCH   1  14
TORSDOF 5
ENDMDL
MODEL 5
REMARK VINA RESULT:      -7.0      2.846      7.613
REMARK  Name = 
REMARK  6 active torsions:
REMARK  status: ('A' for Active; 'I' for Inactive)
REMARK    1  A    between atoms: C_1  and  O_2
REMARK    2  A    between atoms: O_2  and  C_3
REMARK    3  A    between atoms: C_8  and  N_9
REMARK    4  A    between atoms: C_10  and  C_12
REMARK    5  A    between atoms: C_12  and  S_13
REMARK    6  A    between atoms: S_13  and  C_14
REMARK                            x       y       z     vdW  Elec       q    Type
REMARK                         _______ _______ _______ _____ _____    ______ ____
ROOT
ATOM      1  C   UNL     1       3.221   7.912  17.815  0.00  0.00    +0.000 C 
ENDROOT
BRANCH   1   3
ATOM      2  N   UNL     1       2.165   5.899  18.824  0.00  0.00    +0.000 N 
ATOM      3  C   UNL     1       3.342   6.521  18.445  0.00  0.00    +0.000 C 
ATOM      4  O   UNL     1       4.469   6.063  18.647  0.00  0.00    +0.000 OA
ATOM      5  H   UNL     1       1.297   6.257  18.432  0.00  0.00    +0.000 HD
BRANCH   2  11
ATOM      6  C   UNL     1       1.731   3.498  18.961  0.00  0.00    +0.000 A 
ATOM      7  C   UNL     1       1.540   2.333  19.720  0.00  0.00    +0.000 A 
ATOM      8  C   UNL     1       1.688   2.357  21.105  0.00  0.00    +0.000 A 
ATOM      9  C   UNL     1       2.000   3.548  21.744  0.00  0.00    +0.000 A 
ATOM     10  C   UNL     1       2.159   4.722  20.998  0.00  0.00    +0.000 A 
ATOM     11  C   UNL     1       2.031   4.719  19.607  0.00  0.00    +0.000 A 
BRANCH   6  13
ATOM     12  C   UNL     1       2.848   3.219  16.893  0.00  0.00    +0.000 C 
ATOM     13  O   UNL     1       1.633   3.518  17.583  0.00  0.00    +0.000 OA
ENDBRANCH   6  13
ENDBRANCH   2  11
ENDBRANCH   1   3
BRANCH   1  14
ATOM     14  S   UNL     1       1.525   8.545  17.705  0.00  0.00    +0.000 S 
BRANCH  14  15
ATOM     15  C   UNL     1       1.388   9.685  19.015  0.00  0.00    +0.000 C 
ATOM     16  C   UNL     1       1.354  11.000  18.761  0.00  0.00    +0.000 C 
ATOM     17  C   UNL     1       1.136  12.001  19.826  0.00  0.00    +0.000 C 
ATOM     18  O   UNL     1       1.415  13.179  19.663  0.00  0.00    +0.000 OA
ATOM     19  C   UNL     1       0.461  11.520  21.048  0.00  0.00    +0.000 A 
ATOM     20  C   UNL     1      -0.200  12.417  21.896  0.00  0.00    +0.000 A 
ATOM     21  C   UNL     1      -1.027  11.922  22.910  0.00  0.00    +0.000 A 
ATOM     22  C   UNL     1      -1.169  10.545  23.083  0.00  0.00    +0.000 A 
ATOM     23  C   UNL     1      -0.435   9.654  22.296  0.00  0.00    +0.000 A 
ATOM     24  C   UNL     1       0.387  10.148  21.279  0.00  0.00    +0.000 A 
ATOM     25  C   UNL     1       1.157   9.226  20.419  0.00  0.00    +0.000 C 
ATOM     26  O   UNL     1       1.558   8.164  20.872  0.00  0.00    +0.000 OA
ENDBRANCH  14  15
ENDBRANCH   1  14
TORSDOF 5
ENDMDL
MODEL 6
REMARK VINA RESULT:      -7.0      6.854      9.104
REMARK  Name = 
REMARK  6 active torsions:
REMARK  status: ('A' for Active; 'I' for Inactive)
REMARK    1  A    between atoms: C_1  and  O_2
REMARK    2  A    between atoms: O_2  and  C_3
REMARK    3  A    between atoms: C_8  and  N_9
REMARK    4  A    between atoms: C_10  and  C_12
REMARK    5  A    between atoms: C_12  and  S_13
REMARK    6  A    between atoms: S_13  and  C_14
REMARK                            x       y       z     vdW  Elec       q    Type
REMARK                         _______ _______ _______ _____ _____    ______ ____
ROOT
ATOM      1  C   UNL     1       8.389   9.369  17.792  0.00  0.00    +0.000 C 
ENDROOT
BRANCH   1   3
ATOM      2  N   UNL     1       6.803   7.659  16.928  0.00  0.00    +0.000 N 
ATOM      3  C   UNL     1       7.829   7.943  17.813  0.00  0.00    +0.000 C 
ATOM      4  O   UNL     1       8.263   7.153  18.654  0.00  0.00    +0.000 OA
ATOM      5  H   UNL     1       6.664   8.299  16.150  0.00  0.00    +0.000 HD
BRANCH   2  11
ATOM      6  C   UNL     1       6.327   5.442  16.018  0.00  0.00    +0.000 A 
ATOM      7  C   UNL     1       5.507   4.306  15.937  0.00  0.00    +0.000 A 
ATOM      8  C   UNL     1       4.386   4.180  16.754  0.00  0.00    +0.000 A 
ATOM      9  C   UNL     1       4.060   5.199  17.637  0.00  0.00    +0.000 A 
ATOM     10  C   UNL     1       4.853   6.351  17.701  0.00  0.00    +0.000 A 
ATOM     11  C   UNL     1       5.991   6.492  16.902  0.00  0.00    +0.000 A 
BRANCH   6  13
ATOM     12  C   UNL     1       7.386   5.056  13.936  0.00  0.00    +0.000 C 
ATOM     13  O   UNL     1       7.469   5.597  15.256  0.00  0.00    +0.000 OA
ENDBRANCH   6  13
ENDBRANCH   2  11
ENDBRANCH   1   3
BRANCH   1  14
ATOM     14  S   UNL     1       9.105   9.921  19.365  0.00  0.00    +0.000 S 
BRANCH  14  15
ATOM     15  C   UNL     1       9.895  11.428  18.991  0.00  0.00    +0.000 C 
ATOM     16  C   UNL     1      10.197  11.732  17.721  0.00  0.00    +0.000 C 
ATOM     17  C   UNL     1      10.772  13.038  17.340  0.00  0.00    +0.000 C 
ATOM     18  O   UNL     1      11.332  13.203  16.267  0.00  0.00    +0.000 OA
ATOM     19  C   UNL     1      10.533  14.156  18.275  0.00  0.00    +0.000 A 
ATOM     20  C   UNL     1      10.608  15.482  17.833  0.00  0.00    +0.000 A 
ATOM     21  C   UNL     1      10.150  16.510  18.664  0.00  0.00    +0.000 A 
ATOM     22  C   UNL     1       9.645  16.211  19.929  0.00  0.00    +0.000 A 
ATOM     23  C   UNL     1       9.659  14.897  20.404  0.00  0.00    +0.000 A 
ATOM     24  C   UNL     1      10.111  13.869  19.572  0.00  0.00    +0.000 A 
ATOM     25  C   UNL     1      10.115  12.468  20.041  0.00  0.00    +0.000 C 
ATOM     26  O   UNL     1      10.290  12.224  21.226  0.00  0.00    +0.000 OA
ENDBRANCH  14  15
ENDBRANCH   1  14
TORSDOF 5
ENDMDL
MODEL 7
REMARK VINA RESULT:      -6.8      2.055      4.232
REMARK  Name = 
REMARK  6 active torsions:
REMARK  status: ('A' for Active; 'I' for Inactive)
REMARK    1  A    between atoms: C_1  and  O_2
REMARK    2  A    between atoms: O_2  and  C_3
REMARK    3  A    between atoms: C_8  and  N_9
REMARK    4  A    between atoms: C_10  and  C_12
REMARK    5  A    between atoms: C_12  and  S_13
REMARK    6  A    between atoms: S_13  and  C_14
REMARK                            x       y       z     vdW  Elec       q    Type
REMARK                         _______ _______ _______ _____ _____    ______ ____
ROOT
ATOM      1  C   UNL     1       5.042   6.177  16.685  0.00  0.00    +0.000 C 
ENDROOT
BRANCH   1   3
ATOM      2  N   UNL     1       3.049   7.070  17.876  0.00  0.00    +0.000 N 
ATOM      3  C   UNL     1       4.274   6.433  17.985  0.00  0.00    +0.000 C 
ATOM      4  O   UNL     1       4.808   6.129  19.054  0.00  0.00    +0.000 OA
ATOM      5  H   UNL     1       2.611   7.089  16.958  0.00  0.00    +0.000 HD
BRANCH   2  11
ATOM      6  C   UNL     1       1.701   8.889  18.796  0.00  0.00    +0.000 A 
ATOM      7  C   UNL     1       0.963   9.449  19.849  0.00  0.00    +0.000 A 
ATOM      8  C   UNL     1       0.734   8.726  21.018  0.00  0.00    +0.000 A 
ATOM      9  C   UNL     1       1.263   7.451  21.153  0.00  0.00    +0.000 A 
ATOM     10  C   UNL     1       2.029   6.896  20.120  0.00  0.00    +0.000 A 
ATOM     11  C   UNL     1       2.258   7.597  18.933  0.00  0.00    +0.000 A 
BRANCH   6  13
ATOM     12  C   UNL     1       2.387  10.894  17.742  0.00  0.00    +0.000 C 
ATOM     13  O   UNL     1       1.923   9.550  17.603  0.00  0.00    +0.000 OA
ENDBRANCH   6  13
ENDBRANCH   2  11
ENDBRANCH   1   3
BRANCH   1  14
ATOM     14  S   UNL     1       5.092   4.440  16.168  0.00  0.00    +0.000 S 
BRANCH  14  15
ATOM     15  C   UNL     1       4.370   3.561  17.487  0.00  0.00    +0.000 C 
ATOM     16  C   UNL     1       5.123   3.166  18.524  0.00  0.00    +0.000 C 
ATOM     17  C   UNL     1       4.541   2.510  19.713  0.00  0.00    +0.000 C 
ATOM     18  O   UNL     1       5.232   1.876  20.496  0.00  0.00    +0.000 OA
ATOM     19  C   UNL     1       3.107   2.758  19.961  0.00  0.00    +0.000 A 
ATOM     20  C   UNL     1       2.568   2.595  21.243  0.00  0.00    +0.000 A 
ATOM     21  C   UNL     1       1.276   3.058  21.509  0.00  0.00    +0.000 A 
ATOM     22  C   UNL     1       0.527   3.655  20.495  0.00  0.00    +0.000 A 
ATOM     23  C   UNL     1       1.031   3.730  19.194  0.00  0.00    +0.000 A 
ATOM     24  C   UNL     1       2.326   3.273  18.930  0.00  0.00    +0.000 A 
ATOM     25  C   UNL     1       2.891   3.362  17.567  0.00  0.00    +0.000 C 
ATOM     26  O   UNL     1       2.154   3.272  16.596  0.00  0.00    +0.000 OA
ENDBRANCH  14  15
ENDBRANCH   1  14
TORSDOF 5
ENDMDL
MODEL 8
REMARK VINA RESULT:      -6.8      4.991      6.797
REMARK  Name = 
REMARK  6 active torsions:
REMARK  status: ('A' for Active; 'I' for Inactive)
REMARK    1  A    between atoms: C_1  and  O_2
REMARK    2  A    between atoms: O_2  and  C_3
REMARK    3  A    between atoms: C_8  and  N_9
REMARK    4  A    between atoms: C_10  and  C_12
REMARK    5  A    between atoms: C_12  and  S_13
REMARK    6  A    between atoms: S_13  and  C_14
REMARK                            x       y       z     vdW  Elec       q    Type
REMARK                         _______ _______ _______ _____ _____    ______ ____
ROOT
ATOM      1  C   UNL     1       7.365   7.893  17.122  0.00  0.00    +0.000 C 
ENDROOT
BRANCH   1   3
ATOM      2  N   UNL     1       8.246  10.140  17.724  0.00  0.00    +0.000 N 
ATOM      3  C   UNL     1       8.178   8.797  18.054  0.00  0.00    +0.000 C 
ATOM      4  O   UNL     1       8.782   8.280  18.996  0.00  0.00    +0.000 OA
ATOM      5  H   UNL     1       7.557  10.496  17.065  0.00  0.00    +0.000 HD
BRANCH   2  11
ATOM      6  C   UNL     1       8.852  12.488  18.020  0.00  0.00    +0.000 A 
ATOM      7  C   UNL     1       9.710  13.472  18.536  0.00  0.00    +0.000 A 
ATOM      8  C   UNL     1      10.775  13.122  19.362  0.00  0.00    +0.000 A 
ATOM      9  C   UNL     1      11.008  11.787  19.657  0.00  0.00    +0.000 A 
ATOM     10  C   UNL     1      10.177  10.796  19.120  0.00  0.00    +0.000 A 
ATOM     11  C   UNL     1       9.094  11.124  18.301  0.00  0.00    +0.000 A 
BRANCH   6  13
ATOM     12  C   UNL     1       7.101  14.012  17.557  0.00  0.00    +0.000 C 
ATOM     13  O   UNL     1       7.760  12.787  17.228  0.00  0.00    +0.000 OA
ENDBRANCH   6  13
ENDBRANCH   2  11
ENDBRANCH   1   3
BRANCH   1  14
ATOM     14  S   UNL     1       7.311   6.150  17.622  0.00  0.00    +0.000 S 
BRANCH  14  15
ATOM     15  C   UNL     1       5.650   5.864  18.062  0.00  0.00    +0.000 C 
ATOM     16  C   UNL     1       4.697   6.728  17.687  0.00  0.00    +0.000 C 
ATOM     17  C   UNL     1       3.263   6.478  17.945  0.00  0.00    +0.000 C 
ATOM     18  O   UNL     1       2.438   7.378  17.897  0.00  0.00    +0.000 OA
ATOM     19  C   UNL     1       2.871   5.070  18.151  0.00  0.00    +0.000 A 
ATOM     20  C   UNL     1       1.548   4.662  17.943  0.00  0.00    +0.000 A 
ATOM     21  C   UNL     1       1.247   3.297  17.911  0.00  0.00    +0.000 A 
ATOM     22  C   UNL     1       2.257   2.355  18.107  0.00  0.00    +0.000 A 
ATOM     23  C   UNL     1       3.558   2.767  18.407  0.00  0.00    +0.000 A 
ATOM     24  C   UNL     1       3.860   4.131  18.434  0.00  0.00    +0.000 A 
ATOM     25  C   UNL     1       5.234   4.592  18.727  0.00  0.00    +0.000 C 
ATOM     26  O   UNL     1       5.948   3.938  19.473  0.00  0.00    +0.000 OA
ENDBRANCH  14  15
ENDBRANCH   1  14
TORSDOF 5
ENDMDL
MODEL 9
REMARK VINA RESULT:      -6.8      4.131      8.822
REMARK  Name = 
REMARK  6 active torsions:
REMARK  status: ('A' for Active; 'I' for Inactive)
REMARK    1  A    between atoms: C_1  and  O_2
REMARK    2  A    between atoms: O_2  and  C_3
REMARK    3  A    between atoms: C_8  and  N_9
REMARK    4  A    between atoms: C_10  and  C_12
REMARK    5  A    between atoms: C_12  and  S_13
REMARK    6  A    between atoms: S_13  and  C_14
REMARK                            x       y       z     vdW  Elec       q    Type
REMARK                         _______ _______ _______ _____ _____    ______ ____
ROOT
ATOM      1  C   UNL     1       1.759   8.967  18.391  0.00  0.00    +0.000 C 
ENDROOT
BRANCH   1   3
ATOM      2  N   UNL     1       2.547   6.665  17.872  0.00  0.00    +0.000 N 
ATOM      3  C   UNL     1       2.192   7.573  18.855  0.00  0.00    +0.000 C 
ATOM      4  O   UNL     1       2.134   7.310  20.058  0.00  0.00    +0.000 OA
ATOM      5  H   UNL     1       2.760   7.035  16.948  0.00  0.00    +0.000 HD
BRANCH   2  11
ATOM      6  C   UNL     1       4.067   4.828  18.405  0.00  0.00    +0.000 A 
ATOM      7  C   UNL     1       4.331   3.455  18.515  0.00  0.00    +0.000 A 
ATOM      8  C   UNL     1       3.319   2.520  18.305  0.00  0.00    +0.000 A 
ATOM      9  C   UNL     1       2.047   2.948  17.957  0.00  0.00    +0.000 A 
ATOM     10  C   UNL     1       1.783   4.316  17.812  0.00  0.00    +0.000 A 
ATOM     11  C   UNL     1       2.778   5.272  18.032  0.00  0.00    +0.000 A 
BRANCH   6  13
ATOM     12  C   UNL     1       6.314   5.287  18.990  0.00  0.00    +0.000 C 
ATOM     13  O   UNL     1       5.026   5.796  18.640  0.00  0.00    +0.000 OA
ENDBRANCH   6  13
ENDBRANCH   2  11
ENDBRANCH   1   3
BRANCH   1  14
ATOM     14  S   UNL     1       0.829   9.918  19.625  0.00  0.00    +0.000 S 
BRANCH  14  15
ATOM     15  C   UNL     1      -0.521  10.585  18.749  0.00  0.00    +0.000 C 
ATOM     16  C   UNL     1      -0.995   9.956  17.664  0.00  0.00    +0.000 C 
ATOM     17  C   UNL     1      -2.201  10.423  16.949  0.00  0.00    +0.000 C 
ATOM     18  O   UNL     1      -2.449  10.060  15.809  0.00  0.00    +0.000 OA
ATOM     19  C   UNL     1      -3.139  11.259  17.724  0.00  0.00    +0.000 A 
ATOM     20  C   UNL     1      -4.480  11.369  17.337  0.00  0.00    +0.000 A 
ATOM     21  C   UNL     1      -5.400  11.965  18.206  0.00  0.00    +0.000 A 
ATOM     22  C   UNL     1      -4.973  12.462  19.438  0.00  0.00    +0.000 A 
ATOM     23  C   UNL     1      -3.619  12.435  19.781  0.00  0.00    +0.000 A 
ATOM     24  C   UNL     1      -2.701  11.835  18.914  0.00  0.00    +0.000 A 
ATOM     25  C   UNL     1      -1.266  11.773  19.264  0.00  0.00    +0.000 C 
ATOM     26  O   UNL     1      -0.765  12.663  19.936  0.00  0.00    +0.000 OA
ENDBRANCH  14  15
ENDBRANCH   1  14
TORSDOF 5
ENDMDL
