MODEL 1
REMARK VINA RESULT:      -7.8      0.000      0.000
REMARK  Name = 
REMARK  4 active torsions:
REMARK  status: ('A' for Active; 'I' for Inactive)
REMARK    1  A    between atoms: C_2  and  O_3
REMARK    2  A    between atoms: C_2  and  C_12
REMARK    3  A    between atoms: O_3  and  N_4
REMARK    4  A    between atoms: C_16  and  N_17
REMARK                            x       y       z     vdW  Elec       q    Type
REMARK                         _______ _______ _______ _____ _____    ______ ____
ROOT
ATOM      1  O   UNL     1       6.753   5.238  19.997  0.00  0.00    +0.000 OA
ATOM      2  C   UNL     1       6.153   4.648  19.118  0.00  0.00    +0.000 C 
ENDROOT
BRANCH   2   3
ATOM      3  C   UNL     1       5.848   5.178  17.756  0.00  0.00    +0.000 A 
ATOM      4  C   UNL     1       4.924   6.232  17.662  0.00  0.00    +0.000 A 
ATOM      5  C   UNL     1       4.643   6.819  16.428  0.00  0.00    +0.000 A 
ATOM      6  C   UNL     1       5.271   6.358  15.272  0.00  0.00    +0.000 A 
ATOM      7  C   UNL     1       6.198   5.312  15.356  0.00  0.00    +0.000 A 
ATOM      8  C   UNL     1       6.479   4.711  16.590  0.00  0.00    +0.000 A 
BRANCH   7   9
ATOM      9  N   UNL     1       6.884   4.848  14.139  0.00  0.00    +0.000 N 
ATOM     10  O   UNL     1       6.404   3.869  13.547  0.00  0.00    +0.000 OA
ATOM     11  O   UNL     1       7.899   5.458  13.776  0.00  0.00    +0.000 OA
ENDBRANCH   7   9
ENDBRANCH   2   3
BRANCH   2  12
ATOM     12  O   UNL     1       5.626   3.411  19.223  0.00  0.00    +0.000 OA
BRANCH  12  13
ATOM     13  N   UNL     1       4.748   3.257  20.316  0.00  0.00    +0.000 N 
ATOM     14  C   UNL     1       3.560   2.768  19.784  0.00  0.00    +0.000 C 
ATOM     15  N   UNL     1       3.642   1.924  18.804  0.00  0.00    +0.000 NA
ATOM     16  C   UNL     1       2.646   1.981  17.748  0.00  0.00    +0.000 C 
ATOM     17  C   UNL     1       2.625   3.429  17.239  0.00  0.00    +0.000 C 
ATOM     18  C   UNL     1       1.727   4.367  18.054  0.00  0.00    +0.000 C 
ATOM     19  C   UNL     1       1.203   3.802  19.369  0.00  0.00    +0.000 C 
ATOM     20  C   UNL     1       2.258   3.313  20.353  0.00  0.00    +0.000 C 
ATOM     21  H   UNL     1       4.685   4.105  20.864  0.00  0.00    +0.000 HD
ENDBRANCH  12  13
ENDBRANCH   2  12
TORSDOF 4
ENDMDL
MODEL 2
REMARK VINA RESULT:      -7.6      1.695      2.354
REMARK  Name = 
REMARK  4 active torsions:
REMARK  status: ('A' for Active; 'I' for Inactive)
REMARK    1  A    between atoms: C_2  and  O_3
REMARK    2  A    between atoms: C_2  and  C_12
REMARK    3  A    between atoms: O_3  and  N_4
REMARK    4  A    between atoms: C_16  and  N_17
REMARK                            x       y       z     vdW  Elec       q    Type
REMARK                         _______ _______ _______ _____ _____    ______ ____
ROOT
ATOM      1  O   UNL     1       2.838   6.643  17.818  0.00  0.00    +0.000 OA
ATOM      2  C   UNL     1       3.741   6.124  18.450  0.00  0.00    +0.000 C 
ENDROOT
BRANCH   2   3
ATOM      3  C   UNL     1       5.047   5.662  17.895  0.00  0.00    +0.000 A 
ATOM      4  C   UNL     1       6.052   5.306  18.810  0.00  0.00    +0.000 A 
ATOM      5  C   UNL     1       7.273   4.804  18.361  0.00  0.00    +0.000 A 
ATOM      6  C   UNL     1       7.513   4.658  16.996  0.00  0.00    +0.000 A 
ATOM      7  C   UNL     1       6.515   5.005  16.075  0.00  0.00    +0.000 A 
ATOM      8  C   UNL     1       5.290   5.519  16.517  0.00  0.00    +0.000 A 
BRANCH   7   9
ATOM      9  N   UNL     1       6.759   4.821  14.635  0.00  0.00    +0.000 N 
ATOM     10  O   UNL     1       6.007   4.049  14.019  0.00  0.00    +0.000 OA
ATOM     11  O   UNL     1       7.700   5.440  14.121  0.00  0.00    +0.000 OA
ENDBRANCH   7   9
ENDBRANCH   2   3
BRANCH   2  12
ATOM     12  O   UNL     1       3.714   5.846  19.769  0.00  0.00    +0.000 OA
BRANCH  12  13
ATOM     13  N   UNL     1       2.423   5.571  20.267  0.00  0.00    +0.000 N 
ATOM     14  C   UNL     1       2.307   4.186  20.281  0.00  0.00    +0.000 C 
ATOM     15  N   UNL     1       3.359   3.497  20.594  0.00  0.00    +0.000 NA
ATOM     16  C   UNL     1       3.592   2.232  19.920  0.00  0.00    +0.000 C 
ATOM     17  C   UNL     1       3.539   2.518  18.413  0.00  0.00    +0.000 C 
ATOM     18  C   UNL     1       2.125   2.504  17.821  0.00  0.00    +0.000 C 
ATOM     19  C   UNL     1       0.986   2.465  18.834  0.00  0.00    +0.000 C 
ATOM     20  C   UNL     1       0.971   3.587  19.864  0.00  0.00    +0.000 C 
ATOM     21  H   UNL     1       1.712   6.080  19.758  0.00  0.00    +0.000 HD
ENDBRANCH  12  13
ENDBRANCH   2  12
TORSDOF 4
ENDMDL
MODEL 3
REMARK VINA RESULT:      -7.6      1.586      2.094
REMARK  Name = 
REMARK  4 active torsions:
REMARK  status: ('A' for Active; 'I' for Inactive)
REMARK    1  A    between atoms: C_2  and  O_3
REMARK    2  A    between atoms: C_2  and  C_12
REMARK    3  A    between atoms: O_3  and  N_4
REMARK    4  A    between atoms: C_16  and  N_17
REMARK                            x       y       z     vdW  Elec       q    Type
REMARK                         _______ _______ _______ _____ _____    ______ ____
ROOT
ATOM      1  O   UNL     1       4.956   2.697  19.879  0.00  0.00    +0.000 OA
ATOM      2  C   UNL     1       4.848   2.969  18.697  0.00  0.00    +0.000 C 
ENDROOT
BRANCH   2   3
ATOM      3  C   UNL     1       5.601   4.033  17.971  0.00  0.00    +0.000 A 
ATOM      4  C   UNL     1       6.062   5.129  18.720  0.00  0.00    +0.000 A 
ATOM      5  C   UNL     1       6.829   6.126  18.116  0.00  0.00    +0.000 A 
ATOM      6  C   UNL     1       7.139   6.050  16.760  0.00  0.00    +0.000 A 
ATOM      7  C   UNL     1       6.689   4.959  16.005  0.00  0.00    +0.000 A 
ATOM      8  C   UNL     1       5.911   3.958  16.601  0.00  0.00    +0.000 A 
BRANCH   7   9
ATOM      9  N   UNL     1       7.044   4.864  14.580  0.00  0.00    +0.000 N 
ATOM     10  O   UNL     1       6.435   4.032  13.891  0.00  0.00    +0.000 OA
ATOM     11  O   UNL     1       7.930   5.615  14.152  0.00  0.00    +0.000 OA
ENDBRANCH   7   9
ENDBRANCH   2   3
BRANCH   2  12
ATOM     12  O   UNL     1       4.004   2.374  17.830  0.00  0.00    +0.000 OA
BRANCH  12  13
ATOM     13  N   UNL     1       2.906   1.741  18.448  0.00  0.00    +0.000 N 
ATOM     14  C   UNL     1       1.891   2.690  18.485  0.00  0.00    +0.000 C 
ATOM     15  N   UNL     1       1.781   3.494  17.474  0.00  0.00    +0.000 NA
ATOM     16  C   UNL     1       1.387   4.871  17.716  0.00  0.00    +0.000 C 
ATOM     17  C   UNL     1       2.352   5.428  18.772  0.00  0.00    +0.000 C 
ATOM     18  C   UNL     1       1.946   5.121  20.218  0.00  0.00    +0.000 C 
ATOM     19  C   UNL     1       0.813   4.114  20.385  0.00  0.00    +0.000 C 
ATOM     20  C   UNL     1       1.030   2.752  19.740  0.00  0.00    +0.000 C 
ATOM     21  H   UNL     1       3.167   1.321  19.331  0.00  0.00    +0.000 HD
ENDBRANCH  12  13
ENDBRANCH   2  12
TORSDOF 4
ENDMDL
MODEL 4
REMARK VINA RESULT:      -7.6      2.305      2.879
REMARK  Name = 
REMARK  4 active torsions:
REMARK  status: ('A' for Active; 'I' for Inactive)
REMARK    1  A    between atoms: C_2  and  O_3
REMARK    2  A    between atoms: C_2  and  C_12
REMARK    3  A    between atoms: O_3  and  N_4
REMARK    4  A    between atoms: C_16  and  N_17
REMARK                            x       y       z     vdW  Elec       q    Type
REMARK                         _______ _______ _______ _____ _____    ______ ____
ROOT
ATOM      1  O   UNL     1       4.958   2.723  19.799  0.00  0.00    +0.000 OA
ATOM      2  C   UNL     1       4.721   2.866  18.613  0.00  0.00    +0.000 C 
ENDROOT
BRANCH   2   3
ATOM      3  C   UNL     1       5.322   3.898  17.717  0.00  0.00    +0.000 A 
ATOM      4  C   UNL     1       4.959   3.871  16.360  0.00  0.00    +0.000 A 
ATOM      5  C   UNL     1       5.432   4.846  15.481  0.00  0.00    +0.000 A 
ATOM      6  C   UNL     1       6.278   5.854  15.940  0.00  0.00    +0.000 A 
ATOM      7  C   UNL     1       6.641   5.893  17.292  0.00  0.00    +0.000 A 
ATOM      8  C   UNL     1       6.179   4.913  18.179  0.00  0.00    +0.000 A 
BRANCH   7   9
ATOM      9  N   UNL     1       7.509   6.977  17.780  0.00  0.00    +0.000 N 
ATOM     10  O   UNL     1       7.515   8.041  17.142  0.00  0.00    +0.000 OA
ATOM     11  O   UNL     1       8.187   6.766  18.795  0.00  0.00    +0.000 OA
ENDBRANCH   7   9
ENDBRANCH   2   3
BRANCH   2  12
ATOM     12  O   UNL     1       3.847   2.133  17.894  0.00  0.00    +0.000 OA
BRANCH  12  13
ATOM     13  N   UNL     1       2.779   1.613  18.655  0.00  0.00    +0.000 N 
ATOM     14  C   UNL     1       1.795   2.595  18.650  0.00  0.00    +0.000 C 
ATOM     15  N   UNL     1       1.635   3.281  17.562  0.00  0.00    +0.000 NA
ATOM     16  C   UNL     1       1.296   4.690  17.668  0.00  0.00    +0.000 C 
ATOM     17  C   UNL     1       2.349   5.330  18.584  0.00  0.00    +0.000 C 
ATOM     18  C   UNL     1       2.039   5.204  20.079  0.00  0.00    +0.000 C 
ATOM     19  C   UNL     1       0.894   4.263  20.440  0.00  0.00    +0.000 C 
ATOM     20  C   UNL     1       1.028   2.830  19.944  0.00  0.00    +0.000 C 
ATOM     21  H   UNL     1       3.092   1.289  19.561  0.00  0.00    +0.000 HD
ENDBRANCH  12  13
ENDBRANCH   2  12
TORSDOF 4
ENDMDL
MODEL 5
REMARK VINA RESULT:      -7.4      2.490      3.440
REMARK  Name = 
REMARK  4 active torsions:
REMARK  status: ('A' for Active; 'I' for Inactive)
REMARK    1  A    between atoms: C_2  and  O_3
REMARK    2  A    between atoms: C_2  and  C_12
REMARK    3  A    between atoms: O_3  and  N_4
REMARK    4  A    between atoms: C_16  and  N_17
REMARK                            x       y       z     vdW  Elec       q    Type
REMARK                         _______ _______ _______ _____ _____    ______ ____
ROOT
ATOM      1  O   UNL     1       7.461   5.391  16.690  0.00  0.00    +0.000 OA
ATOM      2  C   UNL     1       6.646   4.812  15.996  0.00  0.00    +0.000 C 
ENDROOT
BRANCH   2   3
ATOM      3  C   UNL     1       6.725   4.634  14.516  0.00  0.00    +0.000 A 
ATOM      4  C   UNL     1       7.717   5.352  13.827  0.00  0.00    +0.000 A 
ATOM      5  C   UNL     1       7.888   5.182  12.453  0.00  0.00    +0.000 A 
ATOM      6  C   UNL     1       7.069   4.304  11.746  0.00  0.00    +0.000 A 
ATOM      7  C   UNL     1       6.081   3.579  12.424  0.00  0.00    +0.000 A 
ATOM      8  C   UNL     1       5.896   3.750  13.802  0.00  0.00    +0.000 A 
BRANCH   7   9
ATOM      9  N   UNL     1       5.238   2.628  11.681  0.00  0.00    +0.000 N 
ATOM     10  O   UNL     1       4.096   2.997  11.368  0.00  0.00    +0.000 OA
ATOM     11  O   UNL     1       5.713   1.516  11.415  0.00  0.00    +0.000 OA
ENDBRANCH   7   9
ENDBRANCH   2   3
BRANCH   2  12
ATOM     12  O   UNL     1       5.504   4.245  16.435  0.00  0.00    +0.000 OA
BRANCH  12  13
ATOM     13  N   UNL     1       4.514   5.177  16.811  0.00  0.00    +0.000 N 
ATOM     14  C   UNL     1       3.894   4.642  17.933  0.00  0.00    +0.000 C 
ATOM     15  N   UNL     1       4.634   3.998  18.781  0.00  0.00    +0.000 NA
ATOM     16  C   UNL     1       4.081   2.832  19.448  0.00  0.00    +0.000 C 
ATOM     17  C   UNL     1       3.554   1.902  18.346  0.00  0.00    +0.000 C 
ATOM     18  C   UNL     1       2.133   2.231  17.873  0.00  0.00    +0.000 C 
ATOM     19  C   UNL     1       1.563   3.556  18.368  0.00  0.00    +0.000 C 
ATOM     20  C   UNL     1       2.383   4.798  18.045  0.00  0.00    +0.000 C 
ATOM     21  H   UNL     1       3.915   5.417  16.032  0.00  0.00    +0.000 HD
ENDBRANCH  12  13
ENDBRANCH   2  12
TORSDOF 4
ENDMDL
MODEL 6
REMARK VINA RESULT:      -7.4      1.974      2.955
REMARK  Name = 
REMARK  4 active torsions:
REMARK  status: ('A' for Active; 'I' for Inactive)
REMARK    1  A    between atoms: C_2  and  O_3
REMARK    2  A    between atoms: C_2  and  C_12
REMARK    3  A    between atoms: O_3  and  N_4
REMARK    4  A    between atoms: C_16  and  N_17
REMARK                            x       y       z     vdW  Elec       q    Type
REMARK                         _______ _______ _______ _____ _____    ______ ____
ROOT
ATOM      1  O   UNL     1       3.094   7.940  17.784  0.00  0.00    +0.000 OA
ATOM      2  C   UNL     1       3.339   6.771  18.021  0.00  0.00    +0.000 C 
ENDROOT
BRANCH   2   3
ATOM      3  C   UNL     1       4.646   6.086  17.795  0.00  0.00    +0.000 A 
ATOM      4  C   UNL     1       5.368   5.674  18.927  0.00  0.00    +0.000 A 
ATOM      5  C   UNL     1       6.564   4.970  18.787  0.00  0.00    +0.000 A 
ATOM      6  C   UNL     1       7.061   4.676  17.518  0.00  0.00    +0.000 A 
ATOM      7  C   UNL     1       6.346   5.078  16.382  0.00  0.00    +0.000 A 
ATOM      8  C   UNL     1       5.149   5.793  16.515  0.00  0.00    +0.000 A 
BRANCH   7   9
ATOM      9  N   UNL     1       6.856   4.739  15.045  0.00  0.00    +0.000 N 
ATOM     10  O   UNL     1       6.344   3.770  14.463  0.00  0.00    +0.000 OA
ATOM     11  O   UNL     1       7.768   5.434  14.577  0.00  0.00    +0.000 OA
ENDBRANCH   7   9
ENDBRANCH   2   3
BRANCH   2  12
ATOM     12  O   UNL     1       2.463   5.869  18.509  0.00  0.00    +0.000 OA
BRANCH  12  13
ATOM     13  N   UNL     1       2.068   4.894  17.569  0.00  0.00    +0.000 N 
ATOM     14  C   UNL     1       1.896   3.718  18.291  0.00  0.00    +0.000 C 
ATOM     15  N   UNL     1       1.397   3.811  19.484  0.00  0.00    +0.000 NA
ATOM     16  C   UNL     1       1.885   2.914  20.517  0.00  0.00    +0.000 C 
ATOM     17  C   UNL     1       3.414   3.054  20.537  0.00  0.00    +0.000 C 
ATOM     18  C   UNL     1       4.138   2.173  19.514  0.00  0.00    +0.000 C 
ATOM     19  C   UNL     1       3.248   1.496  18.477  0.00  0.00    +0.000 C 
ATOM     20  C   UNL     1       2.369   2.422  17.646  0.00  0.00    +0.000 C 
ATOM     21  H   UNL     1       2.704   4.856  16.784  0.00  0.00    +0.000 HD
ENDBRANCH  12  13
ENDBRANCH   2  12
TORSDOF 4
ENDMDL
MODEL 7
REMARK VINA RESULT:      -7.3      1.891      2.804
REMARK  Name = 
REMARK  4 active torsions:
REMARK  status: ('A' for Active; 'I' for Inactive)
REMARK    1  A    between atoms: C_2  and  O_3
REMARK    2  A    between atoms: C_2  and  C_12
REMARK    3  A    between atoms: O_3  and  N_4
REMARK    4  A    between atoms: C_16  and  N_17
REMARK                            x       y       z     vdW  Elec       q    Type
REMARK                         _______ _______ _______ _____ _____    ______ ____
ROOT
ATOM      1  O   UNL     1       3.460   7.844  17.484  0.00  0.00    +0.000 OA
ATOM      2  C   UNL     1       3.872   6.797  17.948  0.00  0.00    +0.000 C 
ENDROOT
BRANCH   2   3
ATOM      3  C   UNL     1       5.117   6.084  17.537  0.00  0.00    +0.000 A 
ATOM      4  C   UNL     1       5.947   5.585  18.555  0.00  0.00    +0.000 A 
ATOM      5  C   UNL     1       7.091   4.853  18.241  0.00  0.00    +0.000 A 
ATOM      6  C   UNL     1       7.429   4.615  16.910  0.00  0.00    +0.000 A 
ATOM      7  C   UNL     1       6.606   5.104  15.887  0.00  0.00    +0.000 A 
ATOM      8  C   UNL     1       5.460   5.848  16.194  0.00  0.00    +0.000 A 
BRANCH   7   9
ATOM      9  N   UNL     1       6.949   4.825  14.483  0.00  0.00    +0.000 N 
ATOM     10  O   UNL     1       7.829   5.523  13.957  0.00  0.00    +0.000 OA
ATOM     11  O   UNL     1       6.338   3.915  13.906  0.00  0.00    +0.000 OA
ENDBRANCH   7   9
ENDBRANCH   2   3
BRANCH   2  12
ATOM     12  O   UNL     1       3.260   6.070  18.906  0.00  0.00    +0.000 OA
BRANCH  12  13
ATOM     13  N   UNL     1       2.014   5.541  18.509  0.00  0.00    +0.000 N 
ATOM     14  C   UNL     1       1.908   4.304  19.135  0.00  0.00    +0.000 C 
ATOM     15  N   UNL     1       2.387   4.195  20.335  0.00  0.00    +0.000 NA
ATOM     16  C   UNL     1       3.024   2.948  20.722  0.00  0.00    +0.000 C 
ATOM     17  C   UNL     1       4.096   2.654  19.664  0.00  0.00    +0.000 C 
ATOM     18  C   UNL     1       3.568   1.928  18.421  0.00  0.00    +0.000 C 
ATOM     19  C   UNL     1       2.051   1.837  18.305  0.00  0.00    +0.000 C 
ATOM     20  C   UNL     1       1.298   3.160  18.337  0.00  0.00    +0.000 C 
ATOM     21  H   UNL     1       1.910   5.549  17.502  0.00  0.00    +0.000 HD
ENDBRANCH  12  13
ENDBRANCH   2  12
TORSDOF 4
ENDMDL
MODEL 8
REMARK VINA RESULT:      -7.3      1.780      2.330
REMARK  Name = 
REMARK  4 active torsions:
REMARK  status: ('A' for Active; 'I' for Inactive)
REMARK    1  A    between atoms: C_2  and  O_3
REMARK    2  A    between atoms: C_2  and  C_12
REMARK    3  A    between atoms: O_3  and  N_4
REMARK    4  A    between atoms: C_16  and  N_17
REMARK                            x       y       z     vdW  Elec       q    Type
REMARK                         _______ _______ _______ _____ _____    ______ ____
ROOT
ATOM      1  O   UNL     1       3.565   7.867  17.590  0.00  0.00    +0.000 OA
ATOM      2  C   UNL     1       3.865   6.690  17.685  0.00  0.00    +0.000 C 
ENDROOT
BRANCH   2   3
ATOM      3  C   UNL     1       5.139   6.070  17.215  0.00  0.00    +0.000 A 
ATOM      4  C   UNL     1       6.104   5.756  18.187  0.00  0.00    +0.000 A 
ATOM      5  C   UNL     1       7.289   5.115  17.825  0.00  0.00    +0.000 A 
ATOM      6  C   UNL     1       7.532   4.786  16.493  0.00  0.00    +0.000 A 
ATOM      7  C   UNL     1       6.573   5.089  15.518  0.00  0.00    +0.000 A 
ATOM      8  C   UNL     1       5.385   5.741  15.871  0.00  0.00    +0.000 A 
BRANCH   7   9
ATOM      9  N   UNL     1       6.817   4.712  14.116  0.00  0.00    +0.000 N 
ATOM     10  O   UNL     1       6.235   3.707  13.682  0.00  0.00    +0.000 OA
ATOM     11  O   UNL     1       7.591   5.415  13.452  0.00  0.00    +0.000 OA
ENDBRANCH   7   9
ENDBRANCH   2   3
BRANCH   2  12
ATOM     12  O   UNL     1       3.085   5.722  18.208  0.00  0.00    +0.000 OA
BRANCH  12  13
ATOM     13  N   UNL     1       2.989   5.768  19.615  0.00  0.00    +0.000 N 
ATOM     14  C   UNL     1       2.974   4.443  20.038  0.00  0.00    +0.000 C 
ATOM     15  N   UNL     1       3.717   3.598  19.395  0.00  0.00    +0.000 NA
ATOM     16  C   UNL     1       3.226   2.244  19.200  0.00  0.00    +0.000 C 
ATOM     17  C   UNL     1       1.836   2.367  18.561  0.00  0.00    +0.000 C 
ATOM     18  C   UNL     1       0.698   2.570  19.568  0.00  0.00    +0.000 C 
ATOM     19  C   UNL     1       1.129   2.871  20.999  0.00  0.00    +0.000 C 
ATOM     20  C   UNL     1       2.037   4.081  21.182  0.00  0.00    +0.000 C 
ATOM     21  H   UNL     1       2.217   6.349  19.916  0.00  0.00    +0.000 HD
ENDBRANCH  12  13
ENDBRANCH   2  12
TORSDOF 4
ENDMDL
MODEL 9
REMARK VINA RESULT:      -7.2      2.506      3.216
REMARK  Name = 
REMARK  4 active torsions:
REMARK  status: ('A' for Active; 'I' for Inactive)
REMARK    1  A    between atoms: C_2  and  O_3
REMARK    2  A    between atoms: C_2  and  C_12
REMARK    3  A    between atoms: O_3  and  N_4
REMARK    4  A    between atoms: C_16  and  N_17
REMARK                            x       y       z     vdW  Elec       q    Type
REMARK                         _______ _______ _______ _____ _____    ______ ____
ROOT
ATOM      1  O   UNL     1       7.685   4.470  16.902  0.00  0.00    +0.000 OA
ATOM      2  C   UNL     1       6.722   4.505  16.157  0.00  0.00    +0.000 C 
ENDROOT
BRANCH   2   3
ATOM      3  C   UNL     1       6.766   4.465  14.666  0.00  0.00    +0.000 A 
ATOM      4  C   UNL     1       7.723   5.268  14.023  0.00  0.00    +0.000 A 
ATOM      5  C   UNL     1       7.862   5.229  12.635  0.00  0.00    +0.000 A 
ATOM      6  C   UNL     1       7.047   4.396  11.871  0.00  0.00    +0.000 A 
ATOM      7  C   UNL     1       6.094   3.587  12.503  0.00  0.00    +0.000 A 
ATOM      8  C   UNL     1       5.941   3.628  13.894  0.00  0.00    +0.000 A 
BRANCH   7   9
ATOM      9  N   UNL     1       5.256   2.686  11.696  0.00  0.00    +0.000 N 
ATOM     10  O   UNL     1       5.711   1.562  11.430  0.00  0.00    +0.000 OA
ATOM     11  O   UNL     1       4.149   3.099  11.326  0.00  0.00    +0.000 OA
ENDBRANCH   7   9
ENDBRANCH   2   3
BRANCH   2  12
ATOM     12  O   UNL     1       5.435   4.616  16.544  0.00  0.00    +0.000 OA
BRANCH  12  13
ATOM     13  N   UNL     1       5.258   5.372  17.722  0.00  0.00    +0.000 N 
ATOM     14  C   UNL     1       4.421   4.618  18.536  0.00  0.00    +0.000 C 
ATOM     15  N   UNL     1       4.569   3.330  18.524  0.00  0.00    +0.000 NA
ATOM     16  C   UNL     1       3.390   2.490  18.641  0.00  0.00    +0.000 C 
ATOM     17  C   UNL     1       2.410   2.951  17.553  0.00  0.00    +0.000 C 
ATOM     18  C   UNL     1       1.531   4.138  17.963  0.00  0.00    +0.000 C 
ATOM     19  C   UNL     1       1.925   4.835  19.260  0.00  0.00    +0.000 C 
ATOM     20  C   UNL     1       3.353   5.361  19.328  0.00  0.00    +0.000 C 
ATOM     21  H   UNL     1       4.961   6.317  17.516  0.00  0.00    +0.000 HD
ENDBRANCH  12  13
ENDBRANCH   2  12
TORSDOF 4
ENDMDL
