MODEL 1
REMARK VINA RESULT:      -6.6      0.000      0.000
REMARK  Name = 
REMARK  12 active torsions:
REMARK  status: ('A' for Active; 'I' for Inactive)
REMARK    1  A    between atoms: C_1  and  C_2
REMARK    2  A    between atoms: C_2  and  O_3
REMARK    3  A    between atoms: O_3  and  C_4
REMARK    4  A    between atoms: N_9  and  C_10
REMARK    5  A    between atoms: C_10  and  S_12
REMARK    6  A    between atoms: S_12  and  C_13
REMARK    7  A    between atoms: C_13  and  C_14
REMARK    8  A    between atoms: C_14  and  O_15
REMARK    9  A    between atoms: C_14  and  C_16
REMARK   10  A    between atoms: C_16  and  N_17
REMARK   11  A    between atoms: C_19  and  N_20
REMARK   12  A    between atoms: C_24  and  C_25
REMARK                            x       y       z     vdW  Elec       q    Type
REMARK                         _______ _______ _______ _____ _____    ______ ____
ROOT
ATOM      1  S   UNL     1       1.440   3.943  18.694  0.00  0.00    +0.000 S 
ENDROOT
BRANCH   1   2
ATOM      2  C   UNL     1       1.963   4.935  20.066  0.00  0.00    +0.000 C 
ATOM      3  S   UNL     1       2.375   4.158  21.507  0.00  0.00    +0.000 S 
BRANCH   2   9
ATOM      4  C   UNL     1       1.793  10.312  18.542  0.00  0.00    +0.000 C 
ATOM      5  O   UNL     1       2.267  10.676  17.471  0.00  0.00    +0.000 OA
ATOM      6  N   UNL     1       1.588   8.991  18.875  0.00  0.00    +0.000 N 
ATOM      7  C   UNL     1       2.003   7.949  17.947  0.00  0.00    +0.000 C 
ATOM      8  C   UNL     1       2.820   6.866  18.669  0.00  0.00    +0.000 C 
ATOM      9  N   UNL     1       2.085   6.314  19.833  0.00  0.00    +0.000 N 
ATOM     10  C   UNL     1       1.669   7.379  20.781  0.00  0.00    +0.000 C 
ATOM     11  C   UNL     1       0.905   8.524  20.082  0.00  0.00    +0.000 C 
BRANCH   4  12
ATOM     12  O   UNL     1       1.523  11.159  19.570  0.00  0.00    +0.000 OA
BRANCH  12  14
ATOM     13  C   UNL     1      -0.504  12.341  19.157  0.00  0.00    +0.000 C 
ATOM     14  C   UNL     1       1.008  12.434  19.160  0.00  0.00    +0.000 C 
ENDBRANCH  12  14
ENDBRANCH   4  12
ENDBRANCH   2   9
ENDBRANCH   1   2
BRANCH   1  15
ATOM     15  C   UNL     1       2.837   2.776  18.485  0.00  0.00    +0.000 C 
BRANCH  15  16
ATOM     16  C   UNL     1       4.214   3.466  18.449  0.00  0.00    +0.000 C 
BRANCH  16  17
ATOM     17  O   UNL     1       5.151   2.715  19.232  0.00  0.00    +0.000 OA
ATOM     18  H   UNL     1       4.772   2.557  20.114  0.00  0.00    +0.000 HD
ENDBRANCH  16  17
BRANCH  16  19
ATOM     19  C   UNL     1       4.733   3.601  17.004  0.00  0.00    +0.000 C 
BRANCH  19  20
ATOM     20  N   UNL     1       5.690   4.686  16.817  0.00  0.00    +0.000 N 
ATOM     21  C   UNL     1       6.065   5.582  17.786  0.00  0.00    +0.000 A 
ATOM     22  C   UNL     1       7.053   6.353  17.202  0.00  0.00    +0.000 A 
ATOM     23  N   UNL     1       7.287   5.940  15.909  0.00  0.00    +0.000 NA
ATOM     24  C   UNL     1       6.463   4.934  15.700  0.00  0.00    +0.000 A 
ATOM     25  C   UNL     1       6.381   4.155  14.435  0.00  0.00    +0.000 C 
BRANCH  22  26
ATOM     26  N   UNL     1       7.796   7.436  17.799  0.00  0.00    +0.000 N 
ATOM     27  O   UNL     1       7.723   8.539  17.235  0.00  0.00    +0.000 OA
ATOM     28  O   UNL     1       8.447   7.200  18.829  0.00  0.00    +0.000 OA
ENDBRANCH  22  26
ENDBRANCH  19  20
ENDBRANCH  16  19
ENDBRANCH  15  16
ENDBRANCH   1  15
TORSDOF 10
ENDMDL
MODEL 2
REMARK VINA RESULT:      -6.4      2.104      2.760
REMARK  Name = 
REMARK  12 active torsions:
REMARK  status: ('A' for Active; 'I' for Inactive)
REMARK    1  A    between atoms: C_1  and  C_2
REMARK    2  A    between atoms: C_2  and  O_3
REMARK    3  A    between atoms: O_3  and  C_4
REMARK    4  A    between atoms: N_9  and  C_10
REMARK    5  A    between atoms: C_10  and  S_12
REMARK    6  A    between atoms: S_12  and  C_13
REMARK    7  A    between atoms: C_13  and  C_14
REMARK    8  A    between atoms: C_14  and  O_15
REMARK    9  A    between atoms: C_14  and  C_16
REMARK   10  A    between atoms: C_16  and  N_17
REMARK   11  A    between atoms: C_19  and  N_20
REMARK   12  A    between atoms: C_24  and  C_25
REMARK                            x       y       z     vdW  Elec       q    Type
REMARK                         _______ _______ _______ _____ _____    ______ ____
ROOT
ATOM      1  S   UNL     1       2.305   5.506  19.709  0.00  0.00    +0.000 S 
ENDROOT
BRANCH   1   2
ATOM      2  C   UNL     1       2.388   7.172  19.111  0.00  0.00    +0.000 C 
ATOM      3  S   UNL     1       3.361   7.496  17.771  0.00  0.00    +0.000 S 
BRANCH   2   9
ATOM      4  C   UNL     1      -0.169  11.181  22.054  0.00  0.00    +0.000 C 
ATOM      5  O   UNL     1      -0.382  11.040  23.253  0.00  0.00    +0.000 OA
ATOM      6  N   UNL     1       0.655  10.353  21.323  0.00  0.00    +0.000 N 
ATOM      7  C   UNL     1       1.269   9.204  21.974  0.00  0.00    +0.000 C 
ATOM      8  C   UNL     1       1.072   7.931  21.138  0.00  0.00    +0.000 C 
ATOM      9  N   UNL     1       1.559   8.109  19.748  0.00  0.00    +0.000 N 
ATOM     10  C   UNL     1       0.924   9.277  19.086  0.00  0.00    +0.000 C 
ATOM     11  C   UNL     1       1.039  10.566  19.928  0.00  0.00    +0.000 C 
BRANCH   4  12
ATOM     12  O   UNL     1      -0.807  12.098  21.280  0.00  0.00    +0.000 OA
BRANCH  12  14
ATOM     13  C   UNL     1      -1.546  14.323  20.854  0.00  0.00    +0.000 C 
ATOM     14  C   UNL     1      -0.865  13.412  21.855  0.00  0.00    +0.000 C 
ENDBRANCH  12  14
ENDBRANCH   4  12
ENDBRANCH   2   9
ENDBRANCH   1   2
BRANCH   1  15
ATOM     15  C   UNL     1       2.191   4.529  18.163  0.00  0.00    +0.000 C 
BRANCH  15  16
ATOM     16  C   UNL     1       3.286   3.453  18.033  0.00  0.00    +0.000 C 
BRANCH  16  17
ATOM     17  O   UNL     1       2.683   2.152  18.008  0.00  0.00    +0.000 OA
ATOM     18  H   UNL     1       3.377   1.484  17.868  0.00  0.00    +0.000 HD
ENDBRANCH  16  17
BRANCH  16  19
ATOM     19  C   UNL     1       4.126   3.663  16.758  0.00  0.00    +0.000 C 
BRANCH  19  20
ATOM     20  N   UNL     1       5.398   4.338  16.993  0.00  0.00    +0.000 N 
ATOM     21  C   UNL     1       5.810   4.849  18.197  0.00  0.00    +0.000 A 
ATOM     22  C   UNL     1       7.100   5.296  17.979  0.00  0.00    +0.000 A 
ATOM     23  N   UNL     1       7.477   5.062  16.675  0.00  0.00    +0.000 NA
ATOM     24  C   UNL     1       6.444   4.480  16.102  0.00  0.00    +0.000 A 
ATOM     25  C   UNL     1       6.407   4.022  14.687  0.00  0.00    +0.000 C 
BRANCH  22  26
ATOM     26  N   UNL     1       7.995   5.909  18.930  0.00  0.00    +0.000 N 
ATOM     27  O   UNL     1       8.312   7.089  18.715  0.00  0.00    +0.000 OA
ATOM     28  O   UNL     1       8.380   5.227  19.893  0.00  0.00    +0.000 OA
ENDBRANCH  22  26
ENDBRANCH  19  20
ENDBRANCH  16  19
ENDBRANCH  15  16
ENDBRANCH   1  15
TORSDOF 10
ENDMDL
MODEL 3
REMARK VINA RESULT:      -6.3      2.295      2.788
REMARK  Name = 
REMARK  12 active torsions:
REMARK  status: ('A' for Active; 'I' for Inactive)
REMARK    1  A    between atoms: C_1  and  C_2
REMARK    2  A    between atoms: C_2  and  O_3
REMARK    3  A    between atoms: O_3  and  C_4
REMARK    4  A    between atoms: N_9  and  C_10
REMARK    5  A    between atoms: C_10  and  S_12
REMARK    6  A    between atoms: S_12  and  C_13
REMARK    7  A    between atoms: C_13  and  C_14
REMARK    8  A    between atoms: C_14  and  O_15
REMARK    9  A    between atoms: C_14  and  C_16
REMARK   10  A    between atoms: C_16  and  N_17
REMARK   11  A    between atoms: C_19  and  N_20
REMARK   12  A    between atoms: C_24  and  C_25
REMARK                            x       y       z     vdW  Elec       q    Type
REMARK                         _______ _______ _______ _____ _____    ______ ____
ROOT
ATOM      1  S   UNL     1       3.927   5.199  19.670  0.00  0.00    +0.000 S 
ENDROOT
BRANCH   1   2
ATOM      2  C   UNL     1       2.267   5.743  19.964  0.00  0.00    +0.000 C 
ATOM      3  S   UNL     1       1.091   4.582  20.308  0.00  0.00    +0.000 S 
BRANCH   2   9
ATOM      4  C   UNL     1       0.694  11.091  19.525  0.00  0.00    +0.000 C 
ATOM      5  O   UNL     1       0.848  11.706  18.476  0.00  0.00    +0.000 OA
ATOM      6  N   UNL     1       0.835   9.725  19.636  0.00  0.00    +0.000 N 
ATOM      7  C   UNL     1       1.249   8.954  18.471  0.00  0.00    +0.000 C 
ATOM      8  C   UNL     1       2.400   8.002  18.826  0.00  0.00    +0.000 C 
ATOM      9  N   UNL     1       2.054   7.131  19.976  0.00  0.00    +0.000 N 
ATOM     10  C   UNL     1       1.640   7.920  21.163  0.00  0.00    +0.000 C 
ATOM     11  C   UNL     1       0.531   8.942  20.834  0.00  0.00    +0.000 C 
BRANCH   4  12
ATOM     12  O   UNL     1       0.480  11.693  20.725  0.00  0.00    +0.000 OA
BRANCH  12  14
ATOM     13  C   UNL     1       0.079  14.002  21.155  0.00  0.00    +0.000 C 
ATOM     14  C   UNL     1       1.140  12.958  20.872  0.00  0.00    +0.000 C 
ENDBRANCH  12  14
ENDBRANCH   4  12
ENDBRANCH   2   9
ENDBRANCH   1   2
BRANCH   1  15
ATOM     15  C   UNL     1       3.683   3.530  18.954  0.00  0.00    +0.000 C 
BRANCH  15  16
ATOM     16  C   UNL     1       3.778   3.501  17.416  0.00  0.00    +0.000 C 
BRANCH  16  17
ATOM     17  O   UNL     1       2.499   3.164  16.860  0.00  0.00    +0.000 OA
ATOM     18  H   UNL     1       2.121   3.952  16.433  0.00  0.00    +0.000 HD
ENDBRANCH  16  17
BRANCH  16  19
ATOM     19  C   UNL     1       4.246   4.860  16.860  0.00  0.00    +0.000 C 
BRANCH  19  20
ATOM     20  N   UNL     1       5.446   4.779  16.034  0.00  0.00    +0.000 N 
ATOM     21  C   UNL     1       5.461   4.791  14.662  0.00  0.00    +0.000 A 
ATOM     22  C   UNL     1       6.800   4.801  14.316  0.00  0.00    +0.000 A 
ATOM     23  N   UNL     1       7.590   4.801  15.444  0.00  0.00    +0.000 NA
ATOM     24  C   UNL     1       6.757   4.795  16.465  0.00  0.00    +0.000 A 
ATOM     25  C   UNL     1       7.170   4.814  17.894  0.00  0.00    +0.000 C 
BRANCH  22  26
ATOM     26  N   UNL     1       7.370   4.830  12.991  0.00  0.00    +0.000 N 
ATOM     27  O   UNL     1       8.231   5.696  12.774  0.00  0.00    +0.000 OA
ATOM     28  O   UNL     1       6.971   3.993  12.166  0.00  0.00    +0.000 OA
ENDBRANCH  22  26
ENDBRANCH  19  20
ENDBRANCH  16  19
ENDBRANCH  15  16
ENDBRANCH   1  15
TORSDOF 10
ENDMDL
MODEL 4
REMARK VINA RESULT:      -6.3      2.887      8.444
REMARK  Name = 
REMARK  12 active torsions:
REMARK  status: ('A' for Active; 'I' for Inactive)
REMARK    1  A    between atoms: C_1  and  C_2
REMARK    2  A    between atoms: C_2  and  O_3
REMARK    3  A    between atoms: O_3  and  C_4
REMARK    4  A    between atoms: N_9  and  C_10
REMARK    5  A    between atoms: C_10  and  S_12
REMARK    6  A    between atoms: S_12  and  C_13
REMARK    7  A    between atoms: C_13  and  C_14
REMARK    8  A    between atoms: C_14  and  O_15
REMARK    9  A    between atoms: C_14  and  C_16
REMARK   10  A    between atoms: C_16  and  N_17
REMARK   11  A    between atoms: C_19  and  N_20
REMARK   12  A    between atoms: C_24  and  C_25
REMARK                            x       y       z     vdW  Elec       q    Type
REMARK                         _______ _______ _______ _____ _____    ______ ____
ROOT
ATOM      1  S   UNL     1       1.931   7.266  20.211  0.00  0.00    +0.000 S 
ENDROOT
BRANCH   1   2
ATOM      2  C   UNL     1       2.340   5.580  19.851  0.00  0.00    +0.000 C 
ATOM      3  S   UNL     1       1.425   4.360  20.572  0.00  0.00    +0.000 S 
BRANCH   2   9
ATOM      4  C   UNL     1       6.753   4.195  16.707  0.00  0.00    +0.000 C 
ATOM      5  O   UNL     1       7.864   4.653  16.949  0.00  0.00    +0.000 OA
ATOM      6  N   UNL     1       5.681   4.301  17.566  0.00  0.00    +0.000 N 
ATOM      7  C   UNL     1       5.834   5.044  18.810  0.00  0.00    +0.000 C 
ATOM      8  C   UNL     1       4.681   6.041  18.997  0.00  0.00    +0.000 C 
ATOM      9  N   UNL     1       3.360   5.370  18.908  0.00  0.00    +0.000 N 
ATOM     10  C   UNL     1       3.205   4.619  17.637  0.00  0.00    +0.000 C 
ATOM     11  C   UNL     1       4.382   3.655  17.374  0.00  0.00    +0.000 C 
BRANCH   4  12
ATOM     12  O   UNL     1       6.416   3.632  15.517  0.00  0.00    +0.000 OA
BRANCH  12  14
ATOM     13  C   UNL     1       5.875   3.886  13.211  0.00  0.00    +0.000 C 
ATOM     14  C   UNL     1       6.621   4.488  14.384  0.00  0.00    +0.000 C 
ENDBRANCH  12  14
ENDBRANCH   4  12
ENDBRANCH   2   9
ENDBRANCH   1   2
BRANCH   1  15
ATOM     15  C   UNL     1       2.017   8.062  18.563  0.00  0.00    +0.000 C 
BRANCH  15  16
ATOM     16  C   UNL     1       1.799   9.587  18.604  0.00  0.00    +0.000 C 
BRANCH  16  17
ATOM     17  O   UNL     1       1.782  10.108  17.269  0.00  0.00    +0.000 OA
ATOM     18  H   UNL     1       2.684  10.078  16.904  0.00  0.00    +0.000 HD
ENDBRANCH  16  17
BRANCH  16  19
ATOM     19  C   UNL     1       0.481   9.943  19.320  0.00  0.00    +0.000 C 
BRANCH  19  20
ATOM     20  N   UNL     1      -0.523  10.541  18.447  0.00  0.00    +0.000 N 
ATOM     21  C   UNL     1      -1.389   9.842  17.646  0.00  0.00    +0.000 A 
ATOM     22  C   UNL     1      -2.216  10.799  17.086  0.00  0.00    +0.000 A 
ATOM     23  N   UNL     1      -1.873  12.054  17.535  0.00  0.00    +0.000 NA
ATOM     24  C   UNL     1      -0.859  11.877  18.356  0.00  0.00    +0.000 A 
ATOM     25  C   UNL     1      -0.171  12.967  19.099  0.00  0.00    +0.000 C 
BRANCH  22  26
ATOM     26  N   UNL     1      -3.315  10.592  16.175  0.00  0.00    +0.000 N 
ATOM     27  O   UNL     1      -4.291  11.347  16.300  0.00  0.00    +0.000 OA
ATOM     28  O   UNL     1      -3.211   9.689  15.330  0.00  0.00    +0.000 OA
ENDBRANCH  22  26
ENDBRANCH  19  20
ENDBRANCH  16  19
ENDBRANCH  15  16
ENDBRANCH   1  15
TORSDOF 10
ENDMDL
MODEL 5
REMARK VINA RESULT:      -6.2      2.678      8.355
REMARK  Name = 
REMARK  12 active torsions:
REMARK  status: ('A' for Active; 'I' for Inactive)
REMARK    1  A    between atoms: C_1  and  C_2
REMARK    2  A    between atoms: C_2  and  O_3
REMARK    3  A    between atoms: O_3  and  C_4
REMARK    4  A    between atoms: N_9  and  C_10
REMARK    5  A    between atoms: C_10  and  S_12
REMARK    6  A    between atoms: S_12  and  C_13
REMARK    7  A    between atoms: C_13  and  C_14
REMARK    8  A    between atoms: C_14  and  O_15
REMARK    9  A    between atoms: C_14  and  C_16
REMARK   10  A    between atoms: C_16  and  N_17
REMARK   11  A    between atoms: C_19  and  N_20
REMARK   12  A    between atoms: C_24  and  C_25
REMARK                            x       y       z     vdW  Elec       q    Type
REMARK                         _______ _______ _______ _____ _____    ______ ____
ROOT
ATOM      1  S   UNL     1       2.208   7.176  20.150  0.00  0.00    +0.000 S 
ENDROOT
BRANCH   1   2
ATOM      2  C   UNL     1       2.556   5.496  19.707  0.00  0.00    +0.000 C 
ATOM      3  S   UNL     1       1.730   4.266  20.513  0.00  0.00    +0.000 S 
BRANCH   2   9
ATOM      4  C   UNL     1       6.537   4.171  16.010  0.00  0.00    +0.000 C 
ATOM      5  O   UNL     1       7.666   4.638  16.109  0.00  0.00    +0.000 OA
ATOM      6  N   UNL     1       5.585   4.262  17.001  0.00  0.00    +0.000 N 
ATOM      7  C   UNL     1       5.890   5.000  18.218  0.00  0.00    +0.000 C 
ATOM      8  C   UNL     1       4.762   5.984  18.560  0.00  0.00    +0.000 C 
ATOM      9  N   UNL     1       3.447   5.301  18.639  0.00  0.00    +0.000 N 
ATOM     10  C   UNL     1       3.136   4.555  17.393  0.00  0.00    +0.000 C 
ATOM     11  C   UNL     1       4.277   3.604  16.975  0.00  0.00    +0.000 C 
BRANCH   4  12
ATOM     12  O   UNL     1       6.053   3.610  14.870  0.00  0.00    +0.000 OA
BRANCH  12  14
ATOM     13  C   UNL     1       5.941   3.473  12.494  0.00  0.00    +0.000 C 
ATOM     14  C   UNL     1       6.645   4.123  13.667  0.00  0.00    +0.000 C 
ENDBRANCH  12  14
ENDBRANCH   4  12
ENDBRANCH   2   9
ENDBRANCH   1   2
BRANCH   1  15
ATOM     15  C   UNL     1       1.726   7.923  18.547  0.00  0.00    +0.000 C 
BRANCH  15  16
ATOM     16  C   UNL     1       1.616   9.460  18.593  0.00  0.00    +0.000 C 
BRANCH  16  17
ATOM     17  O   UNL     1       1.926  10.004  17.303  0.00  0.00    +0.000 OA
ATOM     18  H   UNL     1       2.882  10.180  17.255  0.00  0.00    +0.000 HD
ENDBRANCH  16  17
BRANCH  16  19
ATOM     19  C   UNL     1       0.204   9.905  19.021  0.00  0.00    +0.000 C 
BRANCH  19  20
ATOM     20  N   UNL     1       0.193  10.838  20.143  0.00  0.00    +0.000 N 
ATOM     21  C   UNL     1       0.329  12.199  20.038  0.00  0.00    +0.000 A 
ATOM     22  C   UNL     1       0.156  12.680  21.323  0.00  0.00    +0.000 A 
ATOM     23  N   UNL     1      -0.087  11.644  22.197  0.00  0.00    +0.000 NA
ATOM     24  C   UNL     1      -0.067  10.547  21.467  0.00  0.00    +0.000 A 
ATOM     25  C   UNL     1      -0.305   9.176  21.993  0.00  0.00    +0.000 C 
BRANCH  22  26
ATOM     26  N   UNL     1       0.186  14.053  21.764  0.00  0.00    +0.000 N 
ATOM     27  O   UNL     1       1.235  14.443  22.298  0.00  0.00    +0.000 OA
ATOM     28  O   UNL     1      -0.824  14.750  21.575  0.00  0.00    +0.000 OA
ENDBRANCH  22  26
ENDBRANCH  19  20
ENDBRANCH  16  19
ENDBRANCH  15  16
ENDBRANCH   1  15
TORSDOF 10
ENDMDL
MODEL 6
REMARK VINA RESULT:      -6.1      2.805      3.818
REMARK  Name = 
REMARK  12 active torsions:
REMARK  status: ('A' for Active; 'I' for Inactive)
REMARK    1  A    between atoms: C_1  and  C_2
REMARK    2  A    between atoms: C_2  and  O_3
REMARK    3  A    between atoms: O_3  and  C_4
REMARK    4  A    between atoms: N_9  and  C_10
REMARK    5  A    between atoms: C_10  and  S_12
REMARK    6  A    between atoms: S_12  and  C_13
REMARK    7  A    between atoms: C_13  and  C_14
REMARK    8  A    between atoms: C_14  and  O_15
REMARK    9  A    between atoms: C_14  and  C_16
REMARK   10  A    between atoms: C_16  and  N_17
REMARK   11  A    between atoms: C_19  and  N_20
REMARK   12  A    between atoms: C_24  and  C_25
REMARK                            x       y       z     vdW  Elec       q    Type
REMARK                         _______ _______ _______ _____ _____    ______ ____
ROOT
ATOM      1  S   UNL     1       2.234   6.375  20.103  0.00  0.00    +0.000 S 
ENDROOT
BRANCH   1   2
ATOM      2  C   UNL     1       2.011   7.932  19.287  0.00  0.00    +0.000 C 
ATOM      3  S   UNL     1       2.749   8.166  17.788  0.00  0.00    +0.000 S 
BRANCH   2   9
ATOM      4  C   UNL     1      -0.708  11.786  22.291  0.00  0.00    +0.000 C 
ATOM      5  O   UNL     1      -1.072  11.547  23.437  0.00  0.00    +0.000 OA
ATOM      6  N   UNL     1       0.162  10.985  21.584  0.00  0.00    +0.000 N 
ATOM      7  C   UNL     1       0.642   9.749  22.186  0.00  0.00    +0.000 C 
ATOM      8  C   UNL     1       0.492   8.571  21.212  0.00  0.00    +0.000 C 
ATOM      9  N   UNL     1       1.152   8.851  19.912  0.00  0.00    +0.000 N 
ATOM     10  C   UNL     1       0.655  10.108  19.298  0.00  0.00    +0.000 C 
ATOM     11  C   UNL     1       0.722  11.305  20.270  0.00  0.00    +0.000 C 
BRANCH   4  12
ATOM     12  O   UNL     1      -1.207  12.805  21.542  0.00  0.00    +0.000 OA
BRANCH  12  14
ATOM     13  C   UNL     1      -3.570  13.001  21.307  0.00  0.00    +0.000 C 
ATOM     14  C   UNL     1      -2.362  13.440  22.110  0.00  0.00    +0.000 C 
ENDBRANCH  12  14
ENDBRANCH   4  12
ENDBRANCH   2   9
ENDBRANCH   1   2
BRANCH   1  15
ATOM     15  C   UNL     1       3.828   5.786  19.417  0.00  0.00    +0.000 C 
BRANCH  15  16
ATOM     16  C   UNL     1       3.735   4.400  18.750  0.00  0.00    +0.000 C 
BRANCH  16  17
ATOM     17  O   UNL     1       3.202   4.537  17.426  0.00  0.00    +0.000 OA
ATOM     18  H   UNL     1       3.063   5.481  17.235  0.00  0.00    +0.000 HD
ENDBRANCH  16  17
BRANCH  16  19
ATOM     19  C   UNL     1       5.115   3.717  18.689  0.00  0.00    +0.000 C 
BRANCH  19  20
ATOM     20  N   UNL     1       5.982   4.227  17.632  0.00  0.00    +0.000 N 
ATOM     21  C   UNL     1       5.845   3.946  16.296  0.00  0.00    +0.000 A 
ATOM     22  C   UNL     1       6.805   4.716  15.665  0.00  0.00    +0.000 A 
ATOM     23  N   UNL     1       7.512   5.456  16.586  0.00  0.00    +0.000 NA
ATOM     24  C   UNL     1       6.997   5.153  17.760  0.00  0.00    +0.000 A 
ATOM     25  C   UNL     1       7.440   5.738  19.054  0.00  0.00    +0.000 C 
BRANCH  22  26
ATOM     26  N   UNL     1       7.076   4.805  14.250  0.00  0.00    +0.000 N 
ATOM     27  O   UNL     1       7.948   5.614  13.901  0.00  0.00    +0.000 OA
ATOM     28  O   UNL     1       6.433   4.068  13.486  0.00  0.00    +0.000 OA
ENDBRANCH  22  26
ENDBRANCH  19  20
ENDBRANCH  16  19
ENDBRANCH  15  16
ENDBRANCH   1  15
TORSDOF 10
ENDMDL
MODEL 7
REMARK VINA RESULT:      -6.1      2.318      3.475
REMARK  Name = 
REMARK  12 active torsions:
REMARK  status: ('A' for Active; 'I' for Inactive)
REMARK    1  A    between atoms: C_1  and  C_2
REMARK    2  A    between atoms: C_2  and  O_3
REMARK    3  A    between atoms: O_3  and  C_4
REMARK    4  A    between atoms: N_9  and  C_10
REMARK    5  A    between atoms: C_10  and  S_12
REMARK    6  A    between atoms: S_12  and  C_13
REMARK    7  A    between atoms: C_13  and  C_14
REMARK    8  A    between atoms: C_14  and  O_15
REMARK    9  A    between atoms: C_14  and  C_16
REMARK   10  A    between atoms: C_16  and  N_17
REMARK   11  A    between atoms: C_19  and  N_20
REMARK   12  A    between atoms: C_24  and  C_25
REMARK                            x       y       z     vdW  Elec       q    Type
REMARK                         _______ _______ _______ _____ _____    ______ ____
ROOT
ATOM      1  S   UNL     1       2.159   5.644  19.914  0.00  0.00    +0.000 S 
ENDROOT
BRANCH   1   2
ATOM      2  C   UNL     1       2.367   7.247  19.189  0.00  0.00    +0.000 C 
ATOM      3  S   UNL     1       3.418   7.405  17.879  0.00  0.00    +0.000 S 
BRANCH   2   9
ATOM      4  C   UNL     1      -0.094  11.588  21.714  0.00  0.00    +0.000 C 
ATOM      5  O   UNL     1      -0.426  11.523  22.892  0.00  0.00    +0.000 OA
ATOM      6  N   UNL     1       0.719  10.661  21.098  0.00  0.00    +0.000 N 
ATOM      7  C   UNL     1       1.172   9.499  21.850  0.00  0.00    +0.000 C 
ATOM      8  C   UNL     1       0.943   8.207  21.052  0.00  0.00    +0.000 C 
ATOM      9  N   UNL     1       1.567   8.278  19.708  0.00  0.00    +0.000 N 
ATOM     10  C   UNL     1       1.096   9.460  18.941  0.00  0.00    +0.000 C 
ATOM     11  C   UNL     1       1.244  10.775  19.737  0.00  0.00    +0.000 C 
BRANCH   4  12
ATOM     12  O   UNL     1      -0.580  12.515  20.847  0.00  0.00    +0.000 OA
BRANCH  12  14
ATOM     13  C   UNL     1      -2.326  11.873  19.359  0.00  0.00    +0.000 C 
ATOM     14  C   UNL     1      -2.007  12.494  20.704  0.00  0.00    +0.000 C 
ENDBRANCH  12  14
ENDBRANCH   4  12
ENDBRANCH   2   9
ENDBRANCH   1   2
BRANCH   1  15
ATOM     15  C   UNL     1       1.425   4.675  18.542  0.00  0.00    +0.000 C 
BRANCH  15  16
ATOM     16  C   UNL     1       1.535   3.151  18.739  0.00  0.00    +0.000 C 
BRANCH  16  17
ATOM     17  O   UNL     1       0.251   2.545  18.537  0.00  0.00    +0.000 OA
ATOM     18  H   UNL     1      -0.266   2.614  19.359  0.00  0.00    +0.000 HD
ENDBRANCH  16  17
BRANCH  16  19
ATOM     19  C   UNL     1       2.560   2.535  17.767  0.00  0.00    +0.000 C 
BRANCH  19  20
ATOM     20  N   UNL     1       3.882   3.150  17.834  0.00  0.00    +0.000 N 
ATOM     21  C   UNL     1       4.456   3.896  16.837  0.00  0.00    +0.000 A 
ATOM     22  C   UNL     1       5.646   4.356  17.370  0.00  0.00    +0.000 A 
ATOM     23  N   UNL     1       5.800   3.910  18.663  0.00  0.00    +0.000 NA
ATOM     24  C   UNL     1       4.726   3.193  18.925  0.00  0.00    +0.000 A 
ATOM     25  C   UNL     1       4.450   2.527  20.226  0.00  0.00    +0.000 C 
BRANCH  22  26
ATOM     26  N   UNL     1       6.629   5.202  16.737  0.00  0.00    +0.000 N 
ATOM     27  O   UNL     1       6.196   6.134  16.042  0.00  0.00    +0.000 OA
ATOM     28  O   UNL     1       7.829   4.951  16.933  0.00  0.00    +0.000 OA
ENDBRANCH  22  26
ENDBRANCH  19  20
ENDBRANCH  16  19
ENDBRANCH  15  16
ENDBRANCH   1  15
TORSDOF 10
ENDMDL
MODEL 8
REMARK VINA RESULT:      -6.1      3.180      4.492
REMARK  Name = 
REMARK  12 active torsions:
REMARK  status: ('A' for Active; 'I' for Inactive)
REMARK    1  A    between atoms: C_1  and  C_2
REMARK    2  A    between atoms: C_2  and  O_3
REMARK    3  A    between atoms: O_3  and  C_4
REMARK    4  A    between atoms: N_9  and  C_10
REMARK    5  A    between atoms: C_10  and  S_12
REMARK    6  A    between atoms: S_12  and  C_13
REMARK    7  A    between atoms: C_13  and  C_14
REMARK    8  A    between atoms: C_14  and  O_15
REMARK    9  A    between atoms: C_14  and  C_16
REMARK   10  A    between atoms: C_16  and  N_17
REMARK   11  A    between atoms: C_19  and  N_20
REMARK   12  A    between atoms: C_24  and  C_25
REMARK                            x       y       z     vdW  Elec       q    Type
REMARK                         _______ _______ _______ _____ _____    ______ ____
ROOT
ATOM      1  S   UNL     1       5.200   4.366  18.465  0.00  0.00    +0.000 S 
ENDROOT
BRANCH   1   2
ATOM      2  C   UNL     1       3.452   4.210  18.222  0.00  0.00    +0.000 C 
ATOM      3  S   UNL     1       2.858   2.770  17.574  0.00  0.00    +0.000 S 
BRANCH   2   9
ATOM      4  C   UNL     1       0.971   8.643  20.560  0.00  0.00    +0.000 C 
ATOM      5  O   UNL     1       0.499   8.574  21.690  0.00  0.00    +0.000 OA
ATOM      6  N   UNL     1       1.795   7.680  20.019  0.00  0.00    +0.000 N 
ATOM      7  C   UNL     1       2.086   6.477  20.786  0.00  0.00    +0.000 C 
ATOM      8  C   UNL     1       1.877   5.218  19.931  0.00  0.00    +0.000 C 
ATOM      9  N   UNL     1       2.658   5.278  18.671  0.00  0.00    +0.000 N 
ATOM     10  C   UNL     1       2.353   6.502  17.888  0.00  0.00    +0.000 C 
ATOM     11  C   UNL     1       2.483   7.789  18.732  0.00  0.00    +0.000 C 
BRANCH   4  12
ATOM     12  O   UNL     1       0.647   9.616  19.669  0.00  0.00    +0.000 OA
BRANCH  12  14
ATOM     13  C   UNL     1      -1.133  11.181  19.907  0.00  0.00    +0.000 C 
ATOM     14  C   UNL     1       0.305  10.873  20.270  0.00  0.00    +0.000 C 
ENDBRANCH  12  14
ENDBRANCH   4  12
ENDBRANCH   2   9
ENDBRANCH   1   2
BRANCH   1  15
ATOM     15  C   UNL     1       5.605   5.881  17.516  0.00  0.00    +0.000 C 
BRANCH  15  16
ATOM     16  C   UNL     1       5.521   5.690  15.989  0.00  0.00    +0.000 C 
BRANCH  16  17
ATOM     17  O   UNL     1       5.172   6.934  15.366  0.00  0.00    +0.000 OA
ATOM     18  H   UNL     1       5.952   7.516  15.360  0.00  0.00    +0.000 HD
ENDBRANCH  16  17
BRANCH  16  19
ATOM     19  C   UNL     1       6.856   5.177  15.417  0.00  0.00    +0.000 C 
BRANCH  19  20
ATOM     20  N   UNL     1       6.735   4.545  14.107  0.00  0.00    +0.000 N 
ATOM     21  C   UNL     1       5.783   3.618  13.764  0.00  0.00    +0.000 A 
ATOM     22  C   UNL     1       5.982   3.379  12.417  0.00  0.00    +0.000 A 
ATOM     23  N   UNL     1       7.024   4.142  11.940  0.00  0.00    +0.000 NA
ATOM     24  C   UNL     1       7.458   4.840  12.969  0.00  0.00    +0.000 A 
ATOM     25  C   UNL     1       8.570   5.826  12.915  0.00  0.00    +0.000 C 
BRANCH  22  26
ATOM     26  N   UNL     1       5.235   2.492  11.558  0.00  0.00    +0.000 N 
ATOM     27  O   UNL     1       5.768   1.406  11.281  0.00  0.00    +0.000 OA
ATOM     28  O   UNL     1       4.119   2.864  11.163  0.00  0.00    +0.000 OA
ENDBRANCH  22  26
ENDBRANCH  19  20
ENDBRANCH  16  19
ENDBRANCH  15  16
ENDBRANCH   1  15
TORSDOF 10
ENDMDL
MODEL 9
REMARK VINA RESULT:      -5.9      2.506      3.213
REMARK  Name = 
REMARK  12 active torsions:
REMARK  status: ('A' for Active; 'I' for Inactive)
REMARK    1  A    between atoms: C_1  and  C_2
REMARK    2  A    between atoms: C_2  and  O_3
REMARK    3  A    between atoms: O_3  and  C_4
REMARK    4  A    between atoms: N_9  and  C_10
REMARK    5  A    between atoms: C_10  and  S_12
REMARK    6  A    between atoms: S_12  and  C_13
REMARK    7  A    between atoms: C_13  and  C_14
REMARK    8  A    between atoms: C_14  and  O_15
REMARK    9  A    between atoms: C_14  and  C_16
REMARK   10  A    between atoms: C_16  and  N_17
REMARK   11  A    between atoms: C_19  and  N_20
REMARK   12  A    between atoms: C_24  and  C_25
REMARK                            x       y       z     vdW  Elec       q    Type
REMARK                         _______ _______ _______ _____ _____    ______ ____
ROOT
ATOM      1  S   UNL     1       3.553   6.379  18.421  0.00  0.00    +0.000 S 
ENDROOT
BRANCH   1   2
ATOM      2  C   UNL     1       2.292   6.674  19.630  0.00  0.00    +0.000 C 
ATOM      3  S   UNL     1       1.832   5.400  20.636  0.00  0.00    +0.000 S 
BRANCH   2   9
ATOM      4  C   UNL     1      -0.298  11.628  19.529  0.00  0.00    +0.000 C 
ATOM      5  O   UNL     1      -0.280  12.326  18.521  0.00  0.00    +0.000 OA
ATOM      6  N   UNL     1       0.108  10.312  19.554  0.00  0.00    +0.000 N 
ATOM      7  C   UNL     1       0.650   9.710  18.343  0.00  0.00    +0.000 C 
ATOM      8  C   UNL     1       1.969   8.982  18.637  0.00  0.00    +0.000 C 
ATOM      9  N   UNL     1       1.813   7.990  19.729  0.00  0.00    +0.000 N 
ATOM     10  C   UNL     1       1.268   8.609  20.964  0.00  0.00    +0.000 C 
ATOM     11  C   UNL     1      -0.024   9.412  20.700  0.00  0.00    +0.000 C 
BRANCH   4  12
ATOM     12  O   UNL     1      -0.611  12.102  20.764  0.00  0.00    +0.000 OA
BRANCH  12  14
ATOM     13  C   UNL     1       0.650  13.953  21.576  0.00  0.00    +0.000 C 
ATOM     14  C   UNL     1      -0.617  13.534  20.859  0.00  0.00    +0.000 C 
ENDBRANCH  12  14
ENDBRANCH   4  12
ENDBRANCH   2   9
ENDBRANCH   1   2
BRANCH   1  15
ATOM     15  C   UNL     1       4.757   5.346  19.338  0.00  0.00    +0.000 C 
BRANCH  15  16
ATOM     16  C   UNL     1       5.444   4.280  18.463  0.00  0.00    +0.000 C 
BRANCH  16  17
ATOM     17  O   UNL     1       5.350   2.999  19.101  0.00  0.00    +0.000 OA
ATOM     18  H   UNL     1       5.963   2.381  18.665  0.00  0.00    +0.000 HD
ENDBRANCH  16  17
BRANCH  16  19
ATOM     19  C   UNL     1       4.807   4.212  17.062  0.00  0.00    +0.000 C 
BRANCH  19  20
ATOM     20  N   UNL     1       5.750   4.440  15.972  0.00  0.00    +0.000 N 
ATOM     21  C   UNL     1       5.664   3.876  14.724  0.00  0.00    +0.000 A 
ATOM     22  C   UNL     1       6.693   4.446  13.998  0.00  0.00    +0.000 A 
ATOM     23  N   UNL     1       7.392   5.343  14.775  0.00  0.00    +0.000 NA
ATOM     24  C   UNL     1       6.805   5.329  15.954  0.00  0.00    +0.000 A 
ATOM     25  C   UNL     1       7.214   6.168  17.113  0.00  0.00    +0.000 C 
BRANCH  22  26
ATOM     26  N   UNL     1       7.038   4.208  12.618  0.00  0.00    +0.000 N 
ATOM     27  O   UNL     1       6.564   3.189  12.093  0.00  0.00    +0.000 OA
ATOM     28  O   UNL     1       7.771   5.032  12.048  0.00  0.00    +0.000 OA
ENDBRANCH  22  26
ENDBRANCH  19  20
ENDBRANCH  16  19
ENDBRANCH  15  16
ENDBRANCH   1  15
TORSDOF 10
ENDMDL
