MODEL 1
REMARK VINA RESULT:      -7.2      0.000      0.000
REMARK  Name = 
REMARK  8 active torsions:
REMARK  status: ('A' for Active; 'I' for Inactive)
REMARK    1  A    between atoms: C_1  and  O_2
REMARK    2  A    between atoms: O_2  and  C_3
REMARK    3  A    between atoms: C_7  and  S_8
REMARK    4  A    between atoms: S_8  and  N_11
REMARK    5  A    between atoms: N_11  and  C_12
REMARK    6  A    between atoms: C_12  and  C_13
REMARK    7  A    between atoms: C_13  and  C_14
REMARK    8  A    between atoms: C_14  and  N_15
REMARK                            x       y       z     vdW  Elec       q    Type
REMARK                         _______ _______ _______ _____ _____    ______ ____
ROOT
ATOM      1  S   UNL     1       6.992   5.439  18.289  0.00  0.00    +0.000 S 
ATOM      2  O   UNL     1       7.419   5.494  19.669  0.00  0.00    +0.000 OA
ATOM      3  O   UNL     1       7.715   4.638  17.333  0.00  0.00    +0.000 OA
ENDROOT
BRANCH   1   8
ATOM      4  C   UNL     1       2.612   4.096  18.303  0.00  0.00    +0.000 A 
ATOM      5  C   UNL     1       3.373   3.992  17.133  0.00  0.00    +0.000 A 
ATOM      6  C   UNL     1       4.712   4.406  17.105  0.00  0.00    +0.000 A 
ATOM      7 CL   UNL     1       5.520   4.289  15.582  0.00  0.00    +0.000 Cl
ATOM      8  C   UNL     1       5.295   4.924  18.261  0.00  0.00    +0.000 A 
ATOM      9  C   UNL     1       4.539   5.050  19.435  0.00  0.00    +0.000 A 
ATOM     10  C   UNL     1       3.201   4.649  19.448  0.00  0.00    +0.000 A 
ATOM     11 CL   UNL     1       2.311   4.847  20.916  0.00  0.00    +0.000 Cl
BRANCH   4  13
ATOM     12  C   UNL     1       1.031   2.368  18.691  0.00  0.00    +0.000 C 
ATOM     13  O   UNL     1       1.294   3.732  18.380  0.00  0.00    +0.000 OA
ENDBRANCH   4  13
ENDBRANCH   1   8
BRANCH   1  14
ATOM     14  N   UNL     1       6.926   7.010  17.679  0.00  0.00    +0.000 NA
ATOM     15  H   UNL     1       6.059   7.484  17.939  0.00  0.00    +0.000 HD
BRANCH  14  16
ATOM     16  C   UNL     1       8.126   7.842  17.478  0.00  0.00    +0.000 C 
BRANCH  16  17
ATOM     17  C   UNL     1       7.924   9.260  17.987  0.00  0.00    +0.000 C 
BRANCH  17  18
ATOM     18  C   UNL     1       9.086   9.808  18.818  0.00  0.00    +0.000 C 
BRANCH  18  19
ATOM     19  N   UNL     1       9.271  11.250  18.587  0.00  0.00    +0.000 NA
ATOM     20  C   UNL     1      10.499  11.625  17.847  0.00  0.00    +0.000 C 
ATOM     21  C   UNL     1      11.795  11.576  18.674  0.00  0.00    +0.000 C 
ATOM     22  O   UNL     1      11.683  12.347  19.875  0.00  0.00    +0.000 OA
ATOM     23  C   UNL     1      10.557  11.929  20.653  0.00  0.00    +0.000 C 
ATOM     24  C   UNL     1       9.251  12.020  19.847  0.00  0.00    +0.000 C 
ENDBRANCH  18  19
ENDBRANCH  17  18
ENDBRANCH  16  17
ENDBRANCH  14  16
ENDBRANCH   1  14
TORSDOF 7
ENDMDL
MODEL 2
REMARK VINA RESULT:      -7.2      4.390      6.362
REMARK  Name = 
REMARK  8 active torsions:
REMARK  status: ('A' for Active; 'I' for Inactive)
REMARK    1  A    between atoms: C_1  and  O_2
REMARK    2  A    between atoms: O_2  and  C_3
REMARK    3  A    between atoms: C_7  and  S_8
REMARK    4  A    between atoms: S_8  and  N_11
REMARK    5  A    between atoms: N_11  and  C_12
REMARK    6  A    between atoms: C_12  and  C_13
REMARK    7  A    between atoms: C_13  and  C_14
REMARK    8  A    between atoms: C_14  and  N_15
REMARK                            x       y       z     vdW  Elec       q    Type
REMARK                         _______ _______ _______ _____ _____    ______ ____
ROOT
ATOM      1  S   UNL     1       1.668   2.855  18.158  0.00  0.00    +0.000 S 
ATOM      2  O   UNL     1       0.356   2.299  18.400  0.00  0.00    +0.000 OA
ATOM      3  O   UNL     1       2.159   3.009  16.811  0.00  0.00    +0.000 OA
ENDROOT
BRANCH   1   8
ATOM      4  C   UNL     1       1.916   6.979  20.139  0.00  0.00    +0.000 A 
ATOM      5  C   UNL     1       1.659   5.843  20.916  0.00  0.00    +0.000 A 
ATOM      6  C   UNL     1       1.571   4.574  20.328  0.00  0.00    +0.000 A 
ATOM      7 CL   UNL     1       1.181   3.264  21.385  0.00  0.00    +0.000 Cl
ATOM      8  C   UNL     1       1.745   4.441  18.951  0.00  0.00    +0.000 A 
ATOM      9  C   UNL     1       1.986   5.572  18.160  0.00  0.00    +0.000 A 
ATOM     10  C   UNL     1       2.058   6.835  18.752  0.00  0.00    +0.000 A 
ATOM     11 CL   UNL     1       2.335   8.197  17.726  0.00  0.00    +0.000 Cl
BRANCH   4  13
ATOM     12  C   UNL     1       0.759   8.825  21.083  0.00  0.00    +0.000 C 
ATOM     13  O   UNL     1       1.987   8.246  20.656  0.00  0.00    +0.000 OA
ENDBRANCH   4  13
ENDBRANCH   1   8
BRANCH   1  14
ATOM     14  N   UNL     1       2.808   1.948  19.007  0.00  0.00    +0.000 NA
ATOM     15  H   UNL     1       2.440   1.036  19.283  0.00  0.00    +0.000 HD
BRANCH  14  16
ATOM     16  C   UNL     1       4.258   2.054  18.764  0.00  0.00    +0.000 C 
BRANCH  16  17
ATOM     17  C   UNL     1       4.917   3.056  19.699  0.00  0.00    +0.000 C 
BRANCH  17  18
ATOM     18  C   UNL     1       5.208   4.418  19.065  0.00  0.00    +0.000 C 
BRANCH  18  19
ATOM     19  N   UNL     1       5.950   4.269  17.802  0.00  0.00    +0.000 NA
ATOM     20  C   UNL     1       7.332   4.804  17.808  0.00  0.00    +0.000 C 
ATOM     21  C   UNL     1       7.434   6.336  17.704  0.00  0.00    +0.000 C 
ATOM     22  O   UNL     1       6.711   6.838  16.575  0.00  0.00    +0.000 OA
ATOM     23  C   UNL     1       5.345   6.412  16.607  0.00  0.00    +0.000 C 
ATOM     24  C   UNL     1       5.234   4.879  16.663  0.00  0.00    +0.000 C 
ENDBRANCH  18  19
ENDBRANCH  17  18
ENDBRANCH  16  17
ENDBRANCH  14  16
ENDBRANCH   1  14
TORSDOF 7
ENDMDL
MODEL 3
REMARK VINA RESULT:      -7.2      1.458      1.610
REMARK  Name = 
REMARK  8 active torsions:
REMARK  status: ('A' for Active; 'I' for Inactive)
REMARK    1  A    between atoms: C_1  and  O_2
REMARK    2  A    between atoms: O_2  and  C_3
REMARK    3  A    between atoms: C_7  and  S_8
REMARK    4  A    between atoms: S_8  and  N_11
REMARK    5  A    between atoms: N_11  and  C_12
REMARK    6  A    between atoms: C_12  and  C_13
REMARK    7  A    between atoms: C_13  and  C_14
REMARK    8  A    between atoms: C_14  and  N_15
REMARK                            x       y       z     vdW  Elec       q    Type
REMARK                         _______ _______ _______ _____ _____    ______ ____
ROOT
ATOM      1  S   UNL     1       7.183   5.026  16.523  0.00  0.00    +0.000 S 
ATOM      2  O   UNL     1       8.165   4.262  17.258  0.00  0.00    +0.000 OA
ATOM      3  O   UNL     1       6.964   4.775  15.120  0.00  0.00    +0.000 OA
ENDROOT
BRANCH   1   8
ATOM      4  C   UNL     1       3.179   4.520  18.692  0.00  0.00    +0.000 A 
ATOM      5  C   UNL     1       3.331   5.522  17.726  0.00  0.00    +0.000 A 
ATOM      6  C   UNL     1       4.551   5.699  17.057  0.00  0.00    +0.000 A 
ATOM      7 CL   UNL     1       4.629   7.014  15.939  0.00  0.00    +0.000 Cl
ATOM      8  C   UNL     1       5.626   4.863  17.356  0.00  0.00    +0.000 A 
ATOM      9  C   UNL     1       5.492   3.866  18.333  0.00  0.00    +0.000 A 
ATOM     10  C   UNL     1       4.278   3.707  19.004  0.00  0.00    +0.000 A 
ATOM     11 CL   UNL     1       4.176   2.478  20.214  0.00  0.00    +0.000 Cl
BRANCH   4  13
ATOM     12  C   UNL     1       1.106   3.374  18.847  0.00  0.00    +0.000 C 
ATOM     13  O   UNL     1       2.020   4.318  19.393  0.00  0.00    +0.000 OA
ENDBRANCH   4  13
ENDBRANCH   1   8
BRANCH   1  14
ATOM     14  N   UNL     1       7.536   6.667  16.690  0.00  0.00    +0.000 NA
ATOM     15  H   UNL     1       7.055   7.233  15.990  0.00  0.00    +0.000 HD
BRANCH  14  16
ATOM     16  C   UNL     1       7.831   7.293  17.991  0.00  0.00    +0.000 C 
BRANCH  16  17
ATOM     17  C   UNL     1       8.084   8.786  17.857  0.00  0.00    +0.000 C 
BRANCH  17  18
ATOM     18  C   UNL     1       9.008   9.371  18.927  0.00  0.00    +0.000 C 
BRANCH  18  19
ATOM     19  N   UNL     1       8.760  10.811  19.113  0.00  0.00    +0.000 NA
ATOM     20  C   UNL     1       9.084  11.670  17.950  0.00  0.00    +0.000 C 
ATOM     21  C   UNL     1      10.584  11.940  17.743  0.00  0.00    +0.000 C 
ATOM     22  O   UNL     1      11.196  12.458  18.929  0.00  0.00    +0.000 OA
ATOM     23  C   UNL     1      10.977  11.587  20.044  0.00  0.00    +0.000 C 
ATOM     24  C   UNL     1       9.478  11.350  20.287  0.00  0.00    +0.000 C 
ENDBRANCH  18  19
ENDBRANCH  17  18
ENDBRANCH  16  17
ENDBRANCH  14  16
ENDBRANCH   1  14
TORSDOF 7
ENDMDL
MODEL 4
REMARK VINA RESULT:      -7.1      1.211      1.728
REMARK  Name = 
REMARK  8 active torsions:
REMARK  status: ('A' for Active; 'I' for Inactive)
REMARK    1  A    between atoms: C_1  and  O_2
REMARK    2  A    between atoms: O_2  and  C_3
REMARK    3  A    between atoms: C_7  and  S_8
REMARK    4  A    between atoms: S_8  and  N_11
REMARK    5  A    between atoms: N_11  and  C_12
REMARK    6  A    between atoms: C_12  and  C_13
REMARK    7  A    between atoms: C_13  and  C_14
REMARK    8  A    between atoms: C_14  and  N_15
REMARK                            x       y       z     vdW  Elec       q    Type
REMARK                         _______ _______ _______ _____ _____    ______ ____
ROOT
ATOM      1  S   UNL     1       7.167   5.571  16.970  0.00  0.00    +0.000 S 
ATOM      2  O   UNL     1       7.984   4.425  17.302  0.00  0.00    +0.000 OA
ATOM      3  O   UNL     1       7.199   6.131  15.643  0.00  0.00    +0.000 OA
ENDROOT
BRANCH   1   8
ATOM      4  C   UNL     1       2.824   4.571  18.033  0.00  0.00    +0.000 A 
ATOM      5  C   UNL     1       3.503   3.811  17.073  0.00  0.00    +0.000 A 
ATOM      6  C   UNL     1       4.829   4.106  16.727  0.00  0.00    +0.000 A 
ATOM      7 CL   UNL     1       5.530   3.138  15.480  0.00  0.00    +0.000 Cl
ATOM      8  C   UNL     1       5.481   5.169  17.352  0.00  0.00    +0.000 A 
ATOM      9  C   UNL     1       4.807   5.947  18.303  0.00  0.00    +0.000 A 
ATOM     10  C   UNL     1       3.482   5.655  18.630  0.00  0.00    +0.000 A 
ATOM     11 CL   UNL     1       2.693   6.661  19.792  0.00  0.00    +0.000 Cl
BRANCH   4  13
ATOM     12  C   UNL     1       1.119   2.981  18.485  0.00  0.00    +0.000 C 
ATOM     13  O   UNL     1       1.521   4.344  18.391  0.00  0.00    +0.000 OA
ENDBRANCH   4  13
ENDBRANCH   1   8
BRANCH   1  14
ATOM     14  N   UNL     1       7.516   6.818  18.051  0.00  0.00    +0.000 NA
ATOM     15  H   UNL     1       8.066   6.490  18.846  0.00  0.00    +0.000 HD
BRANCH  14  16
ATOM     16  C   UNL     1       7.697   8.217  17.626  0.00  0.00    +0.000 C 
BRANCH  16  17
ATOM     17  C   UNL     1       8.628   8.977  18.558  0.00  0.00    +0.000 C 
BRANCH  17  18
ATOM     18  C   UNL     1       8.900  10.423  18.141  0.00  0.00    +0.000 C 
BRANCH  18  19
ATOM     19  N   UNL     1      10.038  10.986  18.888  0.00  0.00    +0.000 NA
ATOM     20  C   UNL     1       9.687  11.732  20.119  0.00  0.00    +0.000 C 
ATOM     21  C   UNL     1       9.125  13.144  19.883  0.00  0.00    +0.000 C 
ATOM     22  O   UNL     1       9.994  13.927  19.058  0.00  0.00    +0.000 OA
ATOM     23  C   UNL     1      10.264  13.264  17.818  0.00  0.00    +0.000 C 
ATOM     24  C   UNL     1      10.871  11.870  18.046  0.00  0.00    +0.000 C 
ENDBRANCH  18  19
ENDBRANCH  17  18
ENDBRANCH  16  17
ENDBRANCH  14  16
ENDBRANCH   1  14
TORSDOF 7
ENDMDL
MODEL 5
REMARK VINA RESULT:      -7.1      1.579      1.995
REMARK  Name = 
REMARK  8 active torsions:
REMARK  status: ('A' for Active; 'I' for Inactive)
REMARK    1  A    between atoms: C_1  and  O_2
REMARK    2  A    between atoms: O_2  and  C_3
REMARK    3  A    between atoms: C_7  and  S_8
REMARK    4  A    between atoms: S_8  and  N_11
REMARK    5  A    between atoms: N_11  and  C_12
REMARK    6  A    between atoms: C_12  and  C_13
REMARK    7  A    between atoms: C_13  and  C_14
REMARK    8  A    between atoms: C_14  and  N_15
REMARK                            x       y       z     vdW  Elec       q    Type
REMARK                         _______ _______ _______ _____ _____    ______ ____
ROOT
ATOM      1  S   UNL     1       7.284   5.385  17.396  0.00  0.00    +0.000 S 
ATOM      2  O   UNL     1       8.118   4.277  17.805  0.00  0.00    +0.000 OA
ATOM      3  O   UNL     1       7.240   5.796  16.015  0.00  0.00    +0.000 OA
ENDROOT
BRANCH   1   8
ATOM      4  C   UNL     1       3.018   4.416  18.757  0.00  0.00    +0.000 A 
ATOM      5  C   UNL     1       3.248   5.483  17.881  0.00  0.00    +0.000 A 
ATOM      6  C   UNL     1       4.547   5.802  17.460  0.00  0.00    +0.000 A 
ATOM      7 CL   UNL     1       4.703   7.183  16.434  0.00  0.00    +0.000 Cl
ATOM      8  C   UNL     1       5.623   5.042  17.917  0.00  0.00    +0.000 A 
ATOM      9  C   UNL     1       5.408   3.981  18.807  0.00  0.00    +0.000 A 
ATOM     10  C   UNL     1       4.112   3.681  19.233  0.00  0.00    +0.000 A 
ATOM     11 CL   UNL     1       3.908   2.376  20.348  0.00  0.00    +0.000 Cl
BRANCH   4  13
ATOM     12  C   UNL     1       1.335   4.744  20.399  0.00  0.00    +0.000 C 
ATOM     13  O   UNL     1       1.775   4.076  19.221  0.00  0.00    +0.000 OA
ENDBRANCH   4  13
ENDBRANCH   1   8
BRANCH   1  14
ATOM     14  N   UNL     1       7.699   6.741  18.309  0.00  0.00    +0.000 NA
ATOM     15  H   UNL     1       8.319   6.504  19.085  0.00  0.00    +0.000 HD
BRANCH  14  16
ATOM     16  C   UNL     1       7.816   8.091  17.729  0.00  0.00    +0.000 C 
BRANCH  16  17
ATOM     17  C   UNL     1       8.591   9.033  18.637  0.00  0.00    +0.000 C 
BRANCH  17  18
ATOM     18  C   UNL     1       8.904  10.396  18.018  0.00  0.00    +0.000 C 
BRANCH  18  19
ATOM     19  N   UNL     1      10.071  11.019  18.665  0.00  0.00    +0.000 NA
ATOM     20  C   UNL     1       9.813  11.637  19.987  0.00  0.00    +0.000 C 
ATOM     21  C   UNL     1       9.096  12.997  19.937  0.00  0.00    +0.000 C 
ATOM     22  O   UNL     1       9.776  13.921  19.081  0.00  0.00    +0.000 OA
ATOM     23  C   UNL     1       9.945  13.377  17.767  0.00  0.00    +0.000 C 
ATOM     24  C   UNL     1      10.703  12.040  17.805  0.00  0.00    +0.000 C 
ENDBRANCH  18  19
ENDBRANCH  17  18
ENDBRANCH  16  17
ENDBRANCH  14  16
ENDBRANCH   1  14
TORSDOF 7
ENDMDL
MODEL 6
REMARK VINA RESULT:      -7.0      3.719      5.507
REMARK  Name = 
REMARK  8 active torsions:
REMARK  status: ('A' for Active; 'I' for Inactive)
REMARK    1  A    between atoms: C_1  and  O_2
REMARK    2  A    between atoms: O_2  and  C_3
REMARK    3  A    between atoms: C_7  and  S_8
REMARK    4  A    between atoms: S_8  and  N_11
REMARK    5  A    between atoms: N_11  and  C_12
REMARK    6  A    between atoms: C_12  and  C_13
REMARK    7  A    between atoms: C_13  and  C_14
REMARK    8  A    between atoms: C_14  and  N_15
REMARK                            x       y       z     vdW  Elec       q    Type
REMARK                         _______ _______ _______ _____ _____    ______ ____
ROOT
ATOM      1  S   UNL     1       2.875   3.834  18.152  0.00  0.00    +0.000 S 
ATOM      2  O   UNL     1       3.802   3.142  19.019  0.00  0.00    +0.000 OA
ATOM      3  O   UNL     1       1.665   3.186  17.712  0.00  0.00    +0.000 OA
ENDROOT
BRANCH   1   8
ATOM      4  C   UNL     1       1.761   7.813  20.133  0.00  0.00    +0.000 A 
ATOM      5  C   UNL     1       1.600   6.612  20.834  0.00  0.00    +0.000 A 
ATOM      6  C   UNL     1       1.927   5.383  20.243  0.00  0.00    +0.000 A 
ATOM      7 CL   UNL     1       1.616   3.971  21.188  0.00  0.00    +0.000 Cl
ATOM      8  C   UNL     1       2.422   5.358  18.940  0.00  0.00    +0.000 A 
ATOM      9  C   UNL     1       2.573   6.552  18.221  0.00  0.00    +0.000 A 
ATOM     10  C   UNL     1       2.231   7.770  18.813  0.00  0.00    +0.000 A 
ATOM     11 CL   UNL     1       2.415   9.208  17.873  0.00  0.00    +0.000 Cl
BRANCH   4  13
ATOM     12  C   UNL     1       0.045   9.337  20.740  0.00  0.00    +0.000 C 
ATOM     13  O   UNL     1       1.434   9.038  20.651  0.00  0.00    +0.000 OA
ENDBRANCH   4  13
ENDBRANCH   1   8
BRANCH   1  14
ATOM     14  N   UNL     1       3.701   4.347  16.774  0.00  0.00    +0.000 NA
ATOM     15  H   UNL     1       3.917   5.344  16.808  0.00  0.00    +0.000 HD
BRANCH  14  16
ATOM     16  C   UNL     1       4.618   3.474  16.020  0.00  0.00    +0.000 C 
BRANCH  16  17
ATOM     17  C   UNL     1       5.848   4.226  15.537  0.00  0.00    +0.000 C 
BRANCH  17  18
ATOM     18  C   UNL     1       6.824   4.622  16.647  0.00  0.00    +0.000 C 
BRANCH  18  19
ATOM     19  N   UNL     1       6.215   5.595  17.569  0.00  0.00    +0.000 NA
ATOM     20  C   UNL     1       6.381   7.020  17.195  0.00  0.00    +0.000 C 
ATOM     21  C   UNL     1       7.776   7.604  17.476  0.00  0.00    +0.000 C 
ATOM     22  O   UNL     1       8.170   7.399  18.837  0.00  0.00    +0.000 OA
ATOM     23  C   UNL     1       8.111   6.012  19.186  0.00  0.00    +0.000 C 
ATOM     24  C   UNL     1       6.706   5.431  18.952  0.00  0.00    +0.000 C 
ENDBRANCH  18  19
ENDBRANCH  17  18
ENDBRANCH  16  17
ENDBRANCH  14  16
ENDBRANCH   1  14
TORSDOF 7
ENDMDL
MODEL 7
REMARK VINA RESULT:      -6.7      1.936      2.488
REMARK  Name = 
REMARK  8 active torsions:
REMARK  status: ('A' for Active; 'I' for Inactive)
REMARK    1  A    between atoms: C_1  and  O_2
REMARK    2  A    between atoms: O_2  and  C_3
REMARK    3  A    between atoms: C_7  and  S_8
REMARK    4  A    between atoms: S_8  and  N_11
REMARK    5  A    between atoms: N_11  and  C_12
REMARK    6  A    between atoms: C_12  and  C_13
REMARK    7  A    between atoms: C_13  and  C_14
REMARK    8  A    between atoms: C_14  and  N_15
REMARK                            x       y       z     vdW  Elec       q    Type
REMARK                         _______ _______ _______ _____ _____    ______ ____
ROOT
ATOM      1  S   UNL     1       6.633   5.586  16.217  0.00  0.00    +0.000 S 
ATOM      2  O   UNL     1       7.372   4.391  15.874  0.00  0.00    +0.000 OA
ATOM      3  O   UNL     1       5.941   6.334  15.198  0.00  0.00    +0.000 OA
ENDROOT
BRANCH   1   8
ATOM      4  C   UNL     1       3.533   4.521  19.418  0.00  0.00    +0.000 A 
ATOM      5  C   UNL     1       4.874   4.708  19.776  0.00  0.00    +0.000 A 
ATOM      6  C   UNL     1       5.839   5.025  18.810  0.00  0.00    +0.000 A 
ATOM      7 CL   UNL     1       7.468   5.161  19.370  0.00  0.00    +0.000 Cl
ATOM      8  C   UNL     1       5.458   5.161  17.476  0.00  0.00    +0.000 A 
ATOM      9  C   UNL     1       4.122   4.960  17.102  0.00  0.00    +0.000 A 
ATOM     10  C   UNL     1       3.170   4.629  18.069  0.00  0.00    +0.000 A 
ATOM     11 CL   UNL     1       1.542   4.371  17.548  0.00  0.00    +0.000 Cl
BRANCH   4  13
ATOM     12  C   UNL     1       2.780   3.012  21.089  0.00  0.00    +0.000 C 
ATOM     13  O   UNL     1       2.553   4.185  20.314  0.00  0.00    +0.000 OA
ENDBRANCH   4  13
ENDBRANCH   1   8
BRANCH   1  14
ATOM     14  N   UNL     1       7.670   6.656  17.007  0.00  0.00    +0.000 NA
ATOM     15  H   UNL     1       8.650   6.460  16.801  0.00  0.00    +0.000 HD
BRANCH  14  16
ATOM     16  C   UNL     1       7.301   8.051  17.310  0.00  0.00    +0.000 C 
BRANCH  16  17
ATOM     17  C   UNL     1       8.283   8.700  18.272  0.00  0.00    +0.000 C 
BRANCH  17  18
ATOM     18  C   UNL     1       8.484  10.201  18.055  0.00  0.00    +0.000 C 
BRANCH  18  19
ATOM     19  N   UNL     1       9.758  10.657  18.637  0.00  0.00    +0.000 NA
ATOM     20  C   UNL     1       9.657  11.294  19.971  0.00  0.00    +0.000 C 
ATOM     21  C   UNL     1       9.128  12.738  19.961  0.00  0.00    +0.000 C 
ATOM     22  O   UNL     1       9.880  13.569  19.069  0.00  0.00    +0.000 OA
ATOM     23  C   UNL     1       9.902  13.017  17.748  0.00  0.00    +0.000 C 
ATOM     24  C   UNL     1      10.474  11.590  17.744  0.00  0.00    +0.000 C 
ENDBRANCH  18  19
ENDBRANCH  17  18
ENDBRANCH  16  17
ENDBRANCH  14  16
ENDBRANCH   1  14
TORSDOF 7
ENDMDL
MODEL 8
REMARK VINA RESULT:      -6.7      4.941      7.144
REMARK  Name = 
REMARK  8 active torsions:
REMARK  status: ('A' for Active; 'I' for Inactive)
REMARK    1  A    between atoms: C_1  and  O_2
REMARK    2  A    between atoms: O_2  and  C_3
REMARK    3  A    between atoms: C_7  and  S_8
REMARK    4  A    between atoms: S_8  and  N_11
REMARK    5  A    between atoms: N_11  and  C_12
REMARK    6  A    between atoms: C_12  and  C_13
REMARK    7  A    between atoms: C_13  and  C_14
REMARK    8  A    between atoms: C_14  and  N_15
REMARK                            x       y       z     vdW  Elec       q    Type
REMARK                         _______ _______ _______ _____ _____    ______ ____
ROOT
ATOM      1  S   UNL     1       2.741   5.222  19.327  0.00  0.00    +0.000 S 
ATOM      2  O   UNL     1       1.512   5.144  18.570  0.00  0.00    +0.000 OA
ATOM      3  O   UNL     1       2.965   4.342  20.447  0.00  0.00    +0.000 OA
ENDROOT
BRANCH   1   8
ATOM      4  C   UNL     1       6.247   4.798  16.409  0.00  0.00    +0.000 A 
ATOM      5  C   UNL     1       5.256   3.811  16.462  0.00  0.00    +0.000 A 
ATOM      6  C   UNL     1       4.180   3.917  17.354  0.00  0.00    +0.000 A 
ATOM      7 CL   UNL     1       3.064   2.599  17.370  0.00  0.00    +0.000 Cl
ATOM      8  C   UNL     1       4.094   5.024  18.197  0.00  0.00    +0.000 A 
ATOM      9  C   UNL     1       5.088   6.012  18.165  0.00  0.00    +0.000 A 
ATOM     10  C   UNL     1       6.164   5.890  17.284  0.00  0.00    +0.000 A 
ATOM     11 CL   UNL     1       7.372   7.126  17.303  0.00  0.00    +0.000 Cl
BRANCH   4  13
ATOM     12  C   UNL     1       7.063   4.792  14.179  0.00  0.00    +0.000 C 
ATOM     13  O   UNL     1       7.332   4.733  15.576  0.00  0.00    +0.000 OA
ENDBRANCH   4  13
ENDBRANCH   1   8
BRANCH   1  14
ATOM     14  N   UNL     1       2.935   6.802  19.884  0.00  0.00    +0.000 NA
ATOM     15  H   UNL     1       3.914   7.091  19.876  0.00  0.00    +0.000 HD
BRANCH  14  16
ATOM     16  C   UNL     1       1.912   7.847  19.700  0.00  0.00    +0.000 C 
BRANCH  16  17
ATOM     17  C   UNL     1       2.130   8.633  18.417  0.00  0.00    +0.000 C 
BRANCH  17  18
ATOM     18  C   UNL     1       0.955   9.526  18.013  0.00  0.00    +0.000 C 
BRANCH  18  19
ATOM     19  N   UNL     1       0.380  10.210  19.184  0.00  0.00    +0.000 NA
ATOM     20  C   UNL     1      -1.067  10.515  19.097  0.00  0.00    +0.000 C 
ATOM     21  C   UNL     1      -1.424  11.715  18.203  0.00  0.00    +0.000 C 
ATOM     22  O   UNL     1      -0.689  12.887  18.575  0.00  0.00    +0.000 OA
ATOM     23  C   UNL     1       0.720  12.636  18.566  0.00  0.00    +0.000 C 
ATOM     24  C   UNL     1       1.090  11.467  19.495  0.00  0.00    +0.000 C 
ENDBRANCH  18  19
ENDBRANCH  17  18
ENDBRANCH  16  17
ENDBRANCH  14  16
ENDBRANCH   1  14
TORSDOF 7
ENDMDL
MODEL 9
REMARK VINA RESULT:      -6.7      1.819      2.263
REMARK  Name = 
REMARK  8 active torsions:
REMARK  status: ('A' for Active; 'I' for Inactive)
REMARK    1  A    between atoms: C_1  and  O_2
REMARK    2  A    between atoms: O_2  and  C_3
REMARK    3  A    between atoms: C_7  and  S_8
REMARK    4  A    between atoms: S_8  and  N_11
REMARK    5  A    between atoms: N_11  and  C_12
REMARK    6  A    between atoms: C_12  and  C_13
REMARK    7  A    between atoms: C_13  and  C_14
REMARK    8  A    between atoms: C_14  and  N_15
REMARK                            x       y       z     vdW  Elec       q    Type
REMARK                         _______ _______ _______ _____ _____    ______ ____
ROOT
ATOM      1  S   UNL     1       6.404   5.712  16.900  0.00  0.00    +0.000 S 
ATOM      2  O   UNL     1       7.401   4.670  16.794  0.00  0.00    +0.000 OA
ATOM      3  O   UNL     1       6.123   6.570  15.777  0.00  0.00    +0.000 OA
ENDROOT
BRANCH   1   8
ATOM      4  C   UNL     1       2.493   3.696  18.177  0.00  0.00    +0.000 A 
ATOM      5  C   UNL     1       2.539   5.083  17.993  0.00  0.00    +0.000 A 
ATOM      6  C   UNL     1       3.728   5.720  17.611  0.00  0.00    +0.000 A 
ATOM      7 CL   UNL     1       3.669   7.442  17.485  0.00  0.00    +0.000 Cl
ATOM      8  C   UNL     1       4.880   4.960  17.408  0.00  0.00    +0.000 A 
ATOM      9  C   UNL     1       4.851   3.573  17.605  0.00  0.00    +0.000 A 
ATOM     10  C   UNL     1       3.666   2.949  18.000  0.00  0.00    +0.000 A 
ATOM     11 CL   UNL     1       3.694   1.239  18.249  0.00  0.00    +0.000 Cl
BRANCH   4  13
ATOM     12  C   UNL     1       0.861   3.346  19.865  0.00  0.00    +0.000 C 
ATOM     13  O   UNL     1       1.367   3.024  18.574  0.00  0.00    +0.000 OA
ENDBRANCH   4  13
ENDBRANCH   1   8
BRANCH   1  14
ATOM     14  N   UNL     1       6.795   6.705  18.206  0.00  0.00    +0.000 NA
ATOM     15  H   UNL     1       6.330   6.407  19.064  0.00  0.00    +0.000 HD
BRANCH  14  16
ATOM     16  C   UNL     1       8.097   7.383  18.334  0.00  0.00    +0.000 C 
BRANCH  16  17
ATOM     17  C   UNL     1       8.165   8.645  17.489  0.00  0.00    +0.000 C 
BRANCH  17  18
ATOM     18  C   UNL     1       8.170   9.947  18.293  0.00  0.00    +0.000 C 
BRANCH  18  19
ATOM     19  N   UNL     1       9.524  10.268  18.776  0.00  0.00    +0.000 NA
ATOM     20  C   UNL     1       9.601  10.781  20.164  0.00  0.00    +0.000 C 
ATOM     21  C   UNL     1       9.175  12.249  20.337  0.00  0.00    +0.000 C 
ATOM     22  O   UNL     1       9.889  13.114  19.447  0.00  0.00    +0.000 OA
ATOM     23  C   UNL     1       9.742  12.689  18.087  0.00  0.00    +0.000 C 
ATOM     24  C   UNL     1      10.211  11.237  17.898  0.00  0.00    +0.000 C 
ENDBRANCH  18  19
ENDBRANCH  17  18
ENDBRANCH  16  17
ENDBRANCH  14  16
ENDBRANCH   1  14
TORSDOF 7
ENDMDL
