MODEL 1
REMARK VINA RESULT:      -7.4      0.000      0.000
REMARK  Name = 
REMARK  4 active torsions:
REMARK  status: ('A' for Active; 'I' for Inactive)
REMARK    1  A    between atoms: C_1  and  C_2
REMARK    2  A    between atoms: C_5  and  N_6
REMARK    3  A    between atoms: N_6  and  C_7
REMARK    4  A    between atoms: N_6  and  C_8
REMARK                            x       y       z     vdW  Elec       q    Type
REMARK                         _______ _______ _______ _____ _____    ______ ____
ROOT
ATOM      1  C   UNL     1       5.158   4.278  17.815  0.00  0.00    +0.000 A 
ATOM      2  N   UNL     1       5.993   4.548  18.861  0.00  0.00    +0.000 NA
ATOM      3  C   UNL     1       7.296   4.796  18.632  0.00  0.00    +0.000 A 
ATOM      4  N   UNL     1       7.935   4.844  17.455  0.00  0.00    +0.000 NA
ATOM      5  C   UNL     1       7.089   4.618  16.441  0.00  0.00    +0.000 A 
ATOM      6  N   UNL     1       7.458   4.639  15.123  0.00  0.00    +0.000 N 
ATOM      7  C   UNL     1       6.369   4.406  14.329  0.00  0.00    +0.000 A 
ATOM      8  C   UNL     1       5.284   4.229  15.165  0.00  0.00    +0.000 A 
ATOM      9  C   UNL     1       5.731   4.340  16.518  0.00  0.00    +0.000 A 
ATOM     10  H   UNL     1       8.400   4.823  14.809  0.00  0.00    +0.000 HD
ENDROOT
BRANCH   1  11
ATOM     11  N   UNL     1       3.828   3.992  18.095  0.00  0.00    +0.000 N 
ATOM     12  C   UNL     1       3.386   2.638  17.800  0.00  0.00    +0.000 C 
BRANCH  11  17
ATOM     13  C   UNL     1       1.136   8.597  20.325  0.00  0.00    +0.000 C 
ATOM     14  C   UNL     1       2.150   7.524  19.934  0.00  0.00    +0.000 C 
ATOM     15  C   UNL     1       1.727   6.147  20.468  0.00  0.00    +0.000 C 
ATOM     16  C   UNL     1       2.719   5.055  20.060  0.00  0.00    +0.000 C 
ATOM     17  C   UNL     1       2.892   5.026  18.533  0.00  0.00    +0.000 C 
ATOM     18  C   UNL     1       3.322   6.397  17.995  0.00  0.00    +0.000 C 
ATOM     19  C   UNL     1       2.336   7.487  18.411  0.00  0.00    +0.000 C 
ENDBRANCH  11  17
ENDBRANCH   1  11
TORSDOF 2
ENDMDL
MODEL 2
REMARK VINA RESULT:      -7.3      1.376      2.630
REMARK  Name = 
REMARK  4 active torsions:
REMARK  status: ('A' for Active; 'I' for Inactive)
REMARK    1  A    between atoms: C_1  and  C_2
REMARK    2  A    between atoms: C_5  and  N_6
REMARK    3  A    between atoms: N_6  and  C_7
REMARK    4  A    between atoms: N_6  and  C_8
REMARK                            x       y       z     vdW  Elec       q    Type
REMARK                         _______ _______ _______ _____ _____    ______ ____
ROOT
ATOM      1  C   UNL     1       5.242   5.568  17.721  0.00  0.00    +0.000 A 
ATOM      2  N   UNL     1       6.148   5.615  18.741  0.00  0.00    +0.000 NA
ATOM      3  C   UNL     1       7.426   5.254  18.520  0.00  0.00    +0.000 A 
ATOM      4  N   UNL     1       7.985   4.851  17.370  0.00  0.00    +0.000 NA
ATOM      5  C   UNL     1       7.088   4.853  16.375  0.00  0.00    +0.000 A 
ATOM      6  N   UNL     1       7.386   4.519  15.081  0.00  0.00    +0.000 N 
ATOM      7  C   UNL     1       6.274   4.650  14.297  0.00  0.00    +0.000 A 
ATOM      8  C   UNL     1       5.244   5.074  15.114  0.00  0.00    +0.000 A 
ATOM      9  C   UNL     1       5.743   5.188  16.449  0.00  0.00    +0.000 A 
ATOM     10  H   UNL     1       8.306   4.239  14.774  0.00  0.00    +0.000 HD
ENDROOT
BRANCH   1  11
ATOM     11  N   UNL     1       3.926   5.914  17.998  0.00  0.00    +0.000 N 
ATOM     12  C   UNL     1       3.525   7.263  17.630  0.00  0.00    +0.000 C 
BRANCH  11  17
ATOM     13  C   UNL     1       1.257   2.474  21.802  0.00  0.00    +0.000 C 
ATOM     14  C   UNL     1       2.250   3.365  21.059  0.00  0.00    +0.000 C 
ATOM     15  C   UNL     1       2.663   2.732  19.722  0.00  0.00    +0.000 C 
ATOM     16  C   UNL     1       3.637   3.627  18.952  0.00  0.00    +0.000 C 
ATOM     17  C   UNL     1       3.032   5.023  18.737  0.00  0.00    +0.000 C 
ATOM     18  C   UNL     1       2.624   5.664  20.070  0.00  0.00    +0.000 C 
ATOM     19  C   UNL     1       1.660   4.766  20.842  0.00  0.00    +0.000 C 
ENDBRANCH  11  17
ENDBRANCH   1  11
TORSDOF 2
ENDMDL
MODEL 3
REMARK VINA RESULT:      -7.2      1.549      3.380
REMARK  Name = 
REMARK  4 active torsions:
REMARK  status: ('A' for Active; 'I' for Inactive)
REMARK    1  A    between atoms: C_1  and  C_2
REMARK    2  A    between atoms: C_5  and  N_6
REMARK    3  A    between atoms: N_6  and  C_7
REMARK    4  A    between atoms: N_6  and  C_8
REMARK                            x       y       z     vdW  Elec       q    Type
REMARK                         _______ _______ _______ _____ _____    ______ ____
ROOT
ATOM      1  C   UNL     1       4.947   5.502  17.164  0.00  0.00    +0.000 A 
ATOM      2  N   UNL     1       5.018   5.104  15.859  0.00  0.00    +0.000 NA
ATOM      3  C   UNL     1       6.183   4.652  15.359  0.00  0.00    +0.000 A 
ATOM      4  N   UNL     1       7.353   4.500  15.994  0.00  0.00    +0.000 NA
ATOM      5  C   UNL     1       7.250   4.856  17.281  0.00  0.00    +0.000 A 
ATOM      6  N   UNL     1       8.279   4.775  18.179  0.00  0.00    +0.000 N 
ATOM      7  C   UNL     1       7.855   5.176  19.415  0.00  0.00    +0.000 A 
ATOM      8  C   UNL     1       6.524   5.525  19.298  0.00  0.00    +0.000 A 
ATOM      9  C   UNL     1       6.127   5.347  17.936  0.00  0.00    +0.000 A 
ATOM     10  H   UNL     1       9.203   4.443  17.942  0.00  0.00    +0.000 HD
ENDROOT
BRANCH   1  11
ATOM     11  N   UNL     1       3.737   5.996  17.633  0.00  0.00    +0.000 N 
ATOM     12  C   UNL     1       3.461   7.396  17.350  0.00  0.00    +0.000 C 
BRANCH  11  17
ATOM     13  C   UNL     1       1.265   2.629  21.630  0.00  0.00    +0.000 C 
ATOM     14  C   UNL     1       2.243   3.413  20.758  0.00  0.00    +0.000 C 
ATOM     15  C   UNL     1       2.220   2.901  19.310  0.00  0.00    +0.000 C 
ATOM     16  C   UNL     1       3.177   3.696  18.417  0.00  0.00    +0.000 C 
ATOM     17  C   UNL     1       2.851   5.196  18.477  0.00  0.00    +0.000 C 
ATOM     18  C   UNL     1       2.879   5.714  19.921  0.00  0.00    +0.000 C 
ATOM     19  C   UNL     1       1.932   4.915  20.813  0.00  0.00    +0.000 C 
ENDBRANCH  11  17
ENDBRANCH   1  11
TORSDOF 2
ENDMDL
MODEL 4
REMARK VINA RESULT:      -7.2      1.757      2.836
REMARK  Name = 
REMARK  4 active torsions:
REMARK  status: ('A' for Active; 'I' for Inactive)
REMARK    1  A    between atoms: C_1  and  C_2
REMARK    2  A    between atoms: C_5  and  N_6
REMARK    3  A    between atoms: N_6  and  C_7
REMARK    4  A    between atoms: N_6  and  C_8
REMARK                            x       y       z     vdW  Elec       q    Type
REMARK                         _______ _______ _______ _____ _____    ______ ____
ROOT
ATOM      1  C   UNL     1       5.060   6.345  17.342  0.00  0.00    +0.000 A 
ATOM      2  N   UNL     1       5.948   7.274  17.801  0.00  0.00    +0.000 NA
ATOM      3  C   UNL     1       7.226   7.248  17.377  0.00  0.00    +0.000 A 
ATOM      4  N   UNL     1       7.789   6.408  16.498  0.00  0.00    +0.000 NA
ATOM      5  C   UNL     1       6.890   5.532  16.028  0.00  0.00    +0.000 A 
ATOM      6  N   UNL     1       7.176   4.577  15.091  0.00  0.00    +0.000 N 
ATOM      7  C   UNL     1       6.049   3.863  14.792  0.00  0.00    +0.000 A 
ATOM      8  C   UNL     1       5.023   4.376  15.563  0.00  0.00    +0.000 A 
ATOM      9  C   UNL     1       5.549   5.429  16.374  0.00  0.00    +0.000 A 
ATOM     10  H   UNL     1       8.090   4.453  14.680  0.00  0.00    +0.000 HD
ENDROOT
BRANCH   1  11
ATOM     11  N   UNL     1       3.761   6.383  17.829  0.00  0.00    +0.000 N 
ATOM     12  C   UNL     1       3.065   7.655  17.707  0.00  0.00    +0.000 C 
BRANCH  11  17
ATOM     13  C   UNL     1       1.763   2.550  21.669  0.00  0.00    +0.000 C 
ATOM     14  C   UNL     1       2.433   3.733  20.974  0.00  0.00    +0.000 C 
ATOM     15  C   UNL     1       3.555   3.257  20.038  0.00  0.00    +0.000 C 
ATOM     16  C   UNL     1       4.218   4.430  19.312  0.00  0.00    +0.000 C 
ATOM     17  C   UNL     1       3.171   5.252  18.546  0.00  0.00    +0.000 C 
ATOM     18  C   UNL     1       2.052   5.736  19.477  0.00  0.00    +0.000 C 
ATOM     19  C   UNL     1       1.397   4.566  20.207  0.00  0.00    +0.000 C 
ENDBRANCH  11  17
ENDBRANCH   1  11
TORSDOF 2
ENDMDL
MODEL 5
REMARK VINA RESULT:      -7.2      1.818      2.778
REMARK  Name = 
REMARK  4 active torsions:
REMARK  status: ('A' for Active; 'I' for Inactive)
REMARK    1  A    between atoms: C_1  and  C_2
REMARK    2  A    between atoms: C_5  and  N_6
REMARK    3  A    between atoms: N_6  and  C_7
REMARK    4  A    between atoms: N_6  and  C_8
REMARK                            x       y       z     vdW  Elec       q    Type
REMARK                         _______ _______ _______ _____ _____    ______ ____
ROOT
ATOM      1  C   UNL     1       5.108   6.509  17.297  0.00  0.00    +0.000 A 
ATOM      2  N   UNL     1       5.961   7.456  17.786  0.00  0.00    +0.000 NA
ATOM      3  C   UNL     1       7.235   7.499  17.353  0.00  0.00    +0.000 A 
ATOM      4  N   UNL     1       7.825   6.718  16.437  0.00  0.00    +0.000 NA
ATOM      5  C   UNL     1       6.959   5.825  15.940  0.00  0.00    +0.000 A 
ATOM      6  N   UNL     1       7.275   4.920  14.963  0.00  0.00    +0.000 N 
ATOM      7  C   UNL     1       6.176   4.173  14.645  0.00  0.00    +0.000 A 
ATOM      8  C   UNL     1       5.137   4.611  15.442  0.00  0.00    +0.000 A 
ATOM      9  C   UNL     1       5.626   5.653  16.291  0.00  0.00    +0.000 A 
ATOM     10  H   UNL     1       8.190   4.850  14.541  0.00  0.00    +0.000 HD
ENDROOT
BRANCH   1  11
ATOM     11  N   UNL     1       3.813   6.474  17.795  0.00  0.00    +0.000 N 
ATOM     12  C   UNL     1       2.986   7.639  17.519  0.00  0.00    +0.000 C 
BRANCH  11  17
ATOM     13  C   UNL     1       0.857   2.696  21.021  0.00  0.00    +0.000 C 
ATOM     14  C   UNL     1       1.292   3.872  20.150  0.00  0.00    +0.000 C 
ATOM     15  C   UNL     1       2.335   4.736  20.875  0.00  0.00    +0.000 C 
ATOM     16  C   UNL     1       2.803   5.904  20.003  0.00  0.00    +0.000 C 
ATOM     17  C   UNL     1       3.347   5.392  18.661  0.00  0.00    +0.000 C 
ATOM     18  C   UNL     1       2.307   4.534  17.929  0.00  0.00    +0.000 C 
ATOM     19  C   UNL     1       1.835   3.375  18.803  0.00  0.00    +0.000 C 
ENDBRANCH  11  17
ENDBRANCH   1  11
TORSDOF 2
ENDMDL
MODEL 6
REMARK VINA RESULT:      -7.2      1.475      2.669
REMARK  Name = 
REMARK  4 active torsions:
REMARK  status: ('A' for Active; 'I' for Inactive)
REMARK    1  A    between atoms: C_1  and  C_2
REMARK    2  A    between atoms: C_5  and  N_6
REMARK    3  A    between atoms: N_6  and  C_7
REMARK    4  A    between atoms: N_6  and  C_8
REMARK                            x       y       z     vdW  Elec       q    Type
REMARK                         _______ _______ _______ _____ _____    ______ ____
ROOT
ATOM      1  C   UNL     1       5.473   5.348  17.788  0.00  0.00    +0.000 A 
ATOM      2  N   UNL     1       6.559   5.345  18.615  0.00  0.00    +0.000 NA
ATOM      3  C   UNL     1       7.749   4.912  18.157  0.00  0.00    +0.000 A 
ATOM      4  N   UNL     1       8.054   4.478  16.926  0.00  0.00    +0.000 NA
ATOM      5  C   UNL     1       6.985   4.529  16.121  0.00  0.00    +0.000 A 
ATOM      6  N   UNL     1       7.010   4.177  14.799  0.00  0.00    +0.000 N 
ATOM      7  C   UNL     1       5.777   4.370  14.240  0.00  0.00    +0.000 A 
ATOM      8  C   UNL     1       4.948   4.852  15.234  0.00  0.00    +0.000 A 
ATOM      9  C   UNL     1       5.699   4.940  16.448  0.00  0.00    +0.000 A 
ATOM     10  H   UNL     1       7.838   3.847  14.325  0.00  0.00    +0.000 HD
ENDROOT
BRANCH   1  11
ATOM     11  N   UNL     1       4.255   5.768  18.307  0.00  0.00    +0.000 N 
ATOM     12  C   UNL     1       3.716   7.004  17.762  0.00  0.00    +0.000 C 
BRANCH  11  17
ATOM     13  C   UNL     1       1.109   2.461  21.856  0.00  0.00    +0.000 C 
ATOM     14  C   UNL     1       1.708   3.178  20.648  0.00  0.00    +0.000 C 
ATOM     15  C   UNL     1       1.506   4.697  20.754  0.00  0.00    +0.000 C 
ATOM     16  C   UNL     1       2.127   5.432  19.563  0.00  0.00    +0.000 C 
ATOM     17  C   UNL     1       3.617   5.082  19.430  0.00  0.00    +0.000 C 
ATOM     18  C   UNL     1       3.825   3.566  19.316  0.00  0.00    +0.000 C 
ATOM     19  C   UNL     1       3.197   2.833  20.499  0.00  0.00    +0.000 C 
ENDBRANCH  11  17
ENDBRANCH   1  11
TORSDOF 2
ENDMDL
MODEL 7
REMARK VINA RESULT:      -7.1      0.890      2.180
REMARK  Name = 
REMARK  4 active torsions:
REMARK  status: ('A' for Active; 'I' for Inactive)
REMARK    1  A    between atoms: C_1  and  C_2
REMARK    2  A    between atoms: C_5  and  N_6
REMARK    3  A    between atoms: N_6  and  C_7
REMARK    4  A    between atoms: N_6  and  C_8
REMARK                            x       y       z     vdW  Elec       q    Type
REMARK                         _______ _______ _______ _____ _____    ______ ____
ROOT
ATOM      1  C   UNL     1       4.867   4.241  17.313  0.00  0.00    +0.000 A 
ATOM      2  N   UNL     1       5.063   3.928  15.998  0.00  0.00    +0.000 NA
ATOM      3  C   UNL     1       6.231   4.233  15.404  0.00  0.00    +0.000 A 
ATOM      4  N   UNL     1       7.311   4.812  15.948  0.00  0.00    +0.000 NA
ATOM      5  C   UNL     1       7.112   5.071  17.247  0.00  0.00    +0.000 A 
ATOM      6  N   UNL     1       8.056   5.631  18.065  0.00  0.00    +0.000 N 
ATOM      7  C   UNL     1       7.568   5.737  19.337  0.00  0.00    +0.000 A 
ATOM      8  C   UNL     1       6.281   5.237  19.326  0.00  0.00    +0.000 A 
ATOM      9  C   UNL     1       5.966   4.826  17.993  0.00  0.00    +0.000 A 
ATOM     10  H   UNL     1       8.978   5.897  17.753  0.00  0.00    +0.000 HD
ENDROOT
BRANCH   1  11
ATOM     11  N   UNL     1       3.635   3.944  17.880  0.00  0.00    +0.000 N 
ATOM     12  C   UNL     1       3.203   2.557  17.789  0.00  0.00    +0.000 C 
BRANCH  11  17
ATOM     13  C   UNL     1       1.234   8.525  20.463  0.00  0.00    +0.000 C 
ATOM     14  C   UNL     1       2.187   7.441  19.965  0.00  0.00    +0.000 C 
ATOM     15  C   UNL     1       1.754   6.056  20.468  0.00  0.00    +0.000 C 
ATOM     16  C   UNL     1       2.685   4.954  19.953  0.00  0.00    +0.000 C 
ATOM     17  C   UNL     1       2.761   4.985  18.419  0.00  0.00    +0.000 C 
ATOM     18  C   UNL     1       3.199   6.364  17.911  0.00  0.00    +0.000 C 
ATOM     19  C   UNL     1       2.276   7.463  18.433  0.00  0.00    +0.000 C 
ENDBRANCH  11  17
ENDBRANCH   1  11
TORSDOF 2
ENDMDL
MODEL 8
REMARK VINA RESULT:      -7.0      2.524      5.255
REMARK  Name = 
REMARK  4 active torsions:
REMARK  status: ('A' for Active; 'I' for Inactive)
REMARK    1  A    between atoms: C_1  and  C_2
REMARK    2  A    between atoms: C_5  and  N_6
REMARK    3  A    between atoms: N_6  and  C_7
REMARK    4  A    between atoms: N_6  and  C_8
REMARK                            x       y       z     vdW  Elec       q    Type
REMARK                         _______ _______ _______ _____ _____    ______ ____
ROOT
ATOM      1  C   UNL     1       4.308   3.540  19.234  0.00  0.00    +0.000 A 
ATOM      2  N   UNL     1       5.078   2.575  19.816  0.00  0.00    +0.000 NA
ATOM      3  C   UNL     1       4.611   1.896  20.880  0.00  0.00    +0.000 A 
ATOM      4  N   UNL     1       3.417   2.014  21.478  0.00  0.00    +0.000 NA
ATOM      5  C   UNL     1       2.663   2.935  20.865  0.00  0.00    +0.000 A 
ATOM      6  N   UNL     1       1.383   3.243  21.239  0.00  0.00    +0.000 N 
ATOM      7  C   UNL     1       0.867   4.193  20.403  0.00  0.00    +0.000 A 
ATOM      8  C   UNL     1       1.845   4.498  19.477  0.00  0.00    +0.000 A 
ATOM      9  C   UNL     1       3.007   3.718  19.771  0.00  0.00    +0.000 A 
ATOM     10  H   UNL     1       0.906   2.802  22.012  0.00  0.00    +0.000 HD
ENDROOT
BRANCH   1  11
ATOM     11  N   UNL     1       4.839   4.243  18.161  0.00  0.00    +0.000 N 
ATOM     12  C   UNL     1       4.708   3.618  16.854  0.00  0.00    +0.000 C 
BRANCH  11  17
ATOM     13  C   UNL     1       8.341   8.829  17.796  0.00  0.00    +0.000 C 
ATOM     14  C   UNL     1       7.604   7.511  17.569  0.00  0.00    +0.000 C 
ATOM     15  C   UNL     1       7.863   6.531  18.723  0.00  0.00    +0.000 C 
ATOM     16  C   UNL     1       7.108   5.214  18.524  0.00  0.00    +0.000 C 
ATOM     17  C   UNL     1       5.604   5.476  18.348  0.00  0.00    +0.000 C 
ATOM     18  C   UNL     1       5.339   6.449  17.192  0.00  0.00    +0.000 C 
ATOM     19  C   UNL     1       6.100   7.758  17.388  0.00  0.00    +0.000 C 
ENDBRANCH  11  17
ENDBRANCH   1  11
TORSDOF 2
ENDMDL
MODEL 9
REMARK VINA RESULT:      -7.0      1.211      1.996
REMARK  Name = 
REMARK  4 active torsions:
REMARK  status: ('A' for Active; 'I' for Inactive)
REMARK    1  A    between atoms: C_1  and  C_2
REMARK    2  A    between atoms: C_5  and  N_6
REMARK    3  A    between atoms: N_6  and  C_7
REMARK    4  A    between atoms: N_6  and  C_8
REMARK                            x       y       z     vdW  Elec       q    Type
REMARK                         _______ _______ _______ _____ _____    ______ ____
ROOT
ATOM      1  C   UNL     1       4.885   5.492  18.275  0.00  0.00    +0.000 A 
ATOM      2  N   UNL     1       5.594   5.442  19.441  0.00  0.00    +0.000 NA
ATOM      3  C   UNL     1       6.901   5.121  19.416  0.00  0.00    +0.000 A 
ATOM      4  N   UNL     1       7.667   4.849  18.351  0.00  0.00    +0.000 NA
ATOM      5  C   UNL     1       6.962   4.946  17.216  0.00  0.00    +0.000 A 
ATOM      6  N   UNL     1       7.494   4.755  15.970  0.00  0.00    +0.000 N 
ATOM      7  C   UNL     1       6.535   4.956  15.016  0.00  0.00    +0.000 A 
ATOM      8  C   UNL     1       5.364   5.279  15.674  0.00  0.00    +0.000 A 
ATOM      9  C   UNL     1       5.614   5.256  17.082  0.00  0.00    +0.000 A 
ATOM     10  H   UNL     1       8.462   4.520  15.806  0.00  0.00    +0.000 HD
ENDROOT
BRANCH   1  11
ATOM     11  N   UNL     1       3.531   5.792  18.345  0.00  0.00    +0.000 N 
ATOM     12  C   UNL     1       2.620   4.774  17.844  0.00  0.00    +0.000 C 
BRANCH  11  17
ATOM     13  C   UNL     1       0.520  10.506  19.807  0.00  0.00    +0.000 C 
ATOM     14  C   UNL     1       0.965   9.133  19.309  0.00  0.00    +0.000 C 
ATOM     15  C   UNL     1       1.927   9.267  18.119  0.00  0.00    +0.000 C 
ATOM     16  C   UNL     1       2.405   7.898  17.625  0.00  0.00    +0.000 C 
ATOM     17  C   UNL     1       3.052   7.107  18.772  0.00  0.00    +0.000 C 
ATOM     18  C   UNL     1       2.093   6.964  19.961  0.00  0.00    +0.000 C 
ATOM     19  C   UNL     1       1.610   8.329  20.446  0.00  0.00    +0.000 C 
ENDBRANCH  11  17
ENDBRANCH   1  11
TORSDOF 2
ENDMDL
