MODEL 1
REMARK VINA RESULT:      -8.7      0.000      0.000
REMARK  Name = 
REMARK  4 active torsions:
REMARK  status: ('A' for Active; 'I' for Inactive)
REMARK    1  A    between atoms: C_1  and  C_2
REMARK    2  A    between atoms: C_5  and  C_6
REMARK    3  A    between atoms: C_9  and  C_10
REMARK    4  A    between atoms: C_15  and  C_16
REMARK                            x       y       z     vdW  Elec       q    Type
REMARK                         _______ _______ _______ _____ _____    ______ ____
ROOT
ATOM      1  C   UNL     1       1.663   7.900  20.174  0.00  0.00    +0.000 A 
ATOM      2  C   UNL     1       1.685   8.678  18.890  0.00  0.00    +0.000 A 
ATOM      3  C   UNL     1       1.060   9.857  18.921  0.00  0.00    +0.000 A 
ATOM      4  N   UNL     1       0.476  10.289  20.104  0.00  0.00    +0.000 N 
ATOM      5  C   UNL     1      -0.190  11.451  20.378  0.00  0.00    +0.000 A 
ATOM      6  C   UNL     1      -0.499  11.383  21.719  0.00  0.00    +0.000 A 
ATOM      7  N   UNL     1      -0.058  10.194  22.257  0.00  0.00    +0.000 NA
ATOM      8  C   UNL     1       0.522   9.530  21.272  0.00  0.00    +0.000 A 
ATOM      9  N   UNL     1       1.113   8.296  21.291  0.00  0.00    +0.000 NA
ENDROOT
BRANCH   1  18
ATOM     10  C   UNL     1       5.891   4.868  18.279  0.00  0.00    +0.000 C 
ATOM     11  C   UNL     1       4.792   4.256  19.099  0.00  0.00    +0.000 A 
ATOM     12  N   UNL     1       4.842   2.983  19.385  0.00  0.00    +0.000 NA
ATOM     13  C   UNL     1       3.827   2.448  20.153  0.00  0.00    +0.000 A 
ATOM     14  C   UNL     1       2.798   3.156  20.659  0.00  0.00    +0.000 A 
ATOM     15  C   UNL     1       1.722   2.529  21.485  0.00  0.00    +0.000 C 
ATOM     16  N   UNL     1       2.751   4.522  20.373  0.00  0.00    +0.000 N 
ATOM     17  N   UNL     1       1.879   5.490  20.751  0.00  0.00    +0.000 NA
ATOM     18  C   UNL     1       2.325   6.583  20.092  0.00  0.00    +0.000 A 
ATOM     19  N   UNL     1       3.474   6.354  19.357  0.00  0.00    +0.000 NA
ATOM     20  C   UNL     1       3.716   5.086  19.573  0.00  0.00    +0.000 A 
ENDBRANCH   1  18
BRANCH   6  21
ATOM     21  C   UNL     1      -1.198  12.406  22.483  0.00  0.00    +0.000 A 
ATOM     22  C   UNL     1      -2.442  12.116  23.060  0.00  0.00    +0.000 A 
ATOM     23  C   UNL     1      -3.146  13.092  23.774  0.00  0.00    +0.000 A 
ATOM     24  C   UNL     1      -2.605  14.366  23.917  0.00  0.00    +0.000 A 
ATOM     25 BR   UNL     1      -3.573  15.698  24.845  0.00  0.00    +0.000 Br
ATOM     26  C   UNL     1      -1.362  14.670  23.366  0.00  0.00    +0.000 A 
ATOM     27  C   UNL     1      -0.659  13.690  22.652  0.00  0.00    +0.000 A 
ENDBRANCH   6  21
TORSDOF 2
ENDMDL
MODEL 2
REMARK VINA RESULT:      -8.6      0.549      1.924
REMARK  Name = 
REMARK  4 active torsions:
REMARK  status: ('A' for Active; 'I' for Inactive)
REMARK    1  A    between atoms: C_1  and  C_2
REMARK    2  A    between atoms: C_5  and  C_6
REMARK    3  A    between atoms: C_9  and  C_10
REMARK    4  A    between atoms: C_15  and  C_16
REMARK                            x       y       z     vdW  Elec       q    Type
REMARK                         _______ _______ _______ _____ _____    ______ ____
ROOT
ATOM      1  C   UNL     1       1.628   7.949  20.159  0.00  0.00    +0.000 A 
ATOM      2  C   UNL     1       1.698   8.756  18.894  0.00  0.00    +0.000 A 
ATOM      3  C   UNL     1       1.104   9.949  18.939  0.00  0.00    +0.000 A 
ATOM      4  N   UNL     1       0.505  10.370  20.119  0.00  0.00    +0.000 N 
ATOM      5  C   UNL     1      -0.137  11.543  20.405  0.00  0.00    +0.000 A 
ATOM      6  C   UNL     1      -0.477  11.453  21.737  0.00  0.00    +0.000 A 
ATOM      7  N   UNL     1      -0.078  10.240  22.257  0.00  0.00    +0.000 NA
ATOM      8  C   UNL     1       0.505   9.583  21.269  0.00  0.00    +0.000 A 
ATOM      9  N   UNL     1       1.064   8.334  21.272  0.00  0.00    +0.000 NA
ENDROOT
BRANCH   1  18
ATOM     10  C   UNL     1       1.578   2.602  21.595  0.00  0.00    +0.000 C 
ATOM     11  C   UNL     1       2.653   3.167  20.714  0.00  0.00    +0.000 A 
ATOM     12  N   UNL     1       3.591   2.377  20.264  0.00  0.00    +0.000 NA
ATOM     13  C   UNL     1       4.560   2.919  19.443  0.00  0.00    +0.000 A 
ATOM     14  C   UNL     1       4.592   4.207  19.045  0.00  0.00    +0.000 A 
ATOM     15  C   UNL     1       5.665   4.746  18.156  0.00  0.00    +0.000 C 
ATOM     16  N   UNL     1       3.580   5.050  19.508  0.00  0.00    +0.000 N 
ATOM     17  N   UNL     1       3.324   6.362  19.269  0.00  0.00    +0.000 NA
ATOM     18  C   UNL     1       2.258   6.618  20.061  0.00  0.00    +0.000 A 
ATOM     19  N   UNL     1       1.800   5.508  20.747  0.00  0.00    +0.000 NA
ATOM     20  C   UNL     1       2.622   4.563  20.365  0.00  0.00    +0.000 A 
ENDBRANCH   1  18
BRANCH   6  21
ATOM     21  C   UNL     1      -1.165  12.476  22.510  0.00  0.00    +0.000 A 
ATOM     22  C   UNL     1      -2.416  12.196  23.077  0.00  0.00    +0.000 A 
ATOM     23  C   UNL     1      -3.110  13.173  23.799  0.00  0.00    +0.000 A 
ATOM     24  C   UNL     1      -2.552  14.438  23.960  0.00  0.00    +0.000 A 
ATOM     25 BR   UNL     1      -3.507  15.773  24.899  0.00  0.00    +0.000 Br
ATOM     26  C   UNL     1      -1.302  14.731  23.418  0.00  0.00    +0.000 A 
ATOM     27  C   UNL     1      -0.609  13.751  22.696  0.00  0.00    +0.000 A 
ENDBRANCH   6  21
TORSDOF 2
ENDMDL
MODEL 3
REMARK VINA RESULT:      -8.4      0.650      1.134
REMARK  Name = 
REMARK  4 active torsions:
REMARK  status: ('A' for Active; 'I' for Inactive)
REMARK    1  A    between atoms: C_1  and  C_2
REMARK    2  A    between atoms: C_5  and  C_6
REMARK    3  A    between atoms: C_9  and  C_10
REMARK    4  A    between atoms: C_15  and  C_16
REMARK                            x       y       z     vdW  Elec       q    Type
REMARK                         _______ _______ _______ _____ _____    ______ ____
ROOT
ATOM      1  C   UNL     1       1.705   7.964  19.755  0.00  0.00    +0.000 A 
ATOM      2  C   UNL     1       1.841   8.856  18.554  0.00  0.00    +0.000 A 
ATOM      3  C   UNL     1       1.280  10.061  18.666  0.00  0.00    +0.000 A 
ATOM      4  N   UNL     1       0.655  10.415  19.854  0.00  0.00    +0.000 N 
ATOM      5  C   UNL     1       0.038  11.585  20.204  0.00  0.00    +0.000 A 
ATOM      6  C   UNL     1      -0.349  11.411  21.514  0.00  0.00    +0.000 A 
ATOM      7  N   UNL     1      -0.003  10.153  21.958  0.00  0.00    +0.000 NA
ATOM      8  C   UNL     1       0.594   9.550  20.944  0.00  0.00    +0.000 A 
ATOM      9  N   UNL     1       1.116   8.287  20.875  0.00  0.00    +0.000 NA
ENDROOT
BRANCH   1  18
ATOM     10  C   UNL     1       4.893   4.583  16.744  0.00  0.00    +0.000 C 
ATOM     11  C   UNL     1       4.211   4.111  17.994  0.00  0.00    +0.000 A 
ATOM     12  N   UNL     1       4.383   2.878  18.390  0.00  0.00    +0.000 NA
ATOM     13  C   UNL     1       3.756   2.472  19.551  0.00  0.00    +0.000 A 
ATOM     14  C   UNL     1       2.997   3.270  20.328  0.00  0.00    +0.000 A 
ATOM     15  C   UNL     1       2.338   2.783  21.577  0.00  0.00    +0.000 C 
ATOM     16  N   UNL     1       2.826   4.595  19.920  0.00  0.00    +0.000 N 
ATOM     17  N   UNL     1       2.159   5.631  20.489  0.00  0.00    +0.000 NA
ATOM     18  C   UNL     1       2.299   6.624  19.581  0.00  0.00    +0.000 A 
ATOM     19  N   UNL     1       3.072   6.270  18.490  0.00  0.00    +0.000 NA
ATOM     20  C   UNL     1       3.394   5.028  18.746  0.00  0.00    +0.000 A 
ENDBRANCH   1  18
BRANCH   6  21
ATOM     21  C   UNL     1      -1.033  12.398  22.336  0.00  0.00    +0.000 A 
ATOM     22  C   UNL     1      -0.451  13.658  22.539  0.00  0.00    +0.000 A 
ATOM     23  C   UNL     1      -1.075  14.613  23.349  0.00  0.00    +0.000 A 
ATOM     24  C   UNL     1      -2.289  14.312  23.960  0.00  0.00    +0.000 A 
ATOM     25 BR   UNL     1      -3.113  15.585  25.089  0.00  0.00    +0.000 Br
ATOM     26  C   UNL     1      -2.891  13.072  23.758  0.00  0.00    +0.000 A 
ATOM     27  C   UNL     1      -2.265  12.118  22.945  0.00  0.00    +0.000 A 
ENDBRANCH   6  21
TORSDOF 2
ENDMDL
MODEL 4
REMARK VINA RESULT:      -8.4      0.701      2.151
REMARK  Name = 
REMARK  4 active torsions:
REMARK  status: ('A' for Active; 'I' for Inactive)
REMARK    1  A    between atoms: C_1  and  C_2
REMARK    2  A    between atoms: C_5  and  C_6
REMARK    3  A    between atoms: C_9  and  C_10
REMARK    4  A    between atoms: C_15  and  C_16
REMARK                            x       y       z     vdW  Elec       q    Type
REMARK                         _______ _______ _______ _____ _____    ______ ____
ROOT
ATOM      1  C   UNL     1       1.719   7.965  19.800  0.00  0.00    +0.000 A 
ATOM      2  C   UNL     1       1.866   8.849  18.596  0.00  0.00    +0.000 A 
ATOM      3  C   UNL     1       1.298  10.053  18.693  0.00  0.00    +0.000 A 
ATOM      4  N   UNL     1       0.656  10.411  19.871  0.00  0.00    +0.000 N 
ATOM      5  C   UNL     1       0.030  11.580  20.206  0.00  0.00    +0.000 A 
ATOM      6  C   UNL     1      -0.372  11.413  21.513  0.00  0.00    +0.000 A 
ATOM      7  N   UNL     1      -0.027  10.158  21.969  0.00  0.00    +0.000 NA
ATOM      8  C   UNL     1       0.586   9.552  20.966  0.00  0.00    +0.000 A 
ATOM      9  N   UNL     1       1.114   8.291  20.911  0.00  0.00    +0.000 NA
ENDROOT
BRANCH   1  18
ATOM     10  C   UNL     1       2.152   2.754  21.621  0.00  0.00    +0.000 C 
ATOM     11  C   UNL     1       2.938   3.239  20.438  0.00  0.00    +0.000 A 
ATOM     12  N   UNL     1       3.731   2.410  19.815  0.00  0.00    +0.000 NA
ATOM     13  C   UNL     1       4.432   2.877  18.721  0.00  0.00    +0.000 A 
ATOM     14  C   UNL     1       4.332   4.127  18.227  0.00  0.00    +0.000 A 
ATOM     15  C   UNL     1       5.114   4.586  17.039  0.00  0.00    +0.000 C 
ATOM     16  N   UNL     1       3.470   5.011  18.878  0.00  0.00    +0.000 N 
ATOM     17  N   UNL     1       3.136   6.300  18.613  0.00  0.00    +0.000 NA
ATOM     18  C   UNL     1       2.321   6.626  19.642  0.00  0.00    +0.000 A 
ATOM     19  N   UNL     1       2.086   5.579  20.513  0.00  0.00    +0.000 NA
ATOM     20  C   UNL     1       2.789   4.602  20.000  0.00  0.00    +0.000 A 
ENDBRANCH   1  18
BRANCH   6  21
ATOM     21  C   UNL     1      -1.071  12.402  22.321  0.00  0.00    +0.000 A 
ATOM     22  C   UNL     1      -0.482  13.653  22.550  0.00  0.00    +0.000 A 
ATOM     23  C   UNL     1      -1.121  14.610  23.347  0.00  0.00    +0.000 A 
ATOM     24  C   UNL     1      -2.356  14.318  23.918  0.00  0.00    +0.000 A 
ATOM     25 BR   UNL     1      -3.201  15.592  25.030  0.00  0.00    +0.000 Br
ATOM     26  C   UNL     1      -2.965  13.086  23.689  0.00  0.00    +0.000 A 
ATOM     27  C   UNL     1      -2.324  12.130  22.889  0.00  0.00    +0.000 A 
ENDBRANCH   6  21
TORSDOF 2
ENDMDL
MODEL 5
REMARK VINA RESULT:      -8.4      0.970      1.084
REMARK  Name = 
REMARK  4 active torsions:
REMARK  status: ('A' for Active; 'I' for Inactive)
REMARK    1  A    between atoms: C_1  and  C_2
REMARK    2  A    between atoms: C_5  and  C_6
REMARK    3  A    between atoms: C_9  and  C_10
REMARK    4  A    between atoms: C_15  and  C_16
REMARK                            x       y       z     vdW  Elec       q    Type
REMARK                         _______ _______ _______ _____ _____    ______ ____
ROOT
ATOM      1  C   UNL     1       1.837   7.813  19.630  0.00  0.00    +0.000 A 
ATOM      2  C   UNL     1       2.008   8.509  18.310  0.00  0.00    +0.000 A 
ATOM      3  C   UNL     1       1.390   9.686  18.196  0.00  0.00    +0.000 A 
ATOM      4  N   UNL     1       0.678  10.190  19.276  0.00  0.00    +0.000 N 
ATOM      5  C   UNL     1      -0.009  11.366  19.400  0.00  0.00    +0.000 A 
ATOM      6  C   UNL     1      -0.468  11.382  20.699  0.00  0.00    +0.000 A 
ATOM      7  N   UNL     1      -0.097  10.229  21.357  0.00  0.00    +0.000 NA
ATOM      8  C   UNL     1       0.587   9.506  20.487  0.00  0.00    +0.000 A 
ATOM      9  N   UNL     1       1.166   8.276  20.650  0.00  0.00    +0.000 NA
ENDROOT
BRANCH   1  18
ATOM     10  C   UNL     1       6.147   4.621  18.252  0.00  0.00    +0.000 C 
ATOM     11  C   UNL     1       5.004   4.088  19.066  0.00  0.00    +0.000 A 
ATOM     12  N   UNL     1       5.033   2.846  19.471  0.00  0.00    +0.000 NA
ATOM     13  C   UNL     1       3.977   2.384  20.231  0.00  0.00    +0.000 A 
ATOM     14  C   UNL     1       2.925   3.135  20.614  0.00  0.00    +0.000 A 
ATOM     15  C   UNL     1       1.805   2.587  21.436  0.00  0.00    +0.000 C 
ATOM     16  N   UNL     1       2.900   4.468  20.200  0.00  0.00    +0.000 N 
ATOM     17  N   UNL     1       2.012   5.467  20.440  0.00  0.00    +0.000 NA
ATOM     18  C   UNL     1       2.497   6.494  19.706  0.00  0.00    +0.000 A 
ATOM     19  N   UNL     1       3.682   6.199  19.057  0.00  0.00    +0.000 NA
ATOM     20  C   UNL     1       3.907   4.956  19.402  0.00  0.00    +0.000 A 
ENDBRANCH   1  18
BRANCH   6  21
ATOM     21  C   UNL     1      -1.243  12.449  21.313  0.00  0.00    +0.000 A 
ATOM     22  C   UNL     1      -1.052  12.757  22.668  0.00  0.00    +0.000 A 
ATOM     23  C   UNL     1      -1.806  13.759  23.288  0.00  0.00    +0.000 A 
ATOM     24  C   UNL     1      -2.755  14.463  22.553  0.00  0.00    +0.000 A 
ATOM     25 BR   UNL     1      -3.805  15.788  23.400  0.00  0.00    +0.000 Br
ATOM     26  C   UNL     1      -2.949  14.183  21.202  0.00  0.00    +0.000 A 
ATOM     27  C   UNL     1      -2.192  13.180  20.583  0.00  0.00    +0.000 A 
ENDBRANCH   6  21
TORSDOF 2
ENDMDL
MODEL 6
REMARK VINA RESULT:      -8.3      1.047      1.112
REMARK  Name = 
REMARK  4 active torsions:
REMARK  status: ('A' for Active; 'I' for Inactive)
REMARK    1  A    between atoms: C_1  and  C_2
REMARK    2  A    between atoms: C_5  and  C_6
REMARK    3  A    between atoms: C_9  and  C_10
REMARK    4  A    between atoms: C_15  and  C_16
REMARK                            x       y       z     vdW  Elec       q    Type
REMARK                         _______ _______ _______ _____ _____    ______ ____
ROOT
ATOM      1  C   UNL     1       1.899   7.885  19.519  0.00  0.00    +0.000 A 
ATOM      2  C   UNL     1       1.978   8.673  18.243  0.00  0.00    +0.000 A 
ATOM      3  C   UNL     1       1.521   9.924  18.311  0.00  0.00    +0.000 A 
ATOM      4  N   UNL     1       1.045  10.413  19.521  0.00  0.00    +0.000 N 
ATOM      5  C   UNL     1       0.553  11.650  19.833  0.00  0.00    +0.000 A 
ATOM      6  C   UNL     1       0.288  11.603  21.184  0.00  0.00    +0.000 A 
ATOM      7  N   UNL     1       0.584  10.357  21.692  0.00  0.00    +0.000 NA
ATOM      8  C   UNL     1       1.031   9.636  20.678  0.00  0.00    +0.000 A 
ATOM      9  N   UNL     1       1.450   8.333  20.661  0.00  0.00    +0.000 NA
ENDROOT
BRANCH   1  18
ATOM     10  C   UNL     1       4.579   4.069  16.533  0.00  0.00    +0.000 C 
ATOM     11  C   UNL     1       3.959   3.734  17.858  0.00  0.00    +0.000 A 
ATOM     12  N   UNL     1       4.067   2.519  18.325  0.00  0.00    +0.000 NA
ATOM     13  C   UNL     1       3.501   2.241  19.553  0.00  0.00    +0.000 A 
ATOM     14  C   UNL     1       2.867   3.147  20.325  0.00  0.00    +0.000 A 
ATOM     15  C   UNL     1       2.269   2.796  21.649  0.00  0.00    +0.000 C 
ATOM     16  N   UNL     1       2.768   4.452  19.839  0.00  0.00    +0.000 N 
ATOM     17  N   UNL     1       2.227   5.574  20.380  0.00  0.00    +0.000 NA
ATOM     18  C   UNL     1       2.373   6.492  19.397  0.00  0.00    +0.000 A 
ATOM     19  N   UNL     1       3.031   6.007  18.282  0.00  0.00    +0.000 NA
ATOM     20  C   UNL     1       3.276   4.761  18.600  0.00  0.00    +0.000 A 
ENDBRANCH   1  18
BRANCH   6  21
ATOM     21  C   UNL     1      -0.236  12.699  21.985  0.00  0.00    +0.000 A 
ATOM     22  C   UNL     1      -1.304  12.470  22.864  0.00  0.00    +0.000 A 
ATOM     23  C   UNL     1      -1.844  13.514  23.623  0.00  0.00    +0.000 A 
ATOM     24  C   UNL     1      -1.314  14.795  23.509  0.00  0.00    +0.000 A 
ATOM     25 BR   UNL     1      -2.069  16.216  24.502  0.00  0.00    +0.000 Br
ATOM     26  C   UNL     1      -0.241  15.040  22.654  0.00  0.00    +0.000 A 
ATOM     27  C   UNL     1       0.298  13.993  21.895  0.00  0.00    +0.000 A 
ENDBRANCH   6  21
TORSDOF 2
ENDMDL
MODEL 7
REMARK VINA RESULT:      -8.3      1.171      2.163
REMARK  Name = 
REMARK  4 active torsions:
REMARK  status: ('A' for Active; 'I' for Inactive)
REMARK    1  A    between atoms: C_1  and  C_2
REMARK    2  A    between atoms: C_5  and  C_6
REMARK    3  A    between atoms: C_9  and  C_10
REMARK    4  A    between atoms: C_15  and  C_16
REMARK                            x       y       z     vdW  Elec       q    Type
REMARK                         _______ _______ _______ _____ _____    ______ ____
ROOT
ATOM      1  C   UNL     1       1.844   7.998  19.488  0.00  0.00    +0.000 A 
ATOM      2  C   UNL     1       1.861   8.759  18.193  0.00  0.00    +0.000 A 
ATOM      3  C   UNL     1       1.412  10.014  18.257  0.00  0.00    +0.000 A 
ATOM      4  N   UNL     1       1.000  10.530  19.479  0.00  0.00    +0.000 N 
ATOM      5  C   UNL     1       0.529  11.776  19.789  0.00  0.00    +0.000 A 
ATOM      6  C   UNL     1       0.333  11.759  21.152  0.00  0.00    +0.000 A 
ATOM      7  N   UNL     1       0.650  10.522  21.671  0.00  0.00    +0.000 NA
ATOM      8  C   UNL     1       1.042   9.778  20.652  0.00  0.00    +0.000 A 
ATOM      9  N   UNL     1       1.456   8.473  20.641  0.00  0.00    +0.000 NA
ENDROOT
BRANCH   1  18
ATOM     10  C   UNL     1       2.001   2.900  21.641  0.00  0.00    +0.000 C 
ATOM     11  C   UNL     1       2.701   3.230  20.356  0.00  0.00    +0.000 A 
ATOM     12  N   UNL     1       3.350   2.290  19.722  0.00  0.00    +0.000 NA
ATOM     13  C   UNL     1       3.973   2.616  18.534  0.00  0.00    +0.000 A 
ATOM     14  C   UNL     1       3.934   3.836  17.961  0.00  0.00    +0.000 A 
ATOM     15  C   UNL     1       4.628   4.139  16.672  0.00  0.00    +0.000 C 
ATOM     16  N   UNL     1       3.224   4.838  18.624  0.00  0.00    +0.000 N 
ATOM     17  N   UNL     1       2.980   6.133  18.297  0.00  0.00    +0.000 NA
ATOM     18  C   UNL     1       2.306   6.601  19.373  0.00  0.00    +0.000 A 
ATOM     19  N   UNL     1       2.071   5.640  20.338  0.00  0.00    +0.000 NA
ATOM     20  C   UNL     1       2.629   4.569  19.833  0.00  0.00    +0.000 A 
ENDBRANCH   1  18
BRANCH   6  21
ATOM     21  C   UNL     1      -0.145  12.874  21.956  0.00  0.00    +0.000 A 
ATOM     22  C   UNL     1      -1.214  12.684  22.843  0.00  0.00    +0.000 A 
ATOM     23  C   UNL     1      -1.711  13.748  23.605  0.00  0.00    +0.000 A 
ATOM     24  C   UNL     1      -1.136  15.010  23.483  0.00  0.00    +0.000 A 
ATOM     25 BR   UNL     1      -1.833  16.458  24.479  0.00  0.00    +0.000 Br
ATOM     26  C   UNL     1      -0.063  15.216  22.619  0.00  0.00    +0.000 A 
ATOM     27  C   UNL     1       0.433  14.148  21.859  0.00  0.00    +0.000 A 
ENDBRANCH   6  21
TORSDOF 2
ENDMDL
MODEL 8
REMARK VINA RESULT:      -8.2      1.308      1.378
REMARK  Name = 
REMARK  4 active torsions:
REMARK  status: ('A' for Active; 'I' for Inactive)
REMARK    1  A    between atoms: C_1  and  C_2
REMARK    2  A    between atoms: C_5  and  C_6
REMARK    3  A    between atoms: C_9  and  C_10
REMARK    4  A    between atoms: C_15  and  C_16
REMARK                            x       y       z     vdW  Elec       q    Type
REMARK                         _______ _______ _______ _____ _____    ______ ____
ROOT
ATOM      1  C   UNL     1       1.930   8.301  19.041  0.00  0.00    +0.000 A 
ATOM      2  C   UNL     1       2.110   9.341  17.973  0.00  0.00    +0.000 A 
ATOM      3  C   UNL     1       1.567  10.532  18.232  0.00  0.00    +0.000 A 
ATOM      4  N   UNL     1       0.920  10.738  19.443  0.00  0.00    +0.000 N 
ATOM      5  C   UNL     1       0.314  11.862  19.932  0.00  0.00    +0.000 A 
ATOM      6  C   UNL     1      -0.107  11.524  21.199  0.00  0.00    +0.000 A 
ATOM      7  N   UNL     1       0.206  10.211  21.479  0.00  0.00    +0.000 NA
ATOM      8  C   UNL     1       0.817   9.736  20.407  0.00  0.00    +0.000 A 
ATOM      9  N   UNL     1       1.320   8.483  20.181  0.00  0.00    +0.000 NA
ENDROOT
BRANCH   1  18
ATOM     10  C   UNL     1       5.394   5.346  15.890  0.00  0.00    +0.000 C 
ATOM     11  C   UNL     1       4.540   4.696  16.939  0.00  0.00    +0.000 A 
ATOM     12  N   UNL     1       4.626   3.406  17.124  0.00  0.00    +0.000 NA
ATOM     13  C   UNL     1       3.841   2.834  18.105  0.00  0.00    +0.000 A 
ATOM     14  C   UNL     1       3.008   3.520  18.913  0.00  0.00    +0.000 A 
ATOM     15  C   UNL     1       2.177   2.855  19.961  0.00  0.00    +0.000 C 
ATOM     16  N   UNL     1       2.928   4.903  18.733  0.00  0.00    +0.000 N 
ATOM     17  N   UNL     1       2.220   5.855  19.392  0.00  0.00    +0.000 NA
ATOM     18  C   UNL     1       2.505   6.984  18.703  0.00  0.00    +0.000 A 
ATOM     19  N   UNL     1       3.405   6.789  17.672  0.00  0.00    +0.000 NA
ATOM     20  C   UNL     1       3.657   5.506  17.736  0.00  0.00    +0.000 A 
ENDBRANCH   1  18
BRANCH   6  21
ATOM     21  C   UNL     1      -0.794  12.406  22.130  0.00  0.00    +0.000 A 
ATOM     22  C   UNL     1      -1.948  11.960  22.790  0.00  0.00    +0.000 A 
ATOM     23  C   UNL     1      -2.642  12.801  23.667  0.00  0.00    +0.000 A 
ATOM     24  C   UNL     1      -2.181  14.095  23.892  0.00  0.00    +0.000 A 
ATOM     25 BR   UNL     1      -3.140  15.246  25.044  0.00  0.00    +0.000 Br
ATOM     26  C   UNL     1      -1.027  14.551  23.259  0.00  0.00    +0.000 A 
ATOM     27  C   UNL     1      -0.333  13.707  22.381  0.00  0.00    +0.000 A 
ENDBRANCH   6  21
TORSDOF 2
ENDMDL
MODEL 9
REMARK VINA RESULT:      -7.9      2.877      4.045
REMARK  Name = 
REMARK  4 active torsions:
REMARK  status: ('A' for Active; 'I' for Inactive)
REMARK    1  A    between atoms: C_1  and  C_2
REMARK    2  A    between atoms: C_5  and  C_6
REMARK    3  A    between atoms: C_9  and  C_10
REMARK    4  A    between atoms: C_15  and  C_16
REMARK                            x       y       z     vdW  Elec       q    Type
REMARK                         _______ _______ _______ _____ _____    ______ ____
ROOT
ATOM      1  C   UNL     1       1.695   8.048  19.999  0.00  0.00    +0.000 A 
ATOM      2  C   UNL     1       1.074   8.256  21.350  0.00  0.00    +0.000 A 
ATOM      3  C   UNL     1       0.756   9.517  21.648  0.00  0.00    +0.000 A 
ATOM      4  N   UNL     1       0.982  10.518  20.713  0.00  0.00    +0.000 N 
ATOM      5  C   UNL     1       0.721  11.859  20.784  0.00  0.00    +0.000 A 
ATOM      6  C   UNL     1       1.086  12.364  19.556  0.00  0.00    +0.000 A 
ATOM      7  N   UNL     1       1.586  11.363  18.751  0.00  0.00    +0.000 NA
ATOM      8  C   UNL     1       1.532  10.249  19.461  0.00  0.00    +0.000 A 
ATOM      9  N   UNL     1       1.915   8.982  19.113  0.00  0.00    +0.000 NA
ENDROOT
BRANCH   1  18
ATOM     10  C   UNL     1       1.488   2.724  21.507  0.00  0.00    +0.000 C 
ATOM     11  C   UNL     1       2.239   3.164  20.284  0.00  0.00    +0.000 A 
ATOM     12  N   UNL     1       2.845   2.270  19.551  0.00  0.00    +0.000 NA
ATOM     13  C   UNL     1       3.516   2.698  18.423  0.00  0.00    +0.000 A 
ATOM     14  C   UNL     1       3.565   3.979  18.004  0.00  0.00    +0.000 A 
ATOM     15  C   UNL     1       4.307   4.394  16.775  0.00  0.00    +0.000 C 
ATOM     16  N   UNL     1       2.901   4.936  18.774  0.00  0.00    +0.000 N 
ATOM     17  N   UNL     1       2.745   6.274  18.606  0.00  0.00    +0.000 NA
ATOM     18  C   UNL     1       2.074   6.648  19.719  0.00  0.00    +0.000 A 
ATOM     19  N   UNL     1       1.757   5.593  20.554  0.00  0.00    +0.000 NA
ATOM     20  C   UNL     1       2.261   4.559  19.930  0.00  0.00    +0.000 A 
ENDBRANCH   1  18
BRANCH   6  21
ATOM     21  C   UNL     1       0.975  13.754  19.142  0.00  0.00    +0.000 A 
ATOM     22  C   UNL     1       2.129  14.471  18.795  0.00  0.00    +0.000 A 
ATOM     23  C   UNL     1       2.051  15.818  18.423  0.00  0.00    +0.000 A 
ATOM     24  C   UNL     1       0.813  16.454  18.391  0.00  0.00    +0.000 A 
ATOM     25 BR   UNL     1       0.710  18.284  17.929  0.00  0.00    +0.000 Br
ATOM     26  C   UNL     1      -0.347  15.754  18.715  0.00  0.00    +0.000 A 
ATOM     27  C   UNL     1      -0.266  14.406  19.088  0.00  0.00    +0.000 A 
ENDBRANCH   6  21
TORSDOF 2
ENDMDL
