MODEL 1
REMARK VINA RESULT:      -8.2      0.000      0.000
REMARK  Name = 
REMARK  5 active torsions:
REMARK  status: ('A' for Active; 'I' for Inactive)
REMARK    1  A    between atoms: O_1  and  C_2
REMARK    2  A    between atoms: C_2  and  C_3
REMARK    3  A    between atoms: C_3  and  N_4
REMARK    4  A    between atoms: C_7  and  C_8
REMARK    5  A    between atoms: C_9  and  C_10
REMARK                            x       y       z     vdW  Elec       q    Type
REMARK                         _______ _______ _______ _____ _____    ______ ____
ROOT
ATOM      1  C   UNL     1       8.792   9.628  18.245  0.00  0.00    +0.000 C 
ATOM      2  C   UNL     1       7.705   8.992  17.659  0.00  0.00    +0.000 C 
ENDROOT
BRANCH   2   3
ATOM      3  C   UNL     1       7.400   7.442  17.710  0.00  0.00    +0.000 A 
ATOM      4  C   UNL     1       8.097   6.838  18.762  0.00  0.00    +0.000 A 
ATOM      5  C   UNL     1       7.825   5.544  19.135  0.00  0.00    +0.000 A 
ATOM      6  C   UNL     1       7.818   4.691  18.067  0.00  0.00    +0.000 A 
ATOM      7  C   UNL     1       7.093   5.080  16.961  0.00  0.00    +0.000 A 
ATOM      8  C   UNL     1       6.752   4.008  16.111  0.00  0.00    +0.000 A 
ATOM      9  C   UNL     1       5.770   4.134  15.160  0.00  0.00    +0.000 A 
ATOM     10  C   UNL     1       5.146   5.368  15.053  0.00  0.00    +0.000 A 
ATOM     11  C   UNL     1       5.604   6.506  15.808  0.00  0.00    +0.000 A 
ATOM     12  C   UNL     1       6.664   6.453  16.808  0.00  0.00    +0.000 A 
ENDBRANCH   2   3
BRANCH   1  16
ATOM     13  N   UNL     1      10.430  13.727  18.177  0.00  0.00    +0.000 N 
ATOM     14  C   UNL     1      11.182  12.666  18.576  0.00  0.00    +0.000 A 
ATOM     15  C   UNL     1      10.673  11.360  18.606  0.00  0.00    +0.000 A 
ATOM     16  C   UNL     1       9.373  11.047  18.240  0.00  0.00    +0.000 A 
ATOM     17  C   UNL     1       8.616  12.184  17.809  0.00  0.00    +0.000 A 
ATOM     18  C   UNL     1       9.157  13.508  17.786  0.00  0.00    +0.000 A 
BRANCH  13  19
ATOM     19  C   UNL     1      11.006  15.140  18.249  0.00  0.00    +0.000 C 
BRANCH  19  20
ATOM     20  C   UNL     1      10.270  16.102  17.311  0.00  0.00    +0.000 C 
BRANCH  20  21
ATOM     21  O   UNL     1      10.756  15.976  15.977  0.00  0.00    +0.000 OA
ATOM     22  H   UNL     1      11.575  15.428  16.048  0.00  0.00    +0.000 HD
ENDBRANCH  20  21
ENDBRANCH  19  20
ENDBRANCH  13  19
ENDBRANCH   1  16
TORSDOF 5
ENDMDL
MODEL 2
REMARK VINA RESULT:      -7.6      0.702      1.141
REMARK  Name = 
REMARK  5 active torsions:
REMARK  status: ('A' for Active; 'I' for Inactive)
REMARK    1  A    between atoms: O_1  and  C_2
REMARK    2  A    between atoms: C_2  and  C_3
REMARK    3  A    between atoms: C_3  and  N_4
REMARK    4  A    between atoms: C_7  and  C_8
REMARK    5  A    between atoms: C_9  and  C_10
REMARK                            x       y       z     vdW  Elec       q    Type
REMARK                         _______ _______ _______ _____ _____    ______ ____
ROOT
ATOM      1  C   UNL     1       8.803   9.603  18.594  0.00  0.00    +0.000 C 
ATOM      2  C   UNL     1       7.913   8.972  17.734  0.00  0.00    +0.000 C 
ENDROOT
BRANCH   2   3
ATOM      3  C   UNL     1       7.521   7.442  17.765  0.00  0.00    +0.000 A 
ATOM      4  C   UNL     1       8.183   6.785  18.808  0.00  0.00    +0.000 A 
ATOM      5  C   UNL     1       7.838   5.504  19.164  0.00  0.00    +0.000 A 
ATOM      6  C   UNL     1       7.782   4.668  18.085  0.00  0.00    +0.000 A 
ATOM      7  C   UNL     1       7.080   5.111  16.986  0.00  0.00    +0.000 A 
ATOM      8  C   UNL     1       6.679   4.071  16.121  0.00  0.00    +0.000 A 
ATOM      9  C   UNL     1       5.704   4.266  15.173  0.00  0.00    +0.000 A 
ATOM     10  C   UNL     1       5.152   5.535  15.083  0.00  0.00    +0.000 A 
ATOM     11  C   UNL     1       5.674   6.634  15.852  0.00  0.00    +0.000 A 
ATOM     12  C   UNL     1       6.730   6.509  16.851  0.00  0.00    +0.000 A 
ENDBRANCH   2   3
BRANCH   1  16
ATOM     13  N   UNL     1      10.625  13.608  18.959  0.00  0.00    +0.000 N 
ATOM     14  C   UNL     1       9.814  13.286  17.914  0.00  0.00    +0.000 A 
ATOM     15  C   UNL     1       9.233  12.017  17.785  0.00  0.00    +0.000 A 
ATOM     16  C   UNL     1       9.437  10.996  18.698  0.00  0.00    +0.000 A 
ATOM     17  C   UNL     1      10.280  11.374  19.793  0.00  0.00    +0.000 A 
ATOM     18  C   UNL     1      10.862  12.676  19.905  0.00  0.00    +0.000 A 
BRANCH  13  19
ATOM     19  C   UNL     1      11.303  14.976  19.004  0.00  0.00    +0.000 C 
BRANCH  19  20
ATOM     20  C   UNL     1      10.566  16.005  18.142  0.00  0.00    +0.000 C 
BRANCH  20  21
ATOM     21  O   UNL     1      11.491  16.823  17.431  0.00  0.00    +0.000 OA
ATOM     22  H   UNL     1      12.110  16.193  16.988  0.00  0.00    +0.000 HD
ENDBRANCH  20  21
ENDBRANCH  19  20
ENDBRANCH  13  19
ENDBRANCH   1  16
TORSDOF 5
ENDMDL
MODEL 3
REMARK VINA RESULT:      -7.6      7.417      9.991
REMARK  Name = 
REMARK  5 active torsions:
REMARK  status: ('A' for Active; 'I' for Inactive)
REMARK    1  A    between atoms: O_1  and  C_2
REMARK    2  A    between atoms: C_2  and  C_3
REMARK    3  A    between atoms: C_3  and  N_4
REMARK    4  A    between atoms: C_7  and  C_8
REMARK    5  A    between atoms: C_9  and  C_10
REMARK                            x       y       z     vdW  Elec       q    Type
REMARK                         _______ _______ _______ _____ _____    ______ ____
ROOT
ATOM      1  C   UNL     1       2.117   7.955  18.544  0.00  0.00    +0.000 C 
ATOM      2  C   UNL     1       1.406   9.070  18.117  0.00  0.00    +0.000 C 
ENDROOT
BRANCH   2   3
ATOM      3  C   UNL     1       0.344   9.874  18.968  0.00  0.00    +0.000 A 
ATOM      4  C   UNL     1      -0.207  10.914  18.213  0.00  0.00    +0.000 A 
ATOM      5  C   UNL     1      -1.301  11.610  18.667  0.00  0.00    +0.000 A 
ATOM      6  C   UNL     1      -1.137  12.042  19.953  0.00  0.00    +0.000 A 
ATOM      7  C   UNL     1      -0.688  11.117  20.871  0.00  0.00    +0.000 A 
ATOM      8  C   UNL     1      -0.970  11.473  22.207  0.00  0.00    +0.000 A 
ATOM      9  C   UNL     1      -0.908  10.548  23.220  0.00  0.00    +0.000 A 
ATOM     10  C   UNL     1      -0.530   9.259  22.880  0.00  0.00    +0.000 A 
ATOM     11  C   UNL     1      -0.086   8.936  21.549  0.00  0.00    +0.000 A 
ATOM     12  C   UNL     1      -0.092   9.875  20.432  0.00  0.00    +0.000 A 
ENDBRANCH   2   3
BRANCH   1  16
ATOM     13  N   UNL     1       4.865   5.007  16.742  0.00  0.00    +0.000 N 
ATOM     14  C   UNL     1       5.096   6.345  16.652  0.00  0.00    +0.000 A 
ATOM     15  C   UNL     1       4.230   7.292  17.217  0.00  0.00    +0.000 A 
ATOM     16  C   UNL     1       3.076   6.946  17.902  0.00  0.00    +0.000 A 
ATOM     17  C   UNL     1       2.873   5.531  17.992  0.00  0.00    +0.000 A 
ATOM     18  C   UNL     1       3.771   4.583  17.408  0.00  0.00    +0.000 A 
BRANCH  13  19
ATOM     19  C   UNL     1       5.793   4.024  16.033  0.00  0.00    +0.000 C 
BRANCH  19  20
ATOM     20  C   UNL     1       7.229   4.551  15.957  0.00  0.00    +0.000 C 
BRANCH  20  21
ATOM     21  O   UNL     1       7.980   4.137  17.096  0.00  0.00    +0.000 OA
ATOM     22  H   UNL     1       7.854   4.852  17.766  0.00  0.00    +0.000 HD
ENDBRANCH  20  21
ENDBRANCH  19  20
ENDBRANCH  13  19
ENDBRANCH   1  16
TORSDOF 5
ENDMDL
MODEL 4
REMARK VINA RESULT:      -7.5      7.282      9.915
REMARK  Name = 
REMARK  5 active torsions:
REMARK  status: ('A' for Active; 'I' for Inactive)
REMARK    1  A    between atoms: O_1  and  C_2
REMARK    2  A    between atoms: C_2  and  C_3
REMARK    3  A    between atoms: C_3  and  N_4
REMARK    4  A    between atoms: C_7  and  C_8
REMARK    5  A    between atoms: C_9  and  C_10
REMARK                            x       y       z     vdW  Elec       q    Type
REMARK                         _______ _______ _______ _____ _____    ______ ____
ROOT
ATOM      1  C   UNL     1       2.364   7.566  18.421  0.00  0.00    +0.000 C 
ATOM      2  C   UNL     1       1.776   8.787  18.114  0.00  0.00    +0.000 C 
ENDROOT
BRANCH   2   3
ATOM      3  C   UNL     1       0.595   9.473  18.909  0.00  0.00    +0.000 A 
ATOM      4  C   UNL     1      -0.191  10.249  18.050  0.00  0.00    +0.000 A 
ATOM      5  C   UNL     1      -1.393  10.765  18.471  0.00  0.00    +0.000 A 
ATOM      6  C   UNL     1      -1.283  11.412  19.670  0.00  0.00    +0.000 A 
ATOM      7  C   UNL     1      -0.617  10.751  20.679  0.00  0.00    +0.000 A 
ATOM      8  C   UNL     1      -0.924  11.239  21.966  0.00  0.00    +0.000 A 
ATOM      9  C   UNL     1      -0.632  10.513  23.094  0.00  0.00    +0.000 A 
ATOM     10  C   UNL     1       0.002   9.293  22.916  0.00  0.00    +0.000 A 
ATOM     11  C   UNL     1       0.461   8.870  21.618  0.00  0.00    +0.000 A 
ATOM     12  C   UNL     1       0.217   9.606  20.382  0.00  0.00    +0.000 A 
ENDBRANCH   2   3
BRANCH   1  16
ATOM     13  N   UNL     1       5.330   4.865  16.579  0.00  0.00    +0.000 N 
ATOM     14  C   UNL     1       5.508   6.214  16.595  0.00  0.00    +0.000 A 
ATOM     15  C   UNL     1       4.572   7.083  17.173  0.00  0.00    +0.000 A 
ATOM     16  C   UNL     1       3.399   6.644  17.766  0.00  0.00    +0.000 A 
ATOM     17  C   UNL     1       3.253   5.219  17.747  0.00  0.00    +0.000 A 
ATOM     18  C   UNL     1       4.222   4.351  17.152  0.00  0.00    +0.000 A 
BRANCH  13  19
ATOM     19  C   UNL     1       6.338   3.972  15.858  0.00  0.00    +0.000 C 
BRANCH  19  20
ATOM     20  C   UNL     1       6.581   4.438  14.419  0.00  0.00    +0.000 C 
BRANCH  20  21
ATOM     21  O   UNL     1       6.228   3.415  13.490  0.00  0.00    +0.000 OA
ATOM     22  H   UNL     1       5.560   3.827  12.890  0.00  0.00    +0.000 HD
ENDBRANCH  20  21
ENDBRANCH  19  20
ENDBRANCH  13  19
ENDBRANCH   1  16
TORSDOF 5
ENDMDL
MODEL 5
REMARK VINA RESULT:      -7.5      1.116      1.235
REMARK  Name = 
REMARK  5 active torsions:
REMARK  status: ('A' for Active; 'I' for Inactive)
REMARK    1  A    between atoms: O_1  and  C_2
REMARK    2  A    between atoms: C_2  and  C_3
REMARK    3  A    between atoms: C_3  and  N_4
REMARK    4  A    between atoms: C_7  and  C_8
REMARK    5  A    between atoms: C_9  and  C_10
REMARK                            x       y       z     vdW  Elec       q    Type
REMARK                         _______ _______ _______ _____ _____    ______ ____
ROOT
ATOM      1  C   UNL     1       8.787   9.652  18.496  0.00  0.00    +0.000 C 
ATOM      2  C   UNL     1       7.926   8.985  17.633  0.00  0.00    +0.000 C 
ENDROOT
BRANCH   2   3
ATOM      3  C   UNL     1       7.523   7.459  17.722  0.00  0.00    +0.000 A 
ATOM      4  C   UNL     1       8.181   6.837  18.788  0.00  0.00    +0.000 A 
ATOM      5  C   UNL     1       7.826   5.573  19.191  0.00  0.00    +0.000 A 
ATOM      6  C   UNL     1       7.764   4.697  18.144  0.00  0.00    +0.000 A 
ATOM      7  C   UNL     1       7.064   5.105  17.029  0.00  0.00    +0.000 A 
ATOM      8  C   UNL     1       6.655   4.037  16.204  0.00  0.00    +0.000 A 
ATOM      9  C   UNL     1       5.682   4.204  15.249  0.00  0.00    +0.000 A 
ATOM     10  C   UNL     1       5.139   5.472  15.112  0.00  0.00    +0.000 A 
ATOM     11  C   UNL     1       5.669   6.596  15.840  0.00  0.00    +0.000 A 
ATOM     12  C   UNL     1       6.725   6.499  16.842  0.00  0.00    +0.000 A 
ENDBRANCH   2   3
BRANCH   1  16
ATOM     13  N   UNL     1      10.605  13.673  18.617  0.00  0.00    +0.000 N 
ATOM     14  C   UNL     1      11.190  12.607  19.228  0.00  0.00    +0.000 A 
ATOM     15  C   UNL     1      10.622  11.326  19.201  0.00  0.00    +0.000 A 
ATOM     16  C   UNL     1       9.427  11.044  18.559  0.00  0.00    +0.000 A 
ATOM     17  C   UNL     1       8.847  12.183  17.912  0.00  0.00    +0.000 A 
ATOM     18  C   UNL     1       9.446  13.482  17.953  0.00  0.00    +0.000 A 
BRANCH  13  19
ATOM     19  C   UNL     1      11.221  15.064  18.754  0.00  0.00    +0.000 C 
BRANCH  19  20
ATOM     20  C   UNL     1      11.346  15.488  20.220  0.00  0.00    +0.000 C 
BRANCH  20  21
ATOM     21  O   UNL     1      11.142  16.892  20.358  0.00  0.00    +0.000 OA
ATOM     22  H   UNL     1      11.361  17.096  21.300  0.00  0.00    +0.000 HD
ENDBRANCH  20  21
ENDBRANCH  19  20
ENDBRANCH  13  19
ENDBRANCH   1  16
TORSDOF 5
ENDMDL
MODEL 6
REMARK VINA RESULT:      -7.4      4.181      8.964
REMARK  Name = 
REMARK  5 active torsions:
REMARK  status: ('A' for Active; 'I' for Inactive)
REMARK    1  A    between atoms: O_1  and  C_2
REMARK    2  A    between atoms: C_2  and  C_3
REMARK    3  A    between atoms: C_3  and  N_4
REMARK    4  A    between atoms: C_7  and  C_8
REMARK    5  A    between atoms: C_9  and  C_10
REMARK                            x       y       z     vdW  Elec       q    Type
REMARK                         _______ _______ _______ _____ _____    ______ ____
ROOT
ATOM      1  C   UNL     1       8.583   8.547  18.492  0.00  0.00    +0.000 C 
ATOM      2  C   UNL     1       8.622   9.911  18.226  0.00  0.00    +0.000 C 
ENDROOT
BRANCH   2   3
ATOM      3  C   UNL     1       9.592  10.960  18.902  0.00  0.00    +0.000 A 
ATOM      4  C   UNL     1       9.343  11.045  20.276  0.00  0.00    +0.000 A 
ATOM      5  C   UNL     1      10.201  11.728  21.104  0.00  0.00    +0.000 A 
ATOM      6  C   UNL     1      10.485  12.978  20.632  0.00  0.00    +0.000 A 
ATOM      7  C   UNL     1      10.850  13.078  19.307  0.00  0.00    +0.000 A 
ATOM      8  C   UNL     1      11.550  14.265  19.007  0.00  0.00    +0.000 A 
ATOM      9  C   UNL     1      12.275  14.393  17.848  0.00  0.00    +0.000 A 
ATOM     10  C   UNL     1      12.267  13.318  16.973  0.00  0.00    +0.000 A 
ATOM     11  C   UNL     1      11.424  12.173  17.201  0.00  0.00    +0.000 A 
ATOM     12  C   UNL     1      10.601  11.985  18.391  0.00  0.00    +0.000 A 
ENDBRANCH   2   3
BRANCH   1  16
ATOM     13  N   UNL     1       6.054   5.116  17.344  0.00  0.00    +0.000 N 
ATOM     14  C   UNL     1       5.977   6.307  16.692  0.00  0.00    +0.000 A 
ATOM     15  C   UNL     1       6.772   7.406  17.048  0.00  0.00    +0.000 A 
ATOM     16  C   UNL     1       7.688   7.370  18.087  0.00  0.00    +0.000 A 
ATOM     17  C   UNL     1       7.755   6.096  18.740  0.00  0.00    +0.000 A 
ATOM     18  C   UNL     1       6.935   4.989  18.358  0.00  0.00    +0.000 A 
BRANCH  13  19
ATOM     19  C   UNL     1       5.103   3.980  16.973  0.00  0.00    +0.000 C 
BRANCH  19  20
ATOM     20  C   UNL     1       3.676   4.253  17.458  0.00  0.00    +0.000 C 
BRANCH  20  21
ATOM     21  O   UNL     1       2.812   3.170  17.121  0.00  0.00    +0.000 OA
ATOM     22  H   UNL     1       3.098   2.420  17.695  0.00  0.00    +0.000 HD
ENDBRANCH  20  21
ENDBRANCH  19  20
ENDBRANCH  13  19
ENDBRANCH   1  16
TORSDOF 5
ENDMDL
MODEL 7
REMARK VINA RESULT:      -7.4      7.393      9.994
REMARK  Name = 
REMARK  5 active torsions:
REMARK  status: ('A' for Active; 'I' for Inactive)
REMARK    1  A    between atoms: O_1  and  C_2
REMARK    2  A    between atoms: C_2  and  C_3
REMARK    3  A    between atoms: C_3  and  N_4
REMARK    4  A    between atoms: C_7  and  C_8
REMARK    5  A    between atoms: C_9  and  C_10
REMARK                            x       y       z     vdW  Elec       q    Type
REMARK                         _______ _______ _______ _____ _____    ______ ____
ROOT
ATOM      1  C   UNL     1       2.264   7.762  18.516  0.00  0.00    +0.000 C 
ATOM      2  C   UNL     1       1.571   8.894  18.102  0.00  0.00    +0.000 C 
ENDROOT
BRANCH   2   3
ATOM      3  C   UNL     1       0.481   9.671  18.941  0.00  0.00    +0.000 A 
ATOM      4  C   UNL     1      -0.130  10.658  18.160  0.00  0.00    +0.000 A 
ATOM      5  C   UNL     1      -1.251  11.314  18.607  0.00  0.00    +0.000 A 
ATOM      6  C   UNL     1      -1.095  11.795  19.876  0.00  0.00    +0.000 A 
ATOM      7  C   UNL     1      -0.590  10.923  20.817  0.00  0.00    +0.000 A 
ATOM      8  C   UNL     1      -0.874  11.307  22.144  0.00  0.00    +0.000 A 
ATOM      9  C   UNL     1      -0.754  10.420  23.186  0.00  0.00    +0.000 A 
ATOM     10  C   UNL     1      -0.317   9.140  22.881  0.00  0.00    +0.000 A 
ATOM     11  C   UNL     1       0.127   8.797  21.555  0.00  0.00    +0.000 A 
ATOM     12  C   UNL     1       0.062   9.698  20.410  0.00  0.00    +0.000 A 
ENDBRANCH   2   3
BRANCH   1  16
ATOM     13  N   UNL     1       5.096   4.956  16.621  0.00  0.00    +0.000 N 
ATOM     14  C   UNL     1       3.989   4.516  17.278  0.00  0.00    +0.000 A 
ATOM     15  C   UNL     1       3.084   5.396  17.887  0.00  0.00    +0.000 A 
ATOM     16  C   UNL     1       3.243   6.772  17.874  0.00  0.00    +0.000 A 
ATOM     17  C   UNL     1       4.408   7.201  17.159  0.00  0.00    +0.000 A 
ATOM     18  C   UNL     1       5.318   6.285  16.544  0.00  0.00    +0.000 A 
BRANCH  13  19
ATOM     19  C   UNL     1       6.095   3.951  16.052  0.00  0.00    +0.000 C 
BRANCH  19  20
ATOM     20  C   UNL     1       6.607   4.376  14.672  0.00  0.00    +0.000 C 
BRANCH  20  21
ATOM     21  O   UNL     1       6.300   3.387  13.693  0.00  0.00    +0.000 OA
ATOM     22  H   UNL     1       6.671   3.735  12.846  0.00  0.00    +0.000 HD
ENDBRANCH  20  21
ENDBRANCH  19  20
ENDBRANCH  13  19
ENDBRANCH   1  16
TORSDOF 5
ENDMDL
MODEL 8
REMARK VINA RESULT:      -7.3      8.887      9.862
REMARK  Name = 
REMARK  5 active torsions:
REMARK  status: ('A' for Active; 'I' for Inactive)
REMARK    1  A    between atoms: O_1  and  C_2
REMARK    2  A    between atoms: C_2  and  C_3
REMARK    3  A    between atoms: C_3  and  N_4
REMARK    4  A    between atoms: C_7  and  C_8
REMARK    5  A    between atoms: C_9  and  C_10
REMARK                            x       y       z     vdW  Elec       q    Type
REMARK                         _______ _______ _______ _____ _____    ______ ____
ROOT
ATOM      1  C   UNL     1       0.661   8.847  20.604  0.00  0.00    +0.000 C 
ATOM      2  C   UNL     1       1.226   7.656  21.043  0.00  0.00    +0.000 C 
ENDROOT
BRANCH   2   3
ATOM      3  C   UNL     1       1.887   6.551  20.127  0.00  0.00    +0.000 A 
ATOM      4  C   UNL     1       2.544   7.140  19.042  0.00  0.00    +0.000 A 
ATOM      5  C   UNL     1       3.369   6.397  18.233  0.00  0.00    +0.000 A 
ATOM      6  C   UNL     1       2.773   5.243  17.810  0.00  0.00    +0.000 A 
ATOM      7  C   UNL     1       2.151   4.473  18.769  0.00  0.00    +0.000 A 
ATOM      8  C   UNL     1       1.968   3.131  18.376  0.00  0.00    +0.000 A 
ATOM      9  C   UNL     1       1.682   2.150  19.294  0.00  0.00    +0.000 A 
ATOM     10  C   UNL     1       1.554   2.540  20.618  0.00  0.00    +0.000 A 
ATOM     11  C   UNL     1       1.580   3.929  20.996  0.00  0.00    +0.000 A 
ATOM     12  C   UNL     1       1.843   5.025  20.070  0.00  0.00    +0.000 A 
ENDBRANCH   2   3
BRANCH   1  16
ATOM     13  N   UNL     1      -1.657  12.101  22.482  0.00  0.00    +0.000 N 
ATOM     14  C   UNL     1      -1.310  12.141  21.167  0.00  0.00    +0.000 A 
ATOM     15  C   UNL     1      -0.571  11.116  20.559  0.00  0.00    +0.000 A 
ATOM     16  C   UNL     1      -0.134   9.992  21.243  0.00  0.00    +0.000 A 
ATOM     17  C   UNL     1      -0.532   9.975  22.619  0.00  0.00    +0.000 A 
ATOM     18  C   UNL     1      -1.287  11.032  23.218  0.00  0.00    +0.000 A 
BRANCH  13  19
ATOM     19  C   UNL     1      -2.385  13.286  23.115  0.00  0.00    +0.000 C 
BRANCH  19  20
ATOM     20  C   UNL     1      -3.692  12.855  23.788  0.00  0.00    +0.000 C 
BRANCH  20  21
ATOM     21  O   UNL     1      -4.612  12.347  22.825  0.00  0.00    +0.000 OA
ATOM     22  H   UNL     1      -5.324  13.028  22.760  0.00  0.00    +0.000 HD
ENDBRANCH  20  21
ENDBRANCH  19  20
ENDBRANCH  13  19
ENDBRANCH   1  16
TORSDOF 5
ENDMDL
MODEL 9
REMARK VINA RESULT:      -7.3      3.766      8.802
REMARK  Name = 
REMARK  5 active torsions:
REMARK  status: ('A' for Active; 'I' for Inactive)
REMARK    1  A    between atoms: O_1  and  C_2
REMARK    2  A    between atoms: C_2  and  C_3
REMARK    3  A    between atoms: C_3  and  N_4
REMARK    4  A    between atoms: C_7  and  C_8
REMARK    5  A    between atoms: C_9  and  C_10
REMARK                            x       y       z     vdW  Elec       q    Type
REMARK                         _______ _______ _______ _____ _____    ______ ____
ROOT
ATOM      1  C   UNL     1       8.639   8.792  18.554  0.00  0.00    +0.000 C 
ATOM      2  C   UNL     1       8.820  10.083  18.072  0.00  0.00    +0.000 C 
ENDROOT
BRANCH   2   3
ATOM      3  C   UNL     1       9.637  11.233  18.785  0.00  0.00    +0.000 A 
ATOM      4  C   UNL     1       9.539  11.116  20.175  0.00  0.00    +0.000 A 
ATOM      5  C   UNL     1      10.336  11.871  21.002  0.00  0.00    +0.000 A 
ATOM      6  C   UNL     1      10.312  13.196  20.670  0.00  0.00    +0.000 A 
ATOM      7  C   UNL     1      10.492  13.511  19.341  0.00  0.00    +0.000 A 
ATOM      8  C   UNL     1      10.906  14.844  19.132  0.00  0.00    +0.000 A 
ATOM      9  C   UNL     1      11.451  15.244  17.937  0.00  0.00    +0.000 A 
ATOM     10  C   UNL     1      11.552  14.291  16.936  0.00  0.00    +0.000 A 
ATOM     11  C   UNL     1      10.983  12.978  17.092  0.00  0.00    +0.000 A 
ATOM     12  C   UNL     1      10.358  12.496  18.319  0.00  0.00    +0.000 A 
ENDBRANCH   2   3
BRANCH   1  16
ATOM     13  N   UNL     1       6.218   5.300  17.356  0.00  0.00    +0.000 N 
ATOM     14  C   UNL     1       7.186   5.204  18.308  0.00  0.00    +0.000 A 
ATOM     15  C   UNL     1       7.964   6.304  18.695  0.00  0.00    +0.000 A 
ATOM     16  C   UNL     1       7.816   7.566  18.142  0.00  0.00    +0.000 A 
ATOM     17  C   UNL     1       6.778   7.635  17.157  0.00  0.00    +0.000 A 
ATOM     18  C   UNL     1       5.996   6.499  16.779  0.00  0.00    +0.000 A 
BRANCH  13  19
ATOM     19  C   UNL     1       5.461   4.051  16.910  0.00  0.00    +0.000 C 
BRANCH  19  20
ATOM     20  C   UNL     1       5.229   4.039  15.396  0.00  0.00    +0.000 C 
BRANCH  20  21
ATOM     21  O   UNL     1       6.345   3.466  14.718  0.00  0.00    +0.000 OA
ATOM     22  H   UNL     1       5.957   2.928  13.986  0.00  0.00    +0.000 HD
ENDBRANCH  20  21
ENDBRANCH  19  20
ENDBRANCH  13  19
ENDBRANCH   1  16
TORSDOF 5
ENDMDL
