MODEL 1
REMARK VINA RESULT:      -7.9      0.000      0.000
REMARK  Name = 
REMARK  12 active torsions:
REMARK  status: ('A' for Active; 'I' for Inactive)
REMARK    1  A    between atoms: C_1  and  C_2
REMARK    2  A    between atoms: C_2  and  C_3
REMARK    3  A    between atoms: C_2  and  C_4
REMARK    4  A    between atoms: C_2  and  N_14
REMARK    5  A    between atoms: C_4  and  C_5
REMARK    6  A    between atoms: N_14  and  C_15
REMARK    7  A    between atoms: C_15  and  C_16
REMARK    8  A    between atoms: C_16  and  O_17
REMARK    9  A    between atoms: C_16  and  C_18
REMARK   10  A    between atoms: C_18  and  O_19
REMARK   11  A    between atoms: O_19  and  C_20
REMARK   12  A    between atoms: C_25  and  C_26
REMARK                            x       y       z     vdW  Elec       q    Type
REMARK                         _______ _______ _______ _____ _____    ______ ____
ROOT
ATOM      1  C   UNL     1       2.586   7.391  18.183  0.00  0.00    +0.000 C 
ENDROOT
BRANCH   1   2
ATOM      2  N   UNL     1       2.919   6.615  19.390  0.00  0.00    +0.000 NA
ATOM      3  H   UNL     1       3.908   6.737  19.613  0.00  0.00    +0.000 HD
BRANCH   2   5
ATOM      4  C   UNL     1       1.798   4.893  18.037  0.00  0.00    +0.000 C 
ATOM      5  C   UNL     1       2.561   5.165  19.356  0.00  0.00    +0.000 C 
ATOM      6  C   UNL     1       1.570   4.844  20.500  0.00  0.00    +0.000 C 
BRANCH   5   7
ATOM      7  C   UNL     1       3.781   4.174  19.446  0.00  0.00    +0.000 C 
BRANCH   7   8
ATOM      8  C   UNL     1       5.057   4.650  18.794  0.00  0.00    +0.000 A 
ATOM      9  C   UNL     1       6.102   5.297  19.426  0.00  0.00    +0.000 A 
ATOM     10  N   UNL     1       7.023   5.665  18.488  0.00  0.00    +0.000 N 
ATOM     11  C   UNL     1       6.619   5.260  17.240  0.00  0.00    +0.000 A 
ATOM     12  C   UNL     1       7.216   5.474  15.991  0.00  0.00    +0.000 A 
ATOM     13  C   UNL     1       6.583   4.933  14.870  0.00  0.00    +0.000 A 
ATOM     14  C   UNL     1       5.422   4.179  15.001  0.00  0.00    +0.000 A 
ATOM     15  C   UNL     1       4.834   3.980  16.259  0.00  0.00    +0.000 A 
ATOM     16  C   UNL     1       5.421   4.560  17.405  0.00  0.00    +0.000 A 
ATOM     17  H   UNL     1       7.866   6.189  18.677  0.00  0.00    +0.000 HD
ENDBRANCH   7   8
ENDBRANCH   5   7
ENDBRANCH   2   5
ENDBRANCH   1   2
BRANCH   1  18
ATOM     18  C   UNL     1       2.297   8.911  18.428  0.00  0.00    +0.000 C 
BRANCH  18  19
ATOM     19  O   UNL     1       2.067   9.576  17.179  0.00  0.00    +0.000 OA
ATOM     20  H   UNL     1       2.749   9.292  16.549  0.00  0.00    +0.000 HD
ENDBRANCH  18  19
BRANCH  18  21
ATOM     21  C   UNL     1       1.074   9.018  19.392  0.00  0.00    +0.000 C 
BRANCH  21  22
ATOM     22  O   UNL     1       0.608  10.341  19.637  0.00  0.00    +0.000 OA
BRANCH  22  23
ATOM     23  C   UNL     1      -0.673  10.715  19.252  0.00  0.00    +0.000 A 
ATOM     24  C   UNL     1      -1.120   9.983  18.124  0.00  0.00    +0.000 A 
ATOM     25  C   UNL     1      -2.339  10.216  17.493  0.00  0.00    +0.000 A 
ATOM     26  C   UNL     1      -3.173  11.207  17.974  0.00  0.00    +0.000 A 
ATOM     27  C   UNL     1      -2.750  11.938  19.079  0.00  0.00    +0.000 A 
ATOM     28  C   UNL     1      -1.503  11.749  19.748  0.00  0.00    +0.000 A 
BRANCH  28  29
ATOM     29  C   UNL     1      -1.195  12.732  20.883  0.00  0.00    +0.000 C 
ATOM     30  C   UNL     1      -2.380  13.597  21.355  0.00  0.00    +0.000 C 
ATOM     31  C   UNL     1      -3.361  12.920  22.307  0.00  0.00    +0.000 C 
ATOM     32  C   UNL     1      -2.723  12.026  23.374  0.00  0.00    +0.000 C 
ATOM     33  C   UNL     1      -1.453  11.268  22.971  0.00  0.00    +0.000 C 
ATOM     34  C   UNL     1      -0.511  12.096  22.105  0.00  0.00    +0.000 C 
ENDBRANCH  28  29
ENDBRANCH  22  23
ENDBRANCH  21  22
ENDBRANCH  18  21
ENDBRANCH   1  18
TORSDOF 10
ENDMDL
MODEL 2
REMARK VINA RESULT:      -7.8      1.826      4.710
REMARK  Name = 
REMARK  12 active torsions:
REMARK  status: ('A' for Active; 'I' for Inactive)
REMARK    1  A    between atoms: C_1  and  C_2
REMARK    2  A    between atoms: C_2  and  C_3
REMARK    3  A    between atoms: C_2  and  C_4
REMARK    4  A    between atoms: C_2  and  N_14
REMARK    5  A    between atoms: C_4  and  C_5
REMARK    6  A    between atoms: N_14  and  C_15
REMARK    7  A    between atoms: C_15  and  C_16
REMARK    8  A    between atoms: C_16  and  O_17
REMARK    9  A    between atoms: C_16  and  C_18
REMARK   10  A    between atoms: C_18  and  O_19
REMARK   11  A    between atoms: O_19  and  C_20
REMARK   12  A    between atoms: C_25  and  C_26
REMARK                            x       y       z     vdW  Elec       q    Type
REMARK                         _______ _______ _______ _____ _____    ______ ____
ROOT
ATOM      1  C   UNL     1       3.828   7.119  17.508  0.00  0.00    +0.000 C 
ENDROOT
BRANCH   1   2
ATOM      2  N   UNL     1       4.873   6.555  18.377  0.00  0.00    +0.000 NA
ATOM      3  H   UNL     1       5.410   7.312  18.802  0.00  0.00    +0.000 HD
BRANCH   2   5
ATOM      4  C   UNL     1       7.213   5.797  18.288  0.00  0.00    +0.000 C 
ATOM      5  C   UNL     1       5.784   5.555  17.741  0.00  0.00    +0.000 C 
ATOM      6  C   UNL     1       5.859   5.809  16.217  0.00  0.00    +0.000 C 
BRANCH   5   7
ATOM      7  C   UNL     1       5.400   4.049  17.988  0.00  0.00    +0.000 C 
BRANCH   7   8
ATOM      8  C   UNL     1       3.921   3.763  18.095  0.00  0.00    +0.000 A 
ATOM      9  C   UNL     1       2.995   3.862  17.073  0.00  0.00    +0.000 A 
ATOM     10  N   UNL     1       1.750   3.632  17.583  0.00  0.00    +0.000 N 
ATOM     11  C   UNL     1       1.829   3.365  18.927  0.00  0.00    +0.000 A 
ATOM     12  C   UNL     1       0.807   3.132  19.855  0.00  0.00    +0.000 A 
ATOM     13  C   UNL     1       1.178   2.873  21.176  0.00  0.00    +0.000 A 
ATOM     14  C   UNL     1       2.520   2.812  21.541  0.00  0.00    +0.000 A 
ATOM     15  C   UNL     1       3.531   3.053  20.599  0.00  0.00    +0.000 A 
ATOM     16  C   UNL     1       3.184   3.371  19.267  0.00  0.00    +0.000 A 
ATOM     17  H   UNL     1       0.889   3.684  17.057  0.00  0.00    +0.000 HD
ENDBRANCH   7   8
ENDBRANCH   5   7
ENDBRANCH   2   5
ENDBRANCH   1   2
BRANCH   1  18
ATOM     18  C   UNL     1       2.443   7.359  18.202  0.00  0.00    +0.000 C 
BRANCH  18  19
ATOM     19  O   UNL     1       2.479   6.880  19.552  0.00  0.00    +0.000 OA
ATOM     20  H   UNL     1       2.420   5.910  19.537  0.00  0.00    +0.000 HD
ENDBRANCH  18  19
BRANCH  18  21
ATOM     21  C   UNL     1       2.123   8.884  18.119  0.00  0.00    +0.000 C 
BRANCH  21  22
ATOM     22  O   UNL     1       0.806   9.205  17.683  0.00  0.00    +0.000 OA
BRANCH  22  23
ATOM     23  C   UNL     1       0.073  10.191  18.332  0.00  0.00    +0.000 A 
ATOM     24  C   UNL     1       0.890  10.992  19.167  0.00  0.00    +0.000 A 
ATOM     25  C   UNL     1       0.391  12.003  19.985  0.00  0.00    +0.000 A 
ATOM     26  C   UNL     1      -0.966  12.256  19.998  0.00  0.00    +0.000 A 
ATOM     27  C   UNL     1      -1.785  11.479  19.186  0.00  0.00    +0.000 A 
ATOM     28  C   UNL     1      -1.323  10.420  18.346  0.00  0.00    +0.000 A 
BRANCH  28  29
ATOM     29  C   UNL     1      -2.410   9.626  17.611  0.00  0.00    +0.000 C 
ATOM     30  C   UNL     1      -3.846   9.821  18.132  0.00  0.00    +0.000 C 
ATOM     31  C   UNL     1      -4.559  11.087  17.665  0.00  0.00    +0.000 C 
ATOM     32  C   UNL     1      -4.327  11.461  16.199  0.00  0.00    +0.000 C 
ATOM     33  C   UNL     1      -2.948  11.140  15.613  0.00  0.00    +0.000 C 
ATOM     34  C   UNL     1      -2.396   9.798  16.082  0.00  0.00    +0.000 C 
ENDBRANCH  28  29
ENDBRANCH  22  23
ENDBRANCH  21  22
ENDBRANCH  18  21
ENDBRANCH   1  18
TORSDOF 10
ENDMDL
MODEL 3
REMARK VINA RESULT:      -7.7      1.565      3.227
REMARK  Name = 
REMARK  12 active torsions:
REMARK  status: ('A' for Active; 'I' for Inactive)
REMARK    1  A    between atoms: C_1  and  C_2
REMARK    2  A    between atoms: C_2  and  C_3
REMARK    3  A    between atoms: C_2  and  C_4
REMARK    4  A    between atoms: C_2  and  N_14
REMARK    5  A    between atoms: C_4  and  C_5
REMARK    6  A    between atoms: N_14  and  C_15
REMARK    7  A    between atoms: C_15  and  C_16
REMARK    8  A    between atoms: C_16  and  O_17
REMARK    9  A    between atoms: C_16  and  C_18
REMARK   10  A    between atoms: C_18  and  O_19
REMARK   11  A    between atoms: O_19  and  C_20
REMARK   12  A    between atoms: C_25  and  C_26
REMARK                            x       y       z     vdW  Elec       q    Type
REMARK                         _______ _______ _______ _____ _____    ______ ____
ROOT
ATOM      1  C   UNL     1       2.039   5.578  19.048  0.00  0.00    +0.000 C 
ENDROOT
BRANCH   1   2
ATOM      2  N   UNL     1       2.012   4.860  20.333  0.00  0.00    +0.000 NA
ATOM      3  H   UNL     1       2.722   5.248  20.956  0.00  0.00    +0.000 HD
BRANCH   2   5
ATOM      4  C   UNL     1       1.224   2.879  19.104  0.00  0.00    +0.000 C 
ATOM      5  C   UNL     1       2.135   3.373  20.256  0.00  0.00    +0.000 C 
ATOM      6  C   UNL     1       1.576   2.734  21.550  0.00  0.00    +0.000 C 
BRANCH   5   7
ATOM      7  C   UNL     1       3.593   2.835  20.010  0.00  0.00    +0.000 C 
BRANCH   7   8
ATOM      8  C   UNL     1       4.252   3.297  18.732  0.00  0.00    +0.000 A 
ATOM      9  C   UNL     1       3.969   2.840  17.458  0.00  0.00    +0.000 A 
ATOM     10  N   UNL     1       4.846   3.412  16.581  0.00  0.00    +0.000 N 
ATOM     11  C   UNL     1       5.700   4.256  17.246  0.00  0.00    +0.000 A 
ATOM     12  C   UNL     1       6.783   4.999  16.760  0.00  0.00    +0.000 A 
ATOM     13  C   UNL     1       7.483   5.794  17.670  0.00  0.00    +0.000 A 
ATOM     14  C   UNL     1       7.088   5.870  19.002  0.00  0.00    +0.000 A 
ATOM     15  C   UNL     1       6.004   5.114  19.473  0.00  0.00    +0.000 A 
ATOM     16  C   UNL     1       5.310   4.260  18.588  0.00  0.00    +0.000 A 
ATOM     17  H   UNL     1       4.884   3.218  15.591  0.00  0.00    +0.000 HD
ENDBRANCH   7   8
ENDBRANCH   5   7
ENDBRANCH   2   5
ENDBRANCH   1   2
BRANCH   1  18
ATOM     18  C   UNL     1       2.557   7.056  19.120  0.00  0.00    +0.000 C 
BRANCH  18  19
ATOM     19  O   UNL     1       2.380   7.703  17.854  0.00  0.00    +0.000 OA
ATOM     20  H   UNL     1       2.115   8.624  18.012  0.00  0.00    +0.000 HD
ENDBRANCH  18  19
BRANCH  18  21
ATOM     21  C   UNL     1       1.787   7.777  20.270  0.00  0.00    +0.000 C 
BRANCH  21  22
ATOM     22  O   UNL     1       1.240   9.047  19.931  0.00  0.00    +0.000 OA
BRANCH  22  23
ATOM     23  C   UNL     1       0.487   9.757  20.858  0.00  0.00    +0.000 A 
ATOM     24  C   UNL     1       0.499   9.138  22.132  0.00  0.00    +0.000 A 
ATOM     25  C   UNL     1      -0.236   9.606  23.218  0.00  0.00    +0.000 A 
ATOM     26  C   UNL     1      -1.024  10.731  23.069  0.00  0.00    +0.000 A 
ATOM     27  C   UNL     1      -1.050  11.351  21.825  0.00  0.00    +0.000 A 
ATOM     28  C   UNL     1      -0.330  10.898  20.678  0.00  0.00    +0.000 A 
BRANCH  28  29
ATOM     29  C   UNL     1      -0.582  11.673  19.379  0.00  0.00    +0.000 C 
ATOM     30  C   UNL     1      -0.933  10.815  18.148  0.00  0.00    +0.000 C 
ATOM     31  C   UNL     1      -2.380  10.339  18.058  0.00  0.00    +0.000 C 
ATOM     32  C   UNL     1      -3.432  11.371  18.472  0.00  0.00    +0.000 C 
ATOM     33  C   UNL     1      -3.049  12.336  19.599  0.00  0.00    +0.000 C 
ATOM     34  C   UNL     1      -1.604  12.816  19.511  0.00  0.00    +0.000 C 
ENDBRANCH  28  29
ENDBRANCH  22  23
ENDBRANCH  21  22
ENDBRANCH  18  21
ENDBRANCH   1  18
TORSDOF 10
ENDMDL
MODEL 4
REMARK VINA RESULT:      -7.7      1.344      2.944
REMARK  Name = 
REMARK  12 active torsions:
REMARK  status: ('A' for Active; 'I' for Inactive)
REMARK    1  A    between atoms: C_1  and  C_2
REMARK    2  A    between atoms: C_2  and  C_3
REMARK    3  A    between atoms: C_2  and  C_4
REMARK    4  A    between atoms: C_2  and  N_14
REMARK    5  A    between atoms: C_4  and  C_5
REMARK    6  A    between atoms: N_14  and  C_15
REMARK    7  A    between atoms: C_15  and  C_16
REMARK    8  A    between atoms: C_16  and  O_17
REMARK    9  A    between atoms: C_16  and  C_18
REMARK   10  A    between atoms: C_18  and  O_19
REMARK   11  A    between atoms: O_19  and  C_20
REMARK   12  A    between atoms: C_25  and  C_26
REMARK                            x       y       z     vdW  Elec       q    Type
REMARK                         _______ _______ _______ _____ _____    ______ ____
ROOT
ATOM      1  C   UNL     1       2.005   5.508  19.756  0.00  0.00    +0.000 C 
ENDROOT
BRANCH   1   2
ATOM      2  N   UNL     1       2.310   4.633  18.612  0.00  0.00    +0.000 NA
ATOM      3  H   UNL     1       1.522   4.631  17.963  0.00  0.00    +0.000 HD
BRANCH   2   5
ATOM      4  C   UNL     1       2.334   2.326  17.755  0.00  0.00    +0.000 C 
ATOM      5  C   UNL     1       2.719   3.235  18.948  0.00  0.00    +0.000 C 
ATOM      6  C   UNL     1       1.900   2.726  20.158  0.00  0.00    +0.000 C 
BRANCH   5   7
ATOM      7  C   UNL     1       4.251   3.043  19.252  0.00  0.00    +0.000 C 
BRANCH   7   8
ATOM      8  C   UNL     1       5.169   4.088  18.665  0.00  0.00    +0.000 A 
ATOM      9  C   UNL     1       5.759   5.133  19.352  0.00  0.00    +0.000 A 
ATOM     10  N   UNL     1       6.426   5.924  18.461  0.00  0.00    +0.000 N 
ATOM     11  C   UNL     1       6.305   5.417  17.191  0.00  0.00    +0.000 A 
ATOM     12  C   UNL     1       6.771   5.928  15.974  0.00  0.00    +0.000 A 
ATOM     13  C   UNL     1       6.510   5.189  14.818  0.00  0.00    +0.000 A 
ATOM     14  C   UNL     1       5.844   3.970  14.887  0.00  0.00    +0.000 A 
ATOM     15  C   UNL     1       5.378   3.475  16.114  0.00  0.00    +0.000 A 
ATOM     16  C   UNL     1       5.580   4.227  17.293  0.00  0.00    +0.000 A 
ATOM     17  H   UNL     1       6.910   6.779  18.694  0.00  0.00    +0.000 HD
ENDBRANCH   7   8
ENDBRANCH   5   7
ENDBRANCH   2   5
ENDBRANCH   1   2
BRANCH   1  18
ATOM     18  C   UNL     1       2.457   7.000  19.591  0.00  0.00    +0.000 C 
BRANCH  18  19
ATOM     19  O   UNL     1       2.206   7.446  18.253  0.00  0.00    +0.000 OA
ATOM     20  H   UNL     1       1.800   6.717  17.756  0.00  0.00    +0.000 HD
ENDBRANCH  18  19
BRANCH  18  21
ATOM     21  C   UNL     1       1.697   7.851  20.656  0.00  0.00    +0.000 C 
BRANCH  21  22
ATOM     22  O   UNL     1       0.642   8.659  20.145  0.00  0.00    +0.000 OA
BRANCH  22  23
ATOM     23  C   UNL     1       0.052   9.630  20.945  0.00  0.00    +0.000 A 
ATOM     24  C   UNL     1      -0.044   9.213  22.296  0.00  0.00    +0.000 A 
ATOM     25  C   UNL     1      -0.662   9.969  23.288  0.00  0.00    +0.000 A 
ATOM     26  C   UNL     1      -1.216  11.192  22.964  0.00  0.00    +0.000 A 
ATOM     27  C   UNL     1      -1.133  11.617  21.642  0.00  0.00    +0.000 A 
ATOM     28  C   UNL     1      -0.528  10.870  20.586  0.00  0.00    +0.000 A 
BRANCH  28  29
ATOM     29  C   UNL     1      -0.637  11.481  19.185  0.00  0.00    +0.000 C 
ATOM     30  C   UNL     1      -0.776  10.474  18.027  0.00  0.00    +0.000 C 
ATOM     31  C   UNL     1      -2.172   9.901  17.806  0.00  0.00    +0.000 C 
ATOM     32  C   UNL     1      -3.319  10.905  17.955  0.00  0.00    +0.000 C 
ATOM     33  C   UNL     1      -3.139  12.009  19.002  0.00  0.00    +0.000 C 
ATOM     34  C   UNL     1      -1.720  12.565  19.048  0.00  0.00    +0.000 C 
ENDBRANCH  28  29
ENDBRANCH  22  23
ENDBRANCH  21  22
ENDBRANCH  18  21
ENDBRANCH   1  18
TORSDOF 10
ENDMDL
MODEL 5
REMARK VINA RESULT:      -7.7      1.064      1.388
REMARK  Name = 
REMARK  12 active torsions:
REMARK  status: ('A' for Active; 'I' for Inactive)
REMARK    1  A    between atoms: C_1  and  C_2
REMARK    2  A    between atoms: C_2  and  C_3
REMARK    3  A    between atoms: C_2  and  C_4
REMARK    4  A    between atoms: C_2  and  N_14
REMARK    5  A    between atoms: C_4  and  C_5
REMARK    6  A    between atoms: N_14  and  C_15
REMARK    7  A    between atoms: C_15  and  C_16
REMARK    8  A    between atoms: C_16  and  O_17
REMARK    9  A    between atoms: C_16  and  C_18
REMARK   10  A    between atoms: C_18  and  O_19
REMARK   11  A    between atoms: O_19  and  C_20
REMARK   12  A    between atoms: C_25  and  C_26
REMARK                            x       y       z     vdW  Elec       q    Type
REMARK                         _______ _______ _______ _____ _____    ______ ____
ROOT
ATOM      1  C   UNL     1       2.242   7.129  19.153  0.00  0.00    +0.000 C 
ENDROOT
BRANCH   1   2
ATOM      2  N   UNL     1       2.565   5.895  18.416  0.00  0.00    +0.000 NA
ATOM      3  H   UNL     1       2.002   5.848  17.566  0.00  0.00    +0.000 HD
BRANCH   2   5
ATOM      4  C   UNL     1       1.351   3.758  18.537  0.00  0.00    +0.000 C 
ATOM      5  C   UNL     1       2.457   4.622  19.191  0.00  0.00    +0.000 C 
ATOM      6  C   UNL     1       1.973   4.924  20.629  0.00  0.00    +0.000 C 
BRANCH   5   7
ATOM      7  C   UNL     1       3.780   3.773  19.267  0.00  0.00    +0.000 C 
BRANCH   7   8
ATOM      8  C   UNL     1       5.013   4.434  18.698  0.00  0.00    +0.000 A 
ATOM      9  C   UNL     1       5.900   5.237  19.390  0.00  0.00    +0.000 A 
ATOM     10  N   UNL     1       6.819   5.735  18.513  0.00  0.00    +0.000 N 
ATOM     11  C   UNL     1       6.572   5.265  17.247  0.00  0.00    +0.000 A 
ATOM     12  C   UNL     1       7.219   5.558  16.040  0.00  0.00    +0.000 A 
ATOM     13  C   UNL     1       6.758   4.919  14.887  0.00  0.00    +0.000 A 
ATOM     14  C   UNL     1       5.718   3.997  14.949  0.00  0.00    +0.000 A 
ATOM     15  C   UNL     1       5.077   3.720  16.166  0.00  0.00    +0.000 A 
ATOM     16  C   UNL     1       5.486   4.391  17.341  0.00  0.00    +0.000 A 
ATOM     17  H   UNL     1       7.557   6.383  18.751  0.00  0.00    +0.000 HD
ENDBRANCH   7   8
ENDBRANCH   5   7
ENDBRANCH   2   5
ENDBRANCH   1   2
BRANCH   1  18
ATOM     18  C   UNL     1       2.355   8.451  18.319  0.00  0.00    +0.000 C 
BRANCH  18  19
ATOM     19  O   UNL     1       3.117   8.219  17.128  0.00  0.00    +0.000 OA
ATOM     20  H   UNL     1       3.955   7.795  17.376  0.00  0.00    +0.000 HD
ENDBRANCH  18  19
BRANCH  18  21
ATOM     21  C   UNL     1       0.908   8.950  18.013  0.00  0.00    +0.000 C 
BRANCH  21  22
ATOM     22  O   UNL     1       0.706  10.352  18.158  0.00  0.00    +0.000 OA
BRANCH  22  23
ATOM     23  C   UNL     1      -0.521  10.842  18.587  0.00  0.00    +0.000 A 
ATOM     24  C   UNL     1      -1.496  10.795  17.561  0.00  0.00    +0.000 A 
ATOM     25  C   UNL     1      -2.788  11.294  17.708  0.00  0.00    +0.000 A 
ATOM     26  C   UNL     1      -3.160  11.869  18.907  0.00  0.00    +0.000 A 
ATOM     27  C   UNL     1      -2.215  11.926  19.926  0.00  0.00    +0.000 A 
ATOM     28  C   UNL     1      -0.875  11.446  19.817  0.00  0.00    +0.000 A 
BRANCH  28  29
ATOM     29  C   UNL     1       0.029  11.700  21.029  0.00  0.00    +0.000 C 
ATOM     30  C   UNL     1      -0.695  12.110  22.327  0.00  0.00    +0.000 C 
ATOM     31  C   UNL     1      -1.324  10.973  23.126  0.00  0.00    +0.000 C 
ATOM     32  C   UNL     1      -0.487   9.693  23.207  0.00  0.00    +0.000 C 
ATOM     33  C   UNL     1       0.360   9.342  21.979  0.00  0.00    +0.000 C 
ATOM     34  C   UNL     1       1.015  10.560  21.336  0.00  0.00    +0.000 C 
ENDBRANCH  28  29
ENDBRANCH  22  23
ENDBRANCH  21  22
ENDBRANCH  18  21
ENDBRANCH   1  18
TORSDOF 10
ENDMDL
MODEL 6
REMARK VINA RESULT:      -7.7      2.206      9.989
REMARK  Name = 
REMARK  12 active torsions:
REMARK  status: ('A' for Active; 'I' for Inactive)
REMARK    1  A    between atoms: C_1  and  C_2
REMARK    2  A    between atoms: C_2  and  C_3
REMARK    3  A    between atoms: C_2  and  C_4
REMARK    4  A    between atoms: C_2  and  N_14
REMARK    5  A    between atoms: C_4  and  C_5
REMARK    6  A    between atoms: N_14  and  C_15
REMARK    7  A    between atoms: C_15  and  C_16
REMARK    8  A    between atoms: C_16  and  O_17
REMARK    9  A    between atoms: C_16  and  C_18
REMARK   10  A    between atoms: C_18  and  O_19
REMARK   11  A    between atoms: O_19  and  C_20
REMARK   12  A    between atoms: C_25  and  C_26
REMARK                            x       y       z     vdW  Elec       q    Type
REMARK                         _______ _______ _______ _____ _____    ______ ____
ROOT
ATOM      1  C   UNL     1       1.211   9.396  19.623  0.00  0.00    +0.000 C 
ENDROOT
BRANCH   1   2
ATOM      2  N   UNL     1      -0.110   9.931  19.991  0.00  0.00    +0.000 NA
ATOM      3  H   UNL     1      -0.808   9.614  19.317  0.00  0.00    +0.000 HD
BRANCH   2   5
ATOM      4  C   UNL     1       1.247  11.940  20.415  0.00  0.00    +0.000 C 
ATOM      5  C   UNL     1      -0.189  11.412  20.175  0.00  0.00    +0.000 C 
ATOM      6  C   UNL     1      -0.986  11.738  21.461  0.00  0.00    +0.000 C 
BRANCH   5   7
ATOM      7  C   UNL     1      -0.821  12.202  18.970  0.00  0.00    +0.000 C 
BRANCH   7   8
ATOM      8  C   UNL     1      -2.040  11.569  18.343  0.00  0.00    +0.000 A 
ATOM      9  C   UNL     1      -2.047  10.719  17.252  0.00  0.00    +0.000 A 
ATOM     10  N   UNL     1      -3.341  10.446  16.915  0.00  0.00    +0.000 N 
ATOM     11  C   UNL     1      -4.201  11.087  17.772  0.00  0.00    +0.000 A 
ATOM     12  C   UNL     1      -5.600  11.139  17.765  0.00  0.00    +0.000 A 
ATOM     13  C   UNL     1      -6.226  11.869  18.777  0.00  0.00    +0.000 A 
ATOM     14  C   UNL     1      -5.481  12.488  19.775  0.00  0.00    +0.000 A 
ATOM     15  C   UNL     1      -4.079  12.431  19.764  0.00  0.00    +0.000 A 
ATOM     16  C   UNL     1      -3.416  11.746  18.722  0.00  0.00    +0.000 A 
ATOM     17  H   UNL     1      -3.629   9.882  16.128  0.00  0.00    +0.000 HD
ENDBRANCH   7   8
ENDBRANCH   5   7
ENDBRANCH   2   5
ENDBRANCH   1   2
BRANCH   1  18
ATOM     18  C   UNL     1       1.389   9.048  18.105  0.00  0.00    +0.000 C 
BRANCH  18  19
ATOM     19  O   UNL     1       1.758  10.222  17.370  0.00  0.00    +0.000 OA
ATOM     20  H   UNL     1       1.685  10.027  16.422  0.00  0.00    +0.000 HD
ENDBRANCH  18  19
BRANCH  18  21
ATOM     21  C   UNL     1       2.458   7.916  17.995  0.00  0.00    +0.000 C 
BRANCH  21  22
ATOM     22  O   UNL     1       2.740   7.228  19.209  0.00  0.00    +0.000 OA
BRANCH  22  23
ATOM     23  C   UNL     1       3.260   5.940  19.180  0.00  0.00    +0.000 A 
ATOM     24  C   UNL     1       2.509   5.050  19.987  0.00  0.00    +0.000 A 
ATOM     25  C   UNL     1       2.861   3.718  20.190  0.00  0.00    +0.000 A 
ATOM     26  C   UNL     1       3.996   3.216  19.584  0.00  0.00    +0.000 A 
ATOM     27  C   UNL     1       4.747   4.076  18.789  0.00  0.00    +0.000 A 
ATOM     28  C   UNL     1       4.438   5.452  18.566  0.00  0.00    +0.000 A 
BRANCH  28  29
ATOM     29  C   UNL     1       5.458   6.242  17.737  0.00  0.00    +0.000 C 
ATOM     30  C   UNL     1       6.934   5.857  17.952  0.00  0.00    +0.000 C 
ATOM     31  C   UNL     1       7.411   4.609  17.216  0.00  0.00    +0.000 C 
ATOM     32  C   UNL     1       6.886   4.456  15.786  0.00  0.00    +0.000 C 
ATOM     33  C   UNL     1       5.468   4.969  15.511  0.00  0.00    +0.000 C 
ATOM     34  C   UNL     1       5.156   6.278  16.229  0.00  0.00    +0.000 C 
ENDBRANCH  28  29
ENDBRANCH  22  23
ENDBRANCH  21  22
ENDBRANCH  18  21
ENDBRANCH   1  18
TORSDOF 10
ENDMDL
MODEL 7
REMARK VINA RESULT:      -7.6      1.847      4.503
REMARK  Name = 
REMARK  12 active torsions:
REMARK  status: ('A' for Active; 'I' for Inactive)
REMARK    1  A    between atoms: C_1  and  C_2
REMARK    2  A    between atoms: C_2  and  C_3
REMARK    3  A    between atoms: C_2  and  C_4
REMARK    4  A    between atoms: C_2  and  N_14
REMARK    5  A    between atoms: C_4  and  C_5
REMARK    6  A    between atoms: N_14  and  C_15
REMARK    7  A    between atoms: C_15  and  C_16
REMARK    8  A    between atoms: C_16  and  O_17
REMARK    9  A    between atoms: C_16  and  C_18
REMARK   10  A    between atoms: C_18  and  O_19
REMARK   11  A    between atoms: O_19  and  C_20
REMARK   12  A    between atoms: C_25  and  C_26
REMARK                            x       y       z     vdW  Elec       q    Type
REMARK                         _______ _______ _______ _____ _____    ______ ____
ROOT
ATOM      1  C   UNL     1       3.949   7.415  17.294  0.00  0.00    +0.000 C 
ENDROOT
BRANCH   1   2
ATOM      2  N   UNL     1       4.953   6.466  17.801  0.00  0.00    +0.000 NA
ATOM      3  H   UNL     1       5.695   6.977  18.282  0.00  0.00    +0.000 HD
BRANCH   2   5
ATOM      4  C   UNL     1       7.058   5.444  17.036  0.00  0.00    +0.000 C 
ATOM      5  C   UNL     1       5.530   5.522  16.796  0.00  0.00    +0.000 C 
ATOM      6  C   UNL     1       5.347   6.099  15.371  0.00  0.00    +0.000 C 
BRANCH   5   7
ATOM      7  C   UNL     1       4.940   4.064  16.834  0.00  0.00    +0.000 C 
BRANCH   7   8
ATOM      8  C   UNL     1       4.380   3.621  18.165  0.00  0.00    +0.000 A 
ATOM      9  C   UNL     1       5.116   3.255  19.276  0.00  0.00    +0.000 A 
ATOM     10  N   UNL     1       4.259   2.813  20.244  0.00  0.00    +0.000 N 
ATOM     11  C   UNL     1       2.962   2.893  19.803  0.00  0.00    +0.000 A 
ATOM     12  C   UNL     1       1.776   2.496  20.433  0.00  0.00    +0.000 A 
ATOM     13  C   UNL     1       0.577   2.706  19.748  0.00  0.00    +0.000 A 
ATOM     14  C   UNL     1       0.567   3.324  18.501  0.00  0.00    +0.000 A 
ATOM     15  C   UNL     1       1.765   3.709  17.882  0.00  0.00    +0.000 A 
ATOM     16  C   UNL     1       2.998   3.460  18.527  0.00  0.00    +0.000 A 
ATOM     17  H   UNL     1       4.540   2.447  21.143  0.00  0.00    +0.000 HD
ENDBRANCH   7   8
ENDBRANCH   5   7
ENDBRANCH   2   5
ENDBRANCH   1   2
BRANCH   1  18
ATOM     18  C   UNL     1       2.599   7.444  18.090  0.00  0.00    +0.000 C 
BRANCH  18  19
ATOM     19  O   UNL     1       2.770   6.830  19.373  0.00  0.00    +0.000 OA
ATOM     20  H   UNL     1       3.644   6.407  19.398  0.00  0.00    +0.000 HD
ENDBRANCH  18  19
BRANCH  18  21
ATOM     21  C   UNL     1       2.138   8.931  18.197  0.00  0.00    +0.000 C 
BRANCH  21  22
ATOM     22  O   UNL     1       0.799   9.183  17.782  0.00  0.00    +0.000 OA
BRANCH  22  23
ATOM     23  C   UNL     1       0.064  10.206  18.368  0.00  0.00    +0.000 A 
ATOM     24  C   UNL     1       0.872  11.034  19.187  0.00  0.00    +0.000 A 
ATOM     25  C   UNL     1       0.367  12.087  19.945  0.00  0.00    +0.000 A 
ATOM     26  C   UNL     1      -0.987  12.358  19.913  0.00  0.00    +0.000 A 
ATOM     27  C   UNL     1      -1.796  11.555  19.116  0.00  0.00    +0.000 A 
ATOM     28  C   UNL     1      -1.329  10.454  18.336  0.00  0.00    +0.000 A 
BRANCH  28  29
ATOM     29  C   UNL     1      -2.408   9.641  17.611  0.00  0.00    +0.000 C 
ATOM     30  C   UNL     1      -3.845   9.822  18.135  0.00  0.00    +0.000 C 
ATOM     31  C   UNL     1      -4.574  11.076  17.662  0.00  0.00    +0.000 C 
ATOM     32  C   UNL     1      -4.352  11.443  16.192  0.00  0.00    +0.000 C 
ATOM     33  C   UNL     1      -2.971  11.134  15.604  0.00  0.00    +0.000 C 
ATOM     34  C   UNL     1      -2.401   9.803  16.081  0.00  0.00    +0.000 C 
ENDBRANCH  28  29
ENDBRANCH  22  23
ENDBRANCH  21  22
ENDBRANCH  18  21
ENDBRANCH   1  18
TORSDOF 10
ENDMDL
MODEL 8
REMARK VINA RESULT:      -7.6      1.957      3.737
REMARK  Name = 
REMARK  12 active torsions:
REMARK  status: ('A' for Active; 'I' for Inactive)
REMARK    1  A    between atoms: C_1  and  C_2
REMARK    2  A    between atoms: C_2  and  C_3
REMARK    3  A    between atoms: C_2  and  C_4
REMARK    4  A    between atoms: C_2  and  N_14
REMARK    5  A    between atoms: C_4  and  C_5
REMARK    6  A    between atoms: N_14  and  C_15
REMARK    7  A    between atoms: C_15  and  C_16
REMARK    8  A    between atoms: C_16  and  O_17
REMARK    9  A    between atoms: C_16  and  C_18
REMARK   10  A    between atoms: C_18  and  O_19
REMARK   11  A    between atoms: O_19  and  C_20
REMARK   12  A    between atoms: C_25  and  C_26
REMARK                            x       y       z     vdW  Elec       q    Type
REMARK                         _______ _______ _______ _____ _____    ______ ____
ROOT
ATOM      1  C   UNL     1       2.172   5.106  18.539  0.00  0.00    +0.000 C 
ENDROOT
BRANCH   1   2
ATOM      2  N   UNL     1       3.448   4.461  18.891  0.00  0.00    +0.000 NA
ATOM      3  H   UNL     1       4.206   5.141  18.818  0.00  0.00    +0.000 HD
BRANCH   2   5
ATOM      4  C   UNL     1       2.468   2.645  17.551  0.00  0.00    +0.000 C 
ATOM      5  C   UNL     1       3.783   3.215  18.137  0.00  0.00    +0.000 C 
ATOM      6  C   UNL     1       4.319   2.141  19.113  0.00  0.00    +0.000 C 
BRANCH   5   7
ATOM      7  C   UNL     1       4.816   3.401  16.965  0.00  0.00    +0.000 C 
BRANCH   7   8
ATOM      8  C   UNL     1       5.352   4.802  16.783  0.00  0.00    +0.000 A 
ATOM      9  C   UNL     1       5.034   5.668  15.754  0.00  0.00    +0.000 A 
ATOM     10  N   UNL     1       5.800   6.792  15.873  0.00  0.00    +0.000 N 
ATOM     11  C   UNL     1       6.612   6.699  16.976  0.00  0.00    +0.000 A 
ATOM     12  C   UNL     1       7.592   7.583  17.444  0.00  0.00    +0.000 A 
ATOM     13  C   UNL     1       8.271   7.237  18.614  0.00  0.00    +0.000 A 
ATOM     14  C   UNL     1       7.953   6.072  19.305  0.00  0.00    +0.000 A 
ATOM     15  C   UNL     1       6.973   5.194  18.818  0.00  0.00    +0.000 A 
ATOM     16  C   UNL     1       6.307   5.491  17.608  0.00  0.00    +0.000 A 
ATOM     17  H   UNL     1       5.796   7.568  15.226  0.00  0.00    +0.000 HD
ENDBRANCH   7   8
ENDBRANCH   5   7
ENDBRANCH   2   5
ENDBRANCH   1   2
BRANCH   1  18
ATOM     18  C   UNL     1       1.442   5.829  19.722  0.00  0.00    +0.000 C 
BRANCH  18  19
ATOM     19  O   UNL     1       1.339   4.949  20.849  0.00  0.00    +0.000 OA
ATOM     20  H   UNL     1       0.939   4.115  20.553  0.00  0.00    +0.000 HD
ENDBRANCH  18  19
BRANCH  18  21
ATOM     21  C   UNL     1       2.238   7.130  20.053  0.00  0.00    +0.000 C 
BRANCH  21  22
ATOM     22  O   UNL     1       1.663   8.335  19.560  0.00  0.00    +0.000 OA
BRANCH  22  23
ATOM     23  C   UNL     1       0.933   9.162  20.405  0.00  0.00    +0.000 A 
ATOM     24  C   UNL     1       0.964   8.704  21.746  0.00  0.00    +0.000 A 
ATOM     25  C   UNL     1       0.253   9.311  22.778  0.00  0.00    +0.000 A 
ATOM     26  C   UNL     1      -0.529  10.416  22.505  0.00  0.00    +0.000 A 
ATOM     27  C   UNL     1      -0.573  10.878  21.194  0.00  0.00    +0.000 A 
ATOM     28  C   UNL     1       0.122  10.280  20.100  0.00  0.00    +0.000 A 
BRANCH  28  29
ATOM     29  C   UNL     1      -0.148  10.892  18.720  0.00  0.00    +0.000 C 
ATOM     30  C   UNL     1      -0.925   9.998  17.734  0.00  0.00    +0.000 C 
ATOM     31  C   UNL     1      -2.438   9.951  17.928  0.00  0.00    +0.000 C 
ATOM     32  C   UNL     1      -3.093  11.293  18.268  0.00  0.00    +0.000 C 
ATOM     33  C   UNL     1      -2.275  12.264  19.127  0.00  0.00    +0.000 C 
ATOM     34  C   UNL     1      -0.796  12.287  18.760  0.00  0.00    +0.000 C 
ENDBRANCH  28  29
ENDBRANCH  22  23
ENDBRANCH  21  22
ENDBRANCH  18  21
ENDBRANCH   1  18
TORSDOF 10
ENDMDL
MODEL 9
REMARK VINA RESULT:      -7.6      2.209      8.798
REMARK  Name = 
REMARK  12 active torsions:
REMARK  status: ('A' for Active; 'I' for Inactive)
REMARK    1  A    between atoms: C_1  and  C_2
REMARK    2  A    between atoms: C_2  and  C_3
REMARK    3  A    between atoms: C_2  and  C_4
REMARK    4  A    between atoms: C_2  and  N_14
REMARK    5  A    between atoms: C_4  and  C_5
REMARK    6  A    between atoms: N_14  and  C_15
REMARK    7  A    between atoms: C_15  and  C_16
REMARK    8  A    between atoms: C_16  and  O_17
REMARK    9  A    between atoms: C_16  and  C_18
REMARK   10  A    between atoms: C_18  and  O_19
REMARK   11  A    between atoms: O_19  and  C_20
REMARK   12  A    between atoms: C_25  and  C_26
REMARK                            x       y       z     vdW  Elec       q    Type
REMARK                         _______ _______ _______ _____ _____    ______ ____
ROOT
ATOM      1  C   UNL     1       1.438   8.884  19.635  0.00  0.00    +0.000 C 
ENDROOT
BRANCH   1   2
ATOM      2  N   UNL     1       1.142  10.059  20.470  0.00  0.00    +0.000 NA
ATOM      3  H   UNL     1       1.953  10.281  21.049  0.00  0.00    +0.000 HD
BRANCH   2   5
ATOM      4  C   UNL     1       0.321  10.119  22.789  0.00  0.00    +0.000 C 
ATOM      5  C   UNL     1      -0.095   9.975  21.305  0.00  0.00    +0.000 C 
ATOM      6  C   UNL     1      -0.723   8.568  21.169  0.00  0.00    +0.000 C 
BRANCH   5   7
ATOM      7  C   UNL     1      -1.192  11.056  20.983  0.00  0.00    +0.000 C 
BRANCH   7   8
ATOM      8  C   UNL     1      -1.263  11.506  19.543  0.00  0.00    +0.000 A 
ATOM      9  C   UNL     1      -0.690  12.650  19.018  0.00  0.00    +0.000 A 
ATOM     10  N   UNL     1      -1.066  12.769  17.711  0.00  0.00    +0.000 N 
ATOM     11  C   UNL     1      -1.866  11.715  17.348  0.00  0.00    +0.000 A 
ATOM     12  C   UNL     1      -2.520  11.461  16.136  0.00  0.00    +0.000 A 
ATOM     13  C   UNL     1      -3.273  10.290  16.039  0.00  0.00    +0.000 A 
ATOM     14  C   UNL     1      -3.336   9.392  17.100  0.00  0.00    +0.000 A 
ATOM     15  C   UNL     1      -2.679   9.664  18.309  0.00  0.00    +0.000 A 
ATOM     16  C   UNL     1      -1.954  10.867  18.456  0.00  0.00    +0.000 A 
ATOM     17  H   UNL     1      -0.819  13.538  17.104  0.00  0.00    +0.000 HD
ENDBRANCH   7   8
ENDBRANCH   5   7
ENDBRANCH   2   5
ENDBRANCH   1   2
BRANCH   1  18
ATOM     18  C   UNL     1       1.505   9.161  18.094  0.00  0.00    +0.000 C 
BRANCH  18  19
ATOM     19  O   UNL     1       1.808  10.541  17.854  0.00  0.00    +0.000 OA
ATOM     20  H   UNL     1       1.596  11.047  18.656  0.00  0.00    +0.000 HD
ENDBRANCH  18  19
BRANCH  18  21
ATOM     21  C   UNL     1       2.571   8.201  17.479  0.00  0.00    +0.000 C 
BRANCH  21  22
ATOM     22  O   UNL     1       2.986   7.134  18.326  0.00  0.00    +0.000 OA
BRANCH  22  23
ATOM     23  C   UNL     1       3.950   6.232  17.895  0.00  0.00    +0.000 A 
ATOM     24  C   UNL     1       4.580   6.663  16.700  0.00  0.00    +0.000 A 
ATOM     25  C   UNL     1       5.530   5.906  16.020  0.00  0.00    +0.000 A 
ATOM     26  C   UNL     1       5.895   4.670  16.516  0.00  0.00    +0.000 A 
ATOM     27  C   UNL     1       5.286   4.229  17.687  0.00  0.00    +0.000 A 
ATOM     28  C   UNL     1       4.294   4.959  18.409  0.00  0.00    +0.000 A 
BRANCH  28  29
ATOM     29  C   UNL     1       3.683   4.242  19.619  0.00  0.00    +0.000 C 
ATOM     30  C   UNL     1       2.191   4.525  19.877  0.00  0.00    +0.000 C 
ATOM     31  C   UNL     1       1.205   3.746  19.011  0.00  0.00    +0.000 C 
ATOM     32  C   UNL     1       1.572   2.280  18.765  0.00  0.00    +0.000 C 
ATOM     33  C   UNL     1       3.064   1.950  18.651  0.00  0.00    +0.000 C 
ATOM     34  C   UNL     1       3.925   2.723  19.644  0.00  0.00    +0.000 C 
ENDBRANCH  28  29
ENDBRANCH  22  23
ENDBRANCH  21  22
ENDBRANCH  18  21
ENDBRANCH   1  18
TORSDOF 10
ENDMDL
