MODEL 1
REMARK VINA RESULT:      -8.1      0.000      0.000
REMARK  Name = 
REMARK  0 active torsions:
REMARK  status: ('A' for Active; 'I' for Inactive)
REMARK                            x       y       z     vdW  Elec       q    Type
REMARK                         _______ _______ _______ _____ _____    ______ ____
ROOT
ATOM      1  N   UNL     1       1.464   2.677  22.027  0.00  0.00    +0.000 N 
ATOM      2  C   UNL     1       2.103   3.067  20.863  0.00  0.00    +0.000 A 
ATOM      3  N   UNL     1       2.555   2.085  20.080  0.00  0.00    +0.000 NA
ATOM      4  C   UNL     1       3.206   2.391  18.945  0.00  0.00    +0.000 A 
ATOM      5  N   UNL     1       3.654   1.299  18.209  0.00  0.00    +0.000 N 
ATOM      6  C   UNL     1       3.414   3.743  18.603  0.00  0.00    +0.000 A 
ATOM      7  C   UNL     1       4.109   4.426  17.506  0.00  0.00    +0.000 A 
ATOM      8  C   UNL     1       4.064   5.809  17.681  0.00  0.00    +0.000 A 
ATOM      9  S   UNL     1       3.126   6.259  19.045  0.00  0.00    +0.000 S 
ATOM     10  C   UNL     1       2.863   4.647  19.491  0.00  0.00    +0.000 A 
ATOM     11  N   UNL     1       2.189   4.365  20.618  0.00  0.00    +0.000 NA
ATOM     12  C   UNL     1       4.726   6.912  16.903  0.00  0.00    +0.000 C 
ATOM     13  C   UNL     1       6.231   6.988  17.164  0.00  0.00    +0.000 C 
ATOM     14  C   UNL     1       7.017   5.682  17.043  0.00  0.00    +0.000 C 
ATOM     15  C   UNL     1       6.908   4.974  15.695  0.00  0.00    +0.000 C 
ATOM     16  C   UNL     1       5.545   4.390  15.306  0.00  0.00    +0.000 C 
ATOM     17  C   UNL     1       4.816   3.645  16.417  0.00  0.00    +0.000 C 
ATOM     18  H   UNL     1       1.119   1.736  21.922  0.00  0.00    +0.000 HD
ATOM     19  H   UNL     1       0.806   3.391  22.307  0.00  0.00    +0.000 HD
ATOM     20  H   UNL     1       3.622   0.469  18.795  0.00  0.00    +0.000 HD
ATOM     21  H   UNL     1       4.523   1.432  17.721  0.00  0.00    +0.000 HD
ENDROOT
TORSDOF 0
ENDMDL
MODEL 2
REMARK VINA RESULT:      -6.9      3.462      5.318
REMARK  Name = 
REMARK  0 active torsions:
REMARK  status: ('A' for Active; 'I' for Inactive)
REMARK                            x       y       z     vdW  Elec       q    Type
REMARK                         _______ _______ _______ _____ _____    ______ ____
ROOT
ATOM      1  N   UNL     1       1.799  10.367  17.721  0.00  0.00    +0.000 N 
ATOM      2  C   UNL     1       2.203   9.100  18.103  0.00  0.00    +0.000 A 
ATOM      3  N   UNL     1       3.106   8.507  17.321  0.00  0.00    +0.000 NA
ATOM      4  C   UNL     1       3.527   7.266  17.619  0.00  0.00    +0.000 A 
ATOM      5  N   UNL     1       4.453   6.728  16.732  0.00  0.00    +0.000 N 
ATOM      6  C   UNL     1       3.000   6.604  18.747  0.00  0.00    +0.000 A 
ATOM      7  C   UNL     1       3.179   5.267  19.325  0.00  0.00    +0.000 A 
ATOM      8  C   UNL     1       2.355   5.098  20.437  0.00  0.00    +0.000 A 
ATOM      9  S   UNL     1       1.493   6.528  20.828  0.00  0.00    +0.000 S 
ATOM     10  C   UNL     1       2.099   7.353  19.479  0.00  0.00    +0.000 A 
ATOM     11  N   UNL     1       1.682   8.602  19.213  0.00  0.00    +0.000 NA
ATOM     12  C   UNL     1       2.094   3.881  21.280  0.00  0.00    +0.000 C 
ATOM     13  C   UNL     1       1.231   2.845  20.558  0.00  0.00    +0.000 C 
ATOM     14  C   UNL     1       1.666   2.451  19.145  0.00  0.00    +0.000 C 
ATOM     15  C   UNL     1       3.086   1.903  19.026  0.00  0.00    +0.000 C 
ATOM     16  C   UNL     1       4.246   2.866  19.302  0.00  0.00    +0.000 C 
ATOM     17  C   UNL     1       4.102   4.251  18.683  0.00  0.00    +0.000 C 
ATOM     18  H   UNL     1       2.506  10.783  17.135  0.00  0.00    +0.000 HD
ATOM     19  H   UNL     1       1.497  10.885  18.533  0.00  0.00    +0.000 HD
ATOM     20  H   UNL     1       4.455   7.280  15.879  0.00  0.00    +0.000 HD
ATOM     21  H   UNL     1       4.388   5.735  16.586  0.00  0.00    +0.000 HD
ENDROOT
TORSDOF 0
ENDMDL
MODEL 3
REMARK VINA RESULT:      -6.5      2.899      5.610
REMARK  Name = 
REMARK  0 active torsions:
REMARK  status: ('A' for Active; 'I' for Inactive)
REMARK                            x       y       z     vdW  Elec       q    Type
REMARK                         _______ _______ _______ _____ _____    ______ ____
ROOT
ATOM      1  N   UNL     1       7.744   4.531  15.297  0.00  0.00    +0.000 N 
ATOM      2  C   UNL     1       6.708   4.568  16.214  0.00  0.00    +0.000 A 
ATOM      3  N   UNL     1       7.023   4.972  17.445  0.00  0.00    +0.000 NA
ATOM      4  C   UNL     1       6.071   5.011  18.393  0.00  0.00    +0.000 A 
ATOM      5  N   UNL     1       6.503   5.427  19.647  0.00  0.00    +0.000 N 
ATOM      6  C   UNL     1       4.756   4.614  18.076  0.00  0.00    +0.000 A 
ATOM      7  C   UNL     1       3.514   4.478  18.846  0.00  0.00    +0.000 A 
ATOM      8  C   UNL     1       2.491   3.975  18.043  0.00  0.00    +0.000 A 
ATOM      9  S   UNL     1       2.981   3.787  16.411  0.00  0.00    +0.000 S 
ATOM     10  C   UNL     1       4.572   4.252  16.755  0.00  0.00    +0.000 A 
ATOM     11  N   UNL     1       5.502   4.227  15.787  0.00  0.00    +0.000 NA
ATOM     12  C   UNL     1       1.092   3.553  18.398  0.00  0.00    +0.000 C 
ATOM     13  C   UNL     1       1.059   2.230  19.166  0.00  0.00    +0.000 C 
ATOM     14  C   UNL     1       1.991   2.111  20.372  0.00  0.00    +0.000 C 
ATOM     15  C   UNL     1       1.805   3.174  21.452  0.00  0.00    +0.000 C 
ATOM     16  C   UNL     1       2.167   4.621  21.097  0.00  0.00    +0.000 C 
ATOM     17  C   UNL     1       3.470   4.795  20.327  0.00  0.00    +0.000 C 
ATOM     18  H   UNL     1       8.479   5.153  15.596  0.00  0.00    +0.000 HD
ATOM     19  H   UNL     1       7.376   4.651  14.365  0.00  0.00    +0.000 HD
ATOM     20  H   UNL     1       7.518   5.388  19.678  0.00  0.00    +0.000 HD
ATOM     21  H   UNL     1       6.045   4.993  20.431  0.00  0.00    +0.000 HD
ENDROOT
TORSDOF 0
ENDMDL
MODEL 4
REMARK VINA RESULT:      -6.5      3.913      5.768
REMARK  Name = 
REMARK  0 active torsions:
REMARK  status: ('A' for Active; 'I' for Inactive)
REMARK                            x       y       z     vdW  Elec       q    Type
REMARK                         _______ _______ _______ _____ _____    ______ ____
ROOT
ATOM      1  N   UNL     1       8.648   5.857  13.227  0.00  0.00    +0.000 N 
ATOM      2  C   UNL     1       7.664   5.386  14.079  0.00  0.00    +0.000 A 
ATOM      3  N   UNL     1       6.715   4.631  13.524  0.00  0.00    +0.000 NA
ATOM      4  C   UNL     1       5.715   4.158  14.288  0.00  0.00    +0.000 A 
ATOM      5  N   UNL     1       4.765   3.399  13.613  0.00  0.00    +0.000 N 
ATOM      6  C   UNL     1       5.678   4.474  15.661  0.00  0.00    +0.000 A 
ATOM      7  C   UNL     1       4.739   4.188  16.752  0.00  0.00    +0.000 A 
ATOM      8  C   UNL     1       5.155   4.804  17.932  0.00  0.00    +0.000 A 
ATOM      9  S   UNL     1       6.669   5.590  17.754  0.00  0.00    +0.000 S 
ATOM     10  C   UNL     1       6.744   5.236  16.100  0.00  0.00    +0.000 A 
ATOM     11  N   UNL     1       7.764   5.700  15.361  0.00  0.00    +0.000 NA
ATOM     12  C   UNL     1       4.476   4.906  19.270  0.00  0.00    +0.000 C 
ATOM     13  C   UNL     1       3.294   5.876  19.252  0.00  0.00    +0.000 C 
ATOM     14  C   UNL     1       2.272   5.694  18.129  0.00  0.00    +0.000 C 
ATOM     15  C   UNL     1       1.623   4.315  18.051  0.00  0.00    +0.000 C 
ATOM     16  C   UNL     1       2.514   3.130  17.665  0.00  0.00    +0.000 C 
ATOM     17  C   UNL     1       3.475   3.387  16.511  0.00  0.00    +0.000 C 
ATOM     18  H   UNL     1       8.698   5.266  12.412  0.00  0.00    +0.000 HD
ATOM     19  H   UNL     1       9.499   6.014  13.747  0.00  0.00    +0.000 HD
ATOM     20  H   UNL     1       4.869   3.550  12.613  0.00  0.00    +0.000 HD
ATOM     21  H   UNL     1       3.821   3.483  13.951  0.00  0.00    +0.000 HD
ENDROOT
TORSDOF 0
ENDMDL
MODEL 5
REMARK VINA RESULT:      -6.3      3.169      5.767
REMARK  Name = 
REMARK  0 active torsions:
REMARK  status: ('A' for Active; 'I' for Inactive)
REMARK                            x       y       z     vdW  Elec       q    Type
REMARK                         _______ _______ _______ _____ _____    ______ ____
ROOT
ATOM      1  N   UNL     1       7.530   5.113  14.505  0.00  0.00    +0.000 N 
ATOM      2  C   UNL     1       6.476   5.146  15.401  0.00  0.00    +0.000 A 
ATOM      3  N   UNL     1       6.401   6.222  16.186  0.00  0.00    +0.000 NA
ATOM      4  C   UNL     1       5.416   6.310  17.096  0.00  0.00    +0.000 A 
ATOM      5  N   UNL     1       5.437   7.460  17.878  0.00  0.00    +0.000 N 
ATOM      6  C   UNL     1       4.482   5.261  17.216  0.00  0.00    +0.000 A 
ATOM      7  C   UNL     1       3.346   4.999  18.106  0.00  0.00    +0.000 A 
ATOM      8  C   UNL     1       2.784   3.753  17.833  0.00  0.00    +0.000 A 
ATOM      9  S   UNL     1       3.523   2.990  16.486  0.00  0.00    +0.000 S 
ATOM     10  C   UNL     1       4.666   4.228  16.316  0.00  0.00    +0.000 A 
ATOM     11  N   UNL     1       5.628   4.129  15.384  0.00  0.00    +0.000 NA
ATOM     12  C   UNL     1       1.696   2.997  18.543  0.00  0.00    +0.000 C 
ATOM     13  C   UNL     1       2.163   2.424  19.883  0.00  0.00    +0.000 C 
ATOM     14  C   UNL     1       2.873   3.389  20.833  0.00  0.00    +0.000 C 
ATOM     15  C   UNL     1       2.078   4.634  21.217  0.00  0.00    +0.000 C 
ATOM     16  C   UNL     1       1.788   5.660  20.116  0.00  0.00    +0.000 C 
ATOM     17  C   UNL     1       2.961   5.978  19.198  0.00  0.00    +0.000 C 
ATOM     18  H   UNL     1       7.854   6.052  14.332  0.00  0.00    +0.000 HD
ATOM     19  H   UNL     1       7.278   4.548  13.707  0.00  0.00    +0.000 HD
ATOM     20  H   UNL     1       6.344   7.909  17.785  0.00  0.00    +0.000 HD
ATOM     21  H   UNL     1       5.124   7.345  18.827  0.00  0.00    +0.000 HD
ENDROOT
TORSDOF 0
ENDMDL
MODEL 6
REMARK VINA RESULT:      -6.0      3.247      5.630
REMARK  Name = 
REMARK  0 active torsions:
REMARK  status: ('A' for Active; 'I' for Inactive)
REMARK                            x       y       z     vdW  Elec       q    Type
REMARK                         _______ _______ _______ _____ _____    ______ ____
ROOT
ATOM      1  N   UNL     1       7.618   7.949  17.020  0.00  0.00    +0.000 N 
ATOM      2  C   UNL     1       6.502   7.140  17.136  0.00  0.00    +0.000 A 
ATOM      3  N   UNL     1       5.353   7.757  17.420  0.00  0.00    +0.000 NA
ATOM      4  C   UNL     1       4.232   7.030  17.569  0.00  0.00    +0.000 A 
ATOM      5  N   UNL     1       3.092   7.763  17.882  0.00  0.00    +0.000 N 
ATOM      6  C   UNL     1       4.287   5.628  17.436  0.00  0.00    +0.000 A 
ATOM      7  C   UNL     1       3.307   4.547  17.583  0.00  0.00    +0.000 A 
ATOM      8  C   UNL     1       3.912   3.305  17.399  0.00  0.00    +0.000 A 
ATOM      9  S   UNL     1       5.562   3.449  16.953  0.00  0.00    +0.000 S 
ATOM     10  C   UNL     1       5.536   5.135  17.110  0.00  0.00    +0.000 A 
ATOM     11  N   UNL     1       6.664   5.842  16.934  0.00  0.00    +0.000 NA
ATOM     12  C   UNL     1       3.361   1.917  17.566  0.00  0.00    +0.000 C 
ATOM     13  C   UNL     1       3.171   1.537  19.035  0.00  0.00    +0.000 C 
ATOM     14  C   UNL     1       2.417   2.538  19.912  0.00  0.00    +0.000 C 
ATOM     15  C   UNL     1       1.011   2.898  19.435  0.00  0.00    +0.000 C 
ATOM     16  C   UNL     1       0.884   3.686  18.127  0.00  0.00    +0.000 C 
ATOM     17  C   UNL     1       1.868   4.837  17.963  0.00  0.00    +0.000 C 
ATOM     18  H   UNL     1       7.330   8.891  16.806  0.00  0.00    +0.000 HD
ATOM     19  H   UNL     1       8.291   7.512  16.407  0.00  0.00    +0.000 HD
ATOM     20  H   UNL     1       3.368   8.693  18.186  0.00  0.00    +0.000 HD
ATOM     21  H   UNL     1       2.434   7.304  18.489  0.00  0.00    +0.000 HD
ENDROOT
TORSDOF 0
ENDMDL
MODEL 7
REMARK VINA RESULT:      -6.0      1.584      2.862
REMARK  Name = 
REMARK  0 active torsions:
REMARK  status: ('A' for Active; 'I' for Inactive)
REMARK                            x       y       z     vdW  Elec       q    Type
REMARK                         _______ _______ _______ _____ _____    ______ ____
ROOT
ATOM      1  N   UNL     1       1.035   2.601  22.060  0.00  0.00    +0.000 N 
ATOM      2  C   UNL     1       1.882   3.313  21.230  0.00  0.00    +0.000 A 
ATOM      3  N   UNL     1       1.530   4.573  20.968  0.00  0.00    +0.000 NA
ATOM      4  C   UNL     1       2.295   5.317  20.150  0.00  0.00    +0.000 A 
ATOM      5  N   UNL     1       1.834   6.609  19.924  0.00  0.00    +0.000 N 
ATOM      6  C   UNL     1       3.451   4.752  19.572  0.00  0.00    +0.000 A 
ATOM      7  C   UNL     1       4.458   5.234  18.621  0.00  0.00    +0.000 A 
ATOM      8  C   UNL     1       5.380   4.229  18.329  0.00  0.00    +0.000 A 
ATOM      9  S   UNL     1       5.104   2.810  19.253  0.00  0.00    +0.000 S 
ATOM     10  C   UNL     1       3.706   3.451  19.961  0.00  0.00    +0.000 A 
ATOM     11  N   UNL     1       2.969   2.697  20.793  0.00  0.00    +0.000 NA
ATOM     12  C   UNL     1       6.506   4.198  17.335  0.00  0.00    +0.000 C 
ATOM     13  C   UNL     1       6.009   4.076  15.893  0.00  0.00    +0.000 C 
ATOM     14  C   UNL     1       4.918   5.056  15.457  0.00  0.00    +0.000 C 
ATOM     15  C   UNL     1       5.266   6.534  15.609  0.00  0.00    +0.000 C 
ATOM     16  C   UNL     1       5.433   7.084  17.029  0.00  0.00    +0.000 C 
ATOM     17  C   UNL     1       4.380   6.628  18.031  0.00  0.00    +0.000 C 
ATOM     18  H   UNL     1       0.496   3.243  22.621  0.00  0.00    +0.000 HD
ATOM     19  H   UNL     1       1.556   1.881  22.539  0.00  0.00    +0.000 HD
ATOM     20  H   UNL     1       0.865   6.673  20.224  0.00  0.00    +0.000 HD
ATOM     21  H   UNL     1       2.011   6.979  19.006  0.00  0.00    +0.000 HD
ENDROOT
TORSDOF 0
ENDMDL
MODEL 8
REMARK VINA RESULT:      -6.0      8.561      9.877
REMARK  Name = 
REMARK  0 active torsions:
REMARK  status: ('A' for Active; 'I' for Inactive)
REMARK                            x       y       z     vdW  Elec       q    Type
REMARK                         _______ _______ _______ _____ _____    ______ ____
ROOT
ATOM      1  N   UNL     1      -6.458  12.029  17.092  0.00  0.00    +0.000 N 
ATOM      2  C   UNL     1      -5.161  11.787  17.510  0.00  0.00    +0.000 A 
ATOM      3  N   UNL     1      -4.409  11.041  16.699  0.00  0.00    +0.000 NA
ATOM      4  C   UNL     1      -3.146  10.747  17.053  0.00  0.00    +0.000 A 
ATOM      5  N   UNL     1      -2.451   9.949  16.151  0.00  0.00    +0.000 N 
ATOM      6  C   UNL     1      -2.637  11.221  18.280  0.00  0.00    +0.000 A 
ATOM      7  C   UNL     1      -1.366  11.055  18.993  0.00  0.00    +0.000 A 
ATOM      8  C   UNL     1      -1.408  11.700  20.229  0.00  0.00    +0.000 A 
ATOM      9  S   UNL     1      -2.872  12.561  20.461  0.00  0.00    +0.000 S 
ATOM     10  C   UNL     1      -3.519  12.006  18.998  0.00  0.00    +0.000 A 
ATOM     11  N   UNL     1      -4.776  12.331  18.654  0.00  0.00    +0.000 NA
ATOM     12  C   UNL     1      -0.412  11.714  21.354  0.00  0.00    +0.000 C 
ATOM     13  C   UNL     1      -0.373  10.388  22.116  0.00  0.00    +0.000 C 
ATOM     14  C   UNL     1      -0.236   9.117  21.277  0.00  0.00    +0.000 C 
ATOM     15  C   UNL     1       0.990   9.061  20.368  0.00  0.00    +0.000 C 
ATOM     16  C   UNL     1       1.052  10.047  19.197  0.00  0.00    +0.000 C 
ATOM     17  C   UNL     1      -0.245  10.213  18.416  0.00  0.00    +0.000 C 
ATOM     18  H   UNL     1      -6.515  11.918  16.092  0.00  0.00    +0.000 HD
ATOM     19  H   UNL     1      -6.785  12.898  17.489  0.00  0.00    +0.000 HD
ATOM     20  H   UNL     1      -3.112   9.527  15.504  0.00  0.00    +0.000 HD
ATOM     21  H   UNL     1      -1.795   9.303  16.557  0.00  0.00    +0.000 HD
ENDROOT
TORSDOF 0
ENDMDL
MODEL 9
REMARK VINA RESULT:      -6.0      3.382      5.398
REMARK  Name = 
REMARK  0 active torsions:
REMARK  status: ('A' for Active; 'I' for Inactive)
REMARK                            x       y       z     vdW  Elec       q    Type
REMARK                         _______ _______ _______ _____ _____    ______ ____
ROOT
ATOM      1  N   UNL     1       8.624   4.102  17.932  0.00  0.00    +0.000 N 
ATOM      2  C   UNL     1       7.385   4.719  17.928  0.00  0.00    +0.000 A 
ATOM      3  N   UNL     1       7.324   5.916  17.342  0.00  0.00    +0.000 NA
ATOM      4  C   UNL     1       6.157   6.583  17.321  0.00  0.00    +0.000 A 
ATOM      5  N   UNL     1       6.201   7.829  16.705  0.00  0.00    +0.000 N 
ATOM      6  C   UNL     1       5.018   6.014  17.928  0.00  0.00    +0.000 A 
ATOM      7  C   UNL     1       3.639   6.466  18.138  0.00  0.00    +0.000 A 
ATOM      8  C   UNL     1       2.918   5.520  18.867  0.00  0.00    +0.000 A 
ATOM      9  S   UNL     1       3.836   4.105  19.178  0.00  0.00    +0.000 S 
ATOM     10  C   UNL     1       5.226   4.758  18.465  0.00  0.00    +0.000 A 
ATOM     11  N   UNL     1       6.375   4.064  18.477  0.00  0.00    +0.000 NA
ATOM     12  C   UNL     1       1.525   5.578  19.430  0.00  0.00    +0.000 C 
ATOM     13  C   UNL     1       1.424   6.502  20.645  0.00  0.00    +0.000 C 
ATOM     14  C   UNL     1       2.014   7.905  20.493  0.00  0.00    +0.000 C 
ATOM     15  C   UNL     1       1.444   8.734  19.345  0.00  0.00    +0.000 C 
ATOM     16  C   UNL     1       1.740   8.268  17.915  0.00  0.00    +0.000 C 
ATOM     17  C   UNL     1       3.175   7.826  17.658  0.00  0.00    +0.000 C 
ATOM     18  H   UNL     1       9.189   4.477  17.186  0.00  0.00    +0.000 HD
ATOM     19  H   UNL     1       8.504   3.101  17.974  0.00  0.00    +0.000 HD
ATOM     20  H   UNL     1       7.171   8.114  16.602  0.00  0.00    +0.000 HD
ATOM     21  H   UNL     1       5.599   8.531  17.102  0.00  0.00    +0.000 HD
ENDROOT
TORSDOF 0
ENDMDL
