MODEL 1
REMARK VINA RESULT:      -6.3      0.000      0.000
REMARK  Name = 
REMARK  9 active torsions:
REMARK  status: ('A' for Active; 'I' for Inactive)
REMARK    1  A    between atoms: C_1  and  C_2
REMARK    2  A    between atoms: C_3  and  C_4
REMARK    3  A    between atoms: C_4  and  O_6
REMARK    4  A    between atoms: O_6  and  C_7
REMARK    5  A    between atoms: C_13  and  C_14
REMARK    6  A    between atoms: C_20  and  C_21
REMARK    7  A    between atoms: C_21  and  O_23
REMARK    8  A    between atoms: O_23  and  C_24
REMARK    9  A    between atoms: C_30  and  C_31
REMARK                            x       y       z     vdW  Elec       q    Type
REMARK                         _______ _______ _______ _____ _____    ______ ____
ROOT
ATOM      1  C   UNL     1      -6.780   9.513  19.331  0.00  0.00    +0.000 C 
ATOM      2  C   UNL     1      -6.622  10.991  19.571  0.00  0.00    +0.000 C 
ATOM      3  C   UNL     1      -5.701  11.833  19.035  0.00  0.00    +0.000 C 
ATOM      4  C   UNL     1      -5.674  13.308  19.503  0.00  0.00    +0.000 C 
ATOM      5  C   UNL     1      -6.219  13.421  20.938  0.00  0.00    +0.000 C 
ATOM      6  C   UNL     1      -7.176  12.555  21.351  0.00  0.00    +0.000 C 
ATOM      7  C   UNL     1      -7.917  12.593  22.664  0.00  0.00    +0.000 C 
ATOM      8  N   UNL     1      -7.522  11.484  20.529  0.00  0.00    +0.000 N 
ATOM      9  H   UNL     1      -8.068  10.762  20.998  0.00  0.00    +0.000 HD
ENDROOT
BRANCH   4  10
ATOM     10  C   UNL     1      -6.444  14.186  18.526  0.00  0.00    +0.000 A 
ATOM     11  N   UNL     1      -7.118  13.644  17.450  0.00  0.00    +0.000 N 
ATOM     12  C   UNL     1      -7.696  14.663  16.754  0.00  0.00    +0.000 A 
ATOM     13  N   UNL     1      -7.433  15.822  17.304  0.00  0.00    +0.000 NA
ATOM     14  C   UNL     1      -6.613  15.549  18.372  0.00  0.00    +0.000 A 
ATOM     15 CL   UNL     1      -5.897  16.811  19.246  0.00  0.00    +0.000 Cl
ATOM     16  H   UNL     1      -7.139  12.663  17.202  0.00  0.00    +0.000 HD
ENDBRANCH   4  10
BRANCH   3  17
ATOM     17  C   UNL     1      -4.653  11.494  18.027  0.00  0.00    +0.000 C 
ATOM     18  O   UNL     1      -4.889  11.298  16.851  0.00  0.00    +0.000 OA
BRANCH  17  19
ATOM     19  O   UNL     1      -3.437  11.404  18.610  0.00  0.00    +0.000 OA
BRANCH  19  20
ATOM     20  C   UNL     1      -2.269  11.411  17.759  0.00  0.00    +0.000 C 
ATOM     21  C   UNL     1      -1.370  12.619  18.058  0.00  0.00    +0.000 C 
ATOM     22  C   UNL     1      -0.835  12.610  19.489  0.00  0.00    +0.000 C 
ATOM     23  C   UNL     1      -0.158  11.289  19.853  0.00  0.00    +0.000 C 
ATOM     24  C   UNL     1      -0.993  10.063  19.493  0.00  0.00    +0.000 C 
ATOM     25  C   UNL     1      -1.497  10.115  18.050  0.00  0.00    +0.000 C 
ENDBRANCH  19  20
ENDBRANCH  17  19
ENDBRANCH   3  17
BRANCH   5  26
ATOM     26  C   UNL     1      -5.572  14.350  21.901  0.00  0.00    +0.000 C 
ATOM     27  O   UNL     1      -6.131  15.323  22.386  0.00  0.00    +0.000 OA
BRANCH  26  28
ATOM     28  O   UNL     1      -4.321  13.940  22.200  0.00  0.00    +0.000 OA
BRANCH  28  29
ATOM     29  C   UNL     1      -4.001  13.727  23.597  0.00  0.00    +0.000 C 
ATOM     30  C   UNL     1      -3.527  12.283  23.783  0.00  0.00    +0.000 C 
ATOM     31  C   UNL     1      -2.283  11.990  22.949  0.00  0.00    +0.000 C 
ATOM     32  C   UNL     1      -1.169  13.022  23.149  0.00  0.00    +0.000 C 
ATOM     33  C   UNL     1      -1.656  14.469  23.083  0.00  0.00    +0.000 C 
ATOM     34  C   UNL     1      -2.871  14.680  23.984  0.00  0.00    +0.000 C 
ENDBRANCH  28  29
ENDBRANCH  26  28
ENDBRANCH   5  26
TORSDOF 7
ENDMDL
MODEL 2
REMARK VINA RESULT:      -6.2      2.972      6.438
REMARK  Name = 
REMARK  9 active torsions:
REMARK  status: ('A' for Active; 'I' for Inactive)
REMARK    1  A    between atoms: C_1  and  C_2
REMARK    2  A    between atoms: C_3  and  C_4
REMARK    3  A    between atoms: C_4  and  O_6
REMARK    4  A    between atoms: O_6  and  C_7
REMARK    5  A    between atoms: C_13  and  C_14
REMARK    6  A    between atoms: C_20  and  C_21
REMARK    7  A    between atoms: C_21  and  O_23
REMARK    8  A    between atoms: O_23  and  C_24
REMARK    9  A    between atoms: C_30  and  C_31
REMARK                            x       y       z     vdW  Elec       q    Type
REMARK                         _______ _______ _______ _____ _____    ______ ____
ROOT
ATOM      1  C   UNL     1       0.086   9.501  21.581  0.00  0.00    +0.000 C 
ATOM      2  C   UNL     1      -0.640  10.495  20.715  0.00  0.00    +0.000 C 
ATOM      3  C   UNL     1      -1.444  11.518  21.106  0.00  0.00    +0.000 C 
ATOM      4  C   UNL     1      -2.163  12.360  20.025  0.00  0.00    +0.000 C 
ATOM      5  C   UNL     1      -2.389  11.518  18.757  0.00  0.00    +0.000 C 
ATOM      6  C   UNL     1      -1.493  10.553  18.436  0.00  0.00    +0.000 C 
ATOM      7  C   UNL     1      -1.476   9.724  17.177  0.00  0.00    +0.000 C 
ATOM      8  N   UNL     1      -0.483  10.236  19.344  0.00  0.00    +0.000 N 
ATOM      9  H   UNL     1      -0.001   9.363  19.138  0.00  0.00    +0.000 HD
ENDROOT
BRANCH   4  10
ATOM     10  C   UNL     1      -1.376  13.631  19.737  0.00  0.00    +0.000 A 
ATOM     11  N   UNL     1      -1.921  14.880  19.955  0.00  0.00    +0.000 N 
ATOM     12  C   UNL     1      -0.996  15.816  19.599  0.00  0.00    +0.000 A 
ATOM     13  N   UNL     1       0.102  15.253  19.158  0.00  0.00    +0.000 NA
ATOM     14  C   UNL     1      -0.137  13.900  19.186  0.00  0.00    +0.000 A 
ATOM     15 CL   UNL     1       0.984  12.820  18.520  0.00  0.00    +0.000 Cl
ATOM     16  H   UNL     1      -2.861  15.063  20.283  0.00  0.00    +0.000 HD
ENDBRANCH   4  10
BRANCH   3  17
ATOM     17  C   UNL     1      -1.753  11.932  22.507  0.00  0.00    +0.000 C 
ATOM     18  O   UNL     1      -1.024  11.703  23.452  0.00  0.00    +0.000 OA
BRANCH  17  19
ATOM     19  O   UNL     1      -2.952  12.554  22.572  0.00  0.00    +0.000 OA
BRANCH  19  20
ATOM     20  C   UNL     1      -3.144  13.562  23.588  0.00  0.00    +0.000 C 
ATOM     21  C   UNL     1      -3.761  14.837  22.998  0.00  0.00    +0.000 C 
ATOM     22  C   UNL     1      -5.144  14.592  22.394  0.00  0.00    +0.000 C 
ATOM     23  C   UNL     1      -6.093  13.896  23.369  0.00  0.00    +0.000 C 
ATOM     24  C   UNL     1      -5.480  12.668  24.037  0.00  0.00    +0.000 C 
ATOM     25  C   UNL     1      -4.102  12.966  24.631  0.00  0.00    +0.000 C 
ENDBRANCH  19  20
ENDBRANCH  17  19
ENDBRANCH   3  17
BRANCH   5  26
ATOM     26  C   UNL     1      -3.665  11.646  18.004  0.00  0.00    +0.000 C 
ATOM     27  O   UNL     1      -3.727  11.739  16.787  0.00  0.00    +0.000 OA
BRANCH  26  28
ATOM     28  O   UNL     1      -4.724  11.591  18.838  0.00  0.00    +0.000 OA
BRANCH  28  29
ATOM     29  C   UNL     1      -6.010  11.248  18.266  0.00  0.00    +0.000 C 
ATOM     30  C   UNL     1      -6.803  10.427  19.287  0.00  0.00    +0.000 C 
ATOM     31  C   UNL     1      -7.038  11.209  20.576  0.00  0.00    +0.000 C 
ATOM     32  C   UNL     1      -7.625  12.603  20.335  0.00  0.00    +0.000 C 
ATOM     33  C   UNL     1      -6.911  13.385  19.233  0.00  0.00    +0.000 C 
ATOM     34  C   UNL     1      -6.766  12.543  17.968  0.00  0.00    +0.000 C 
ENDBRANCH  28  29
ENDBRANCH  26  28
ENDBRANCH   5  26
TORSDOF 7
ENDMDL
MODEL 3
REMARK VINA RESULT:      -6.1      3.283      6.930
REMARK  Name = 
REMARK  9 active torsions:
REMARK  status: ('A' for Active; 'I' for Inactive)
REMARK    1  A    between atoms: C_1  and  C_2
REMARK    2  A    between atoms: C_3  and  C_4
REMARK    3  A    between atoms: C_4  and  O_6
REMARK    4  A    between atoms: O_6  and  C_7
REMARK    5  A    between atoms: C_13  and  C_14
REMARK    6  A    between atoms: C_20  and  C_21
REMARK    7  A    between atoms: C_21  and  O_23
REMARK    8  A    between atoms: O_23  and  C_24
REMARK    9  A    between atoms: C_30  and  C_31
REMARK                            x       y       z     vdW  Elec       q    Type
REMARK                         _______ _______ _______ _____ _____    ______ ____
ROOT
ATOM      1  C   UNL     1      -2.997  12.291  23.533  0.00  0.00    +0.000 C 
ATOM      2  C   UNL     1      -2.071  12.298  22.346  0.00  0.00    +0.000 C 
ATOM      3  C   UNL     1      -2.114  13.104  21.254  0.00  0.00    +0.000 C 
ATOM      4  C   UNL     1      -1.103  12.864  20.106  0.00  0.00    +0.000 C 
ATOM      5  C   UNL     1      -0.674  11.386  20.076  0.00  0.00    +0.000 C 
ATOM      6  C   UNL     1      -0.620  10.689  21.237  0.00  0.00    +0.000 C 
ATOM      7  C   UNL     1      -0.102   9.285  21.419  0.00  0.00    +0.000 C 
ATOM      8  N   UNL     1      -1.110  11.275  22.403  0.00  0.00    +0.000 N 
ATOM      9  H   UNL     1      -1.246  10.618  23.170  0.00  0.00    +0.000 HD
ENDROOT
BRANCH   4  10
ATOM     10  C   UNL     1       0.086  13.804  20.247  0.00  0.00    +0.000 A 
ATOM     11  N   UNL     1       1.107  13.544  21.139  0.00  0.00    +0.000 N 
ATOM     12  C   UNL     1       2.015  14.556  21.052  0.00  0.00    +0.000 A 
ATOM     13  N   UNL     1       1.644  15.452  20.171  0.00  0.00    +0.000 NA
ATOM     14  C   UNL     1       0.424  15.029  19.702  0.00  0.00    +0.000 A 
ATOM     15 CL   UNL     1      -0.484  16.015  18.667  0.00  0.00    +0.000 Cl
ATOM     16  H   UNL     1       1.146  12.759  21.776  0.00  0.00    +0.000 HD
ENDBRANCH   4  10
BRANCH   3  17
ATOM     17  C   UNL     1      -3.069  14.223  21.001  0.00  0.00    +0.000 C 
ATOM     18  O   UNL     1      -2.849  15.378  21.308  0.00  0.00    +0.000 OA
BRANCH  17  19
ATOM     19  O   UNL     1      -4.204  13.765  20.425  0.00  0.00    +0.000 OA
BRANCH  19  20
ATOM     20  C   UNL     1      -5.467  14.106  21.039  0.00  0.00    +0.000 C 
ATOM     21  C   UNL     1      -6.443  14.697  20.011  0.00  0.00    +0.000 C 
ATOM     22  C   UNL     1      -6.782  13.711  18.893  0.00  0.00    +0.000 C 
ATOM     23  C   UNL     1      -7.261  12.362  19.428  0.00  0.00    +0.000 C 
ATOM     24  C   UNL     1      -6.354  11.785  20.512  0.00  0.00    +0.000 C 
ATOM     25  C   UNL     1      -6.051  12.806  21.610  0.00  0.00    +0.000 C 
ENDBRANCH  19  20
ENDBRANCH  17  19
ENDBRANCH   3  17
BRANCH   5  26
ATOM     26  C   UNL     1      -0.500  10.696  18.770  0.00  0.00    +0.000 C 
ATOM     27  O   UNL     1       0.444   9.967  18.509  0.00  0.00    +0.000 OA
BRANCH  26  28
ATOM     28  O   UNL     1      -1.545  10.944  17.952  0.00  0.00    +0.000 OA
BRANCH  28  29
ATOM     29  C   UNL     1      -2.479   9.863  17.712  0.00  0.00    +0.000 C 
ATOM     30  C   UNL     1      -3.880  10.315  18.136  0.00  0.00    +0.000 C 
ATOM     31  C   UNL     1      -4.337  11.537  17.345  0.00  0.00    +0.000 C 
ATOM     32  C   UNL     1      -4.191  11.363  15.830  0.00  0.00    +0.000 C 
ATOM     33  C   UNL     1      -2.836  10.799  15.407  0.00  0.00    +0.000 C 
ATOM     34  C   UNL     1      -2.483   9.552  16.215  0.00  0.00    +0.000 C 
ENDBRANCH  28  29
ENDBRANCH  26  28
ENDBRANCH   5  26
TORSDOF 7
ENDMDL
MODEL 4
REMARK VINA RESULT:      -6.1      3.161      6.523
REMARK  Name = 
REMARK  9 active torsions:
REMARK  status: ('A' for Active; 'I' for Inactive)
REMARK    1  A    between atoms: C_1  and  C_2
REMARK    2  A    between atoms: C_3  and  C_4
REMARK    3  A    between atoms: C_4  and  O_6
REMARK    4  A    between atoms: O_6  and  C_7
REMARK    5  A    between atoms: C_13  and  C_14
REMARK    6  A    between atoms: C_20  and  C_21
REMARK    7  A    between atoms: C_21  and  O_23
REMARK    8  A    between atoms: O_23  and  C_24
REMARK    9  A    between atoms: C_30  and  C_31
REMARK                            x       y       z     vdW  Elec       q    Type
REMARK                         _______ _______ _______ _____ _____    ______ ____
ROOT
ATOM      1  C   UNL     1       0.359   9.040  21.464  0.00  0.00    +0.000 C 
ATOM      2  C   UNL     1      -0.316  10.124  20.667  0.00  0.00    +0.000 C 
ATOM      3  C   UNL     1      -1.039  11.177  21.128  0.00  0.00    +0.000 C 
ATOM      4  C   UNL     1      -1.722  12.120  20.108  0.00  0.00    +0.000 C 
ATOM      5  C   UNL     1      -2.033  11.360  18.806  0.00  0.00    +0.000 C 
ATOM      6  C   UNL     1      -1.213  10.354  18.416  0.00  0.00    +0.000 C 
ATOM      7  C   UNL     1      -1.282   9.591  17.117  0.00  0.00    +0.000 C 
ATOM      8  N   UNL     1      -0.208   9.924  19.281  0.00  0.00    +0.000 N 
ATOM      9  H   UNL     1       0.209   9.031  19.020  0.00  0.00    +0.000 HD
ENDROOT
BRANCH   4  10
ATOM     10  C   UNL     1      -0.855  13.347  19.862  0.00  0.00    +0.000 A 
ATOM     11  N   UNL     1      -1.388  14.516  19.356  0.00  0.00    +0.000 N 
ATOM     12  C   UNL     1      -0.381  15.425  19.234  0.00  0.00    +0.000 A 
ATOM     13  N   UNL     1       0.764  14.918  19.618  0.00  0.00    +0.000 NA
ATOM     14  C   UNL     1       0.498  13.614  19.959  0.00  0.00    +0.000 A 
ATOM     15 CL   UNL     1       1.763  12.555  20.342  0.00  0.00    +0.000 Cl
ATOM     16  H   UNL     1      -2.354  14.652  19.085  0.00  0.00    +0.000 HD
ENDBRANCH   4  10
BRANCH   3  17
ATOM     17  C   UNL     1      -1.287  11.540  22.555  0.00  0.00    +0.000 C 
ATOM     18  O   UNL     1      -0.610  11.135  23.479  0.00  0.00    +0.000 OA
BRANCH  17  19
ATOM     19  O   UNL     1      -2.373  12.338  22.666  0.00  0.00    +0.000 OA
BRANCH  19  20
ATOM     20  C   UNL     1      -2.304  13.462  23.571  0.00  0.00    +0.000 C 
ATOM     21  C   UNL     1      -2.402  14.794  22.814  0.00  0.00    +0.000 C 
ATOM     22  C   UNL     1      -3.728  14.946  22.069  0.00  0.00    +0.000 C 
ATOM     23  C   UNL     1      -4.937  14.712  22.973  0.00  0.00    +0.000 C 
ATOM     24  C   UNL     1      -4.834  13.434  23.803  0.00  0.00    +0.000 C 
ATOM     25  C   UNL     1      -3.494  13.332  24.534  0.00  0.00    +0.000 C 
ENDBRANCH  19  20
ENDBRANCH  17  19
ENDBRANCH   3  17
BRANCH   5  26
ATOM     26  C   UNL     1      -3.313  11.613  18.093  0.00  0.00    +0.000 C 
ATOM     27  O   UNL     1      -3.400  11.744  16.881  0.00  0.00    +0.000 OA
BRANCH  26  28
ATOM     28  O   UNL     1      -4.351  11.620  18.956  0.00  0.00    +0.000 OA
BRANCH  28  29
ATOM     29  C   UNL     1      -5.553  12.322  18.552  0.00  0.00    +0.000 C 
ATOM     30  C   UNL     1      -6.579  11.301  18.052  0.00  0.00    +0.000 C 
ATOM     31  C   UNL     1      -6.945  10.296  19.140  0.00  0.00    +0.000 C 
ATOM     32  C   UNL     1      -7.347  10.959  20.461  0.00  0.00    +0.000 C 
ATOM     33  C   UNL     1      -6.390  12.064  20.907  0.00  0.00    +0.000 C 
ATOM     34  C   UNL     1      -6.120  13.048  19.772  0.00  0.00    +0.000 C 
ENDBRANCH  28  29
ENDBRANCH  26  28
ENDBRANCH   5  26
TORSDOF 7
ENDMDL
MODEL 5
REMARK VINA RESULT:      -6.1      3.934      7.025
REMARK  Name = 
REMARK  9 active torsions:
REMARK  status: ('A' for Active; 'I' for Inactive)
REMARK    1  A    between atoms: C_1  and  C_2
REMARK    2  A    between atoms: C_3  and  C_4
REMARK    3  A    between atoms: C_4  and  O_6
REMARK    4  A    between atoms: O_6  and  C_7
REMARK    5  A    between atoms: C_13  and  C_14
REMARK    6  A    between atoms: C_20  and  C_21
REMARK    7  A    between atoms: C_21  and  O_23
REMARK    8  A    between atoms: O_23  and  C_24
REMARK    9  A    between atoms: C_30  and  C_31
REMARK                            x       y       z     vdW  Elec       q    Type
REMARK                         _______ _______ _______ _____ _____    ______ ____
ROOT
ATOM      1  C   UNL     1      -2.305  11.431  17.282  0.00  0.00    +0.000 C 
ATOM      2  C   UNL     1      -1.384  11.683  18.446  0.00  0.00    +0.000 C 
ATOM      3  C   UNL     1      -1.665  12.312  19.617  0.00  0.00    +0.000 C 
ATOM      4  C   UNL     1      -0.524  12.538  20.638  0.00  0.00    +0.000 C 
ATOM      5  C   UNL     1       0.830  12.625  19.912  0.00  0.00    +0.000 C 
ATOM      6  C   UNL     1       1.017  11.913  18.774  0.00  0.00    +0.000 C 
ATOM      7  C   UNL     1       2.305  11.771  18.003  0.00  0.00    +0.000 C 
ATOM      8  N   UNL     1      -0.070  11.255  18.200  0.00  0.00    +0.000 N 
ATOM      9  H   UNL     1       0.094  10.942  17.244  0.00  0.00    +0.000 HD
ENDROOT
BRANCH   4  10
ATOM     10  C   UNL     1      -0.539  11.443  21.695  0.00  0.00    +0.000 A 
ATOM     11  N   UNL     1       0.269  10.329  21.589  0.00  0.00    +0.000 N 
ATOM     12  C   UNL     1       0.031   9.527  22.665  0.00  0.00    +0.000 A 
ATOM     13  N   UNL     1      -0.880  10.045  23.450  0.00  0.00    +0.000 NA
ATOM     14  C   UNL     1      -1.284  11.206  22.836  0.00  0.00    +0.000 A 
ATOM     15 CL   UNL     1      -2.592  12.089  23.450  0.00  0.00    +0.000 Cl
ATOM     16  H   UNL     1       0.896  10.128  20.820  0.00  0.00    +0.000 HD
ENDBRANCH   4  10
BRANCH   3  17
ATOM     17  C   UNL     1      -2.986  12.857  20.048  0.00  0.00    +0.000 C 
ATOM     18  O   UNL     1      -3.114  13.883  20.687  0.00  0.00    +0.000 OA
BRANCH  17  19
ATOM     19  O   UNL     1      -3.993  12.040  19.662  0.00  0.00    +0.000 OA
BRANCH  19  20
ATOM     20  C   UNL     1      -5.167  12.637  19.070  0.00  0.00    +0.000 C 
ATOM     21  C   UNL     1      -5.779  11.720  18.001  0.00  0.00    +0.000 C 
ATOM     22  C   UNL     1      -6.243  10.381  18.575  0.00  0.00    +0.000 C 
ATOM     23  C   UNL     1      -7.166  10.550  19.780  0.00  0.00    +0.000 C 
ATOM     24  C   UNL     1      -6.625  11.521  20.827  0.00  0.00    +0.000 C 
ATOM     25  C   UNL     1      -6.182  12.846  20.204  0.00  0.00    +0.000 C 
ENDBRANCH  19  20
ENDBRANCH  17  19
ENDBRANCH   3  17
BRANCH   5  26
ATOM     26  C   UNL     1       1.845  13.615  20.361  0.00  0.00    +0.000 C 
ATOM     27  O   UNL     1       2.654  13.401  21.251  0.00  0.00    +0.000 OA
BRANCH  26  28
ATOM     28  O   UNL     1       1.781  14.740  19.619  0.00  0.00    +0.000 OA
BRANCH  28  29
ATOM     29  C   UNL     1       1.539  15.988  20.313  0.00  0.00    +0.000 C 
ATOM     30  C   UNL     1       2.075  17.142  19.462  0.00  0.00    +0.000 C 
ATOM     31  C   UNL     1       1.386  17.202  18.101  0.00  0.00    +0.000 C 
ATOM     32  C   UNL     1      -0.142  17.184  18.200  0.00  0.00    +0.000 C 
ATOM     33  C   UNL     1      -0.682  16.109  19.143  0.00  0.00    +0.000 C 
ATOM     34  C   UNL     1       0.030  16.156  20.493  0.00  0.00    +0.000 C 
ENDBRANCH  28  29
ENDBRANCH  26  28
ENDBRANCH   5  26
TORSDOF 7
ENDMDL
MODEL 6
REMARK VINA RESULT:      -6.0      2.729      4.108
REMARK  Name = 
REMARK  9 active torsions:
REMARK  status: ('A' for Active; 'I' for Inactive)
REMARK    1  A    between atoms: C_1  and  C_2
REMARK    2  A    between atoms: C_3  and  C_4
REMARK    3  A    between atoms: C_4  and  O_6
REMARK    4  A    between atoms: O_6  and  C_7
REMARK    5  A    between atoms: C_13  and  C_14
REMARK    6  A    between atoms: C_20  and  C_21
REMARK    7  A    between atoms: C_21  and  O_23
REMARK    8  A    between atoms: O_23  and  C_24
REMARK    9  A    between atoms: C_30  and  C_31
REMARK                            x       y       z     vdW  Elec       q    Type
REMARK                         _______ _______ _______ _____ _____    ______ ____
ROOT
ATOM      1  C   UNL     1      -3.190  10.761  15.940  0.00  0.00    +0.000 C 
ATOM      2  C   UNL     1      -3.376  11.470  17.256  0.00  0.00    +0.000 C 
ATOM      3  C   UNL     1      -2.660  11.316  18.399  0.00  0.00    +0.000 C 
ATOM      4  C   UNL     1      -3.096  12.092  19.666  0.00  0.00    +0.000 C 
ATOM      5  C   UNL     1      -4.608  12.374  19.622  0.00  0.00    +0.000 C 
ATOM      6  C   UNL     1      -5.212  12.561  18.423  0.00  0.00    +0.000 C 
ATOM      7  C   UNL     1      -6.644  12.973  18.192  0.00  0.00    +0.000 C 
ATOM      8  N   UNL     1      -4.486  12.330  17.255  0.00  0.00    +0.000 N 
ATOM      9  H   UNL     1      -5.061  12.267  16.417  0.00  0.00    +0.000 HD
ENDROOT
BRANCH   4  10
ATOM     10  C   UNL     1      -2.278  13.368  19.809  0.00  0.00    +0.000 A 
ATOM     11  N   UNL     1      -2.700  14.406  20.616  0.00  0.00    +0.000 N 
ATOM     12  C   UNL     1      -1.779  15.407  20.536  0.00  0.00    +0.000 A 
ATOM     13  N   UNL     1      -0.800  15.088  19.726  0.00  0.00    +0.000 NA
ATOM     14  C   UNL     1      -1.121  13.849  19.226  0.00  0.00    +0.000 A 
ATOM     15 CL   UNL     1      -0.188  13.155  17.994  0.00  0.00    +0.000 Cl
ATOM     16  H   UNL     1      -3.565  14.429  21.140  0.00  0.00    +0.000 HD
ENDBRANCH   4  10
BRANCH   3  17
ATOM     17  C   UNL     1      -1.471  10.436  18.602  0.00  0.00    +0.000 C 
ATOM     18  O   UNL     1      -0.810   9.978  17.691  0.00  0.00    +0.000 OA
BRANCH  17  19
ATOM     19  O   UNL     1      -1.265  10.203  19.918  0.00  0.00    +0.000 OA
BRANCH  19  20
ATOM     20  C   UNL     1       0.081  10.325  20.431  0.00  0.00    +0.000 C 
ATOM     21  C   UNL     1       0.180  11.449  21.471  0.00  0.00    +0.000 C 
ATOM     22  C   UNL     1      -0.704  11.195  22.692  0.00  0.00    +0.000 C 
ATOM     23  C   UNL     1      -0.464   9.819  23.312  0.00  0.00    +0.000 C 
ATOM     24  C   UNL     1      -0.475   8.685  22.290  0.00  0.00    +0.000 C 
ATOM     25  C   UNL     1       0.429   8.984  21.093  0.00  0.00    +0.000 C 
ENDBRANCH  19  20
ENDBRANCH  17  19
ENDBRANCH   3  17
BRANCH   5  26
ATOM     26  C   UNL     1      -5.415  12.262  20.866  0.00  0.00    +0.000 C 
ATOM     27  O   UNL     1      -6.367  11.506  20.991  0.00  0.00    +0.000 OA
BRANCH  26  28
ATOM     28  O   UNL     1      -4.919  13.059  21.835  0.00  0.00    +0.000 OA
BRANCH  28  29
ATOM     29  C   UNL     1      -5.443  12.890  23.176  0.00  0.00    +0.000 C 
ATOM     30  C   UNL     1      -4.282  12.589  24.128  0.00  0.00    +0.000 C 
ATOM     31  C   UNL     1      -3.262  13.723  24.145  0.00  0.00    +0.000 C 
ATOM     32  C   UNL     1      -3.896  15.098  24.380  0.00  0.00    +0.000 C 
ATOM     33  C   UNL     1      -5.129  15.360  23.516  0.00  0.00    +0.000 C 
ATOM     34  C   UNL     1      -6.114  14.197  23.599  0.00  0.00    +0.000 C 
ENDBRANCH  28  29
ENDBRANCH  26  28
ENDBRANCH   5  26
TORSDOF 7
ENDMDL
MODEL 7
REMARK VINA RESULT:      -6.0      3.343      6.917
REMARK  Name = 
REMARK  9 active torsions:
REMARK  status: ('A' for Active; 'I' for Inactive)
REMARK    1  A    between atoms: C_1  and  C_2
REMARK    2  A    between atoms: C_3  and  C_4
REMARK    3  A    between atoms: C_4  and  O_6
REMARK    4  A    between atoms: O_6  and  C_7
REMARK    5  A    between atoms: C_13  and  C_14
REMARK    6  A    between atoms: C_20  and  C_21
REMARK    7  A    between atoms: C_21  and  O_23
REMARK    8  A    between atoms: O_23  and  C_24
REMARK    9  A    between atoms: C_30  and  C_31
REMARK                            x       y       z     vdW  Elec       q    Type
REMARK                         _______ _______ _______ _____ _____    ______ ____
ROOT
ATOM      1  C   UNL     1      -2.648  12.635  23.451  0.00  0.00    +0.000 C 
ATOM      2  C   UNL     1      -1.895  12.607  22.148  0.00  0.00    +0.000 C 
ATOM      3  C   UNL     1      -2.220  13.219  20.979  0.00  0.00    +0.000 C 
ATOM      4  C   UNL     1      -1.335  12.970  19.734  0.00  0.00    +0.000 C 
ATOM      5  C   UNL     1      -0.654  11.594  19.831  0.00  0.00    +0.000 C 
ATOM      6  C   UNL     1      -0.330  11.101  21.051  0.00  0.00    +0.000 C 
ATOM      7  C   UNL     1       0.452   9.843  21.334  0.00  0.00    +0.000 C 
ATOM      8  N   UNL     1      -0.767  11.773  22.192  0.00  0.00    +0.000 N 
ATOM      9  H   UNL     1      -0.684  11.229  23.049  0.00  0.00    +0.000 HD
ENDROOT
BRANCH   4  10
ATOM     10  C   UNL     1      -0.327  14.099  19.570  0.00  0.00    +0.000 A 
ATOM     11  N   UNL     1      -0.682  15.305  19.000  0.00  0.00    +0.000 N 
ATOM     12  C   UNL     1       0.420  16.106  18.978  0.00  0.00    +0.000 A 
ATOM     13  N   UNL     1       1.461  15.494  19.485  0.00  0.00    +0.000 NA
ATOM     14  C   UNL     1       1.029  14.230  19.808  0.00  0.00    +0.000 A 
ATOM     15 CL   UNL     1       2.132  13.057  20.332  0.00  0.00    +0.000 Cl
ATOM     16  H   UNL     1      -1.595  15.533  18.628  0.00  0.00    +0.000 HD
ENDBRANCH   4  10
BRANCH   3  17
ATOM     17  C   UNL     1      -3.386  14.118  20.730  0.00  0.00    +0.000 C 
ATOM     18  O   UNL     1      -3.352  15.322  20.887  0.00  0.00    +0.000 OA
BRANCH  17  19
ATOM     19  O   UNL     1      -4.469  13.405  20.346  0.00  0.00    +0.000 OA
BRANCH  19  20
ATOM     20  C   UNL     1      -5.752  13.756  20.909  0.00  0.00    +0.000 C 
ATOM     21  C   UNL     1      -6.639  14.464  19.874  0.00  0.00    +0.000 C 
ATOM     22  C   UNL     1      -6.948  13.579  18.666  0.00  0.00    +0.000 C 
ATOM     23  C   UNL     1      -7.512  12.217  19.068  0.00  0.00    +0.000 C 
ATOM     24  C   UNL     1      -6.698  11.522  20.156  0.00  0.00    +0.000 C 
ATOM     25  C   UNL     1      -6.422  12.445  21.344  0.00  0.00    +0.000 C 
ENDBRANCH  19  20
ENDBRANCH  17  19
ENDBRANCH   3  17
BRANCH   5  26
ATOM     26  C   UNL     1      -0.524  10.748  18.614  0.00  0.00    +0.000 C 
ATOM     27  O   UNL     1       0.379   9.944  18.441  0.00  0.00    +0.000 OA
BRANCH  26  28
ATOM     28  O   UNL     1      -1.559  10.953  17.773  0.00  0.00    +0.000 OA
BRANCH  28  29
ATOM     29  C   UNL     1      -2.530   9.887  17.633  0.00  0.00    +0.000 C 
ATOM     30  C   UNL     1      -3.904  10.407  18.066  0.00  0.00    +0.000 C 
ATOM     31  C   UNL     1      -4.352  11.588  17.209  0.00  0.00    +0.000 C 
ATOM     32  C   UNL     1      -4.257  11.310  15.705  0.00  0.00    +0.000 C 
ATOM     33  C   UNL     1      -2.931  10.680  15.282  0.00  0.00    +0.000 C 
ATOM     34  C   UNL     1      -2.589   9.479  16.160  0.00  0.00    +0.000 C 
ENDBRANCH  28  29
ENDBRANCH  26  28
ENDBRANCH   5  26
TORSDOF 7
ENDMDL
MODEL 8
REMARK VINA RESULT:      -6.0      3.213      6.138
REMARK  Name = 
REMARK  9 active torsions:
REMARK  status: ('A' for Active; 'I' for Inactive)
REMARK    1  A    between atoms: C_1  and  C_2
REMARK    2  A    between atoms: C_3  and  C_4
REMARK    3  A    between atoms: C_4  and  O_6
REMARK    4  A    between atoms: O_6  and  C_7
REMARK    5  A    between atoms: C_13  and  C_14
REMARK    6  A    between atoms: C_20  and  C_21
REMARK    7  A    between atoms: C_21  and  O_23
REMARK    8  A    between atoms: O_23  and  C_24
REMARK    9  A    between atoms: C_30  and  C_31
REMARK                            x       y       z     vdW  Elec       q    Type
REMARK                         _______ _______ _______ _____ _____    ______ ____
ROOT
ATOM      1  C   UNL     1       0.328  14.148  18.247  0.00  0.00    +0.000 C 
ATOM      2  C   UNL     1      -0.563  13.487  19.265  0.00  0.00    +0.000 C 
ATOM      3  C   UNL     1      -0.976  12.194  19.303  0.00  0.00    +0.000 C 
ATOM      4  C   UNL     1      -1.974  11.759  20.404  0.00  0.00    +0.000 C 
ATOM      5  C   UNL     1      -2.834  12.956  20.845  0.00  0.00    +0.000 C 
ATOM      6  C   UNL     1      -2.300  14.201  20.812  0.00  0.00    +0.000 C 
ATOM      7  C   UNL     1      -2.940  15.467  21.325  0.00  0.00    +0.000 C 
ATOM      8  N   UNL     1      -1.049  14.388  20.226  0.00  0.00    +0.000 N 
ATOM      9  H   UNL     1      -0.823  15.363  20.035  0.00  0.00    +0.000 HD
ENDROOT
BRANCH   4  10
ATOM     10  C   UNL     1      -1.228  11.127  21.570  0.00  0.00    +0.000 A 
ATOM     11  N   UNL     1      -0.604   9.902  21.447  0.00  0.00    +0.000 N 
ATOM     12  C   UNL     1      -0.037   9.591  22.646  0.00  0.00    +0.000 A 
ATOM     13  N   UNL     1      -0.261  10.527  23.534  0.00  0.00    +0.000 NA
ATOM     14  C   UNL     1      -1.044  11.461  22.899  0.00  0.00    +0.000 A 
ATOM     15 CL   UNL     1      -1.705  12.756  23.768  0.00  0.00    +0.000 Cl
ATOM     16  H   UNL     1      -0.608   9.321  20.619  0.00  0.00    +0.000 HD
ENDBRANCH   4  10
BRANCH   3  17
ATOM     17  C   UNL     1      -0.592  11.101  18.362  0.00  0.00    +0.000 C 
ATOM     18  O   UNL     1       0.400  10.412  18.501  0.00  0.00    +0.000 OA
BRANCH  17  19
ATOM     19  O   UNL     1      -1.471  11.016  17.338  0.00  0.00    +0.000 OA
BRANCH  19  20
ATOM     20  C   UNL     1      -2.421   9.928  17.341  0.00  0.00    +0.000 C 
ATOM     21  C   UNL     1      -3.838  10.428  17.658  0.00  0.00    +0.000 C 
ATOM     22  C   UNL     1      -4.354  11.421  16.618  0.00  0.00    +0.000 C 
ATOM     23  C   UNL     1      -4.242  10.885  15.191  0.00  0.00    +0.000 C 
ATOM     24  C   UNL     1      -2.867  10.305  14.869  0.00  0.00    +0.000 C 
ATOM     25  C   UNL     1      -2.399   9.312  15.935  0.00  0.00    +0.000 C 
ENDBRANCH  19  20
ENDBRANCH  17  19
ENDBRANCH   3  17
BRANCH   5  26
ATOM     26  C   UNL     1      -4.281  12.760  21.128  0.00  0.00    +0.000 C 
ATOM     27  O   UNL     1      -4.717  12.397  22.210  0.00  0.00    +0.000 OA
BRANCH  26  28
ATOM     28  O   UNL     1      -5.030  13.088  20.055  0.00  0.00    +0.000 OA
BRANCH  28  29
ATOM     29  C   UNL     1      -6.336  13.666  20.300  0.00  0.00    +0.000 C 
ATOM     30  C   UNL     1      -6.593  14.767  19.268  0.00  0.00    +0.000 C 
ATOM     31  C   UNL     1      -6.565  14.218  17.844  0.00  0.00    +0.000 C 
ATOM     32  C   UNL     1      -7.462  12.990  17.655  0.00  0.00    +0.000 C 
ATOM     33  C   UNL     1      -7.296  11.937  18.750  0.00  0.00    +0.000 C 
ATOM     34  C   UNL     1      -7.387  12.568  20.137  0.00  0.00    +0.000 C 
ENDBRANCH  28  29
ENDBRANCH  26  28
ENDBRANCH   5  26
TORSDOF 7
ENDMDL
MODEL 9
REMARK VINA RESULT:      -6.0      3.019      6.429
REMARK  Name = 
REMARK  9 active torsions:
REMARK  status: ('A' for Active; 'I' for Inactive)
REMARK    1  A    between atoms: C_1  and  C_2
REMARK    2  A    between atoms: C_3  and  C_4
REMARK    3  A    between atoms: C_4  and  O_6
REMARK    4  A    between atoms: O_6  and  C_7
REMARK    5  A    between atoms: C_13  and  C_14
REMARK    6  A    between atoms: C_20  and  C_21
REMARK    7  A    between atoms: C_21  and  O_23
REMARK    8  A    between atoms: O_23  and  C_24
REMARK    9  A    between atoms: C_30  and  C_31
REMARK                            x       y       z     vdW  Elec       q    Type
REMARK                         _______ _______ _______ _____ _____    ______ ____
ROOT
ATOM      1  C   UNL     1       0.229   9.417  21.402  0.00  0.00    +0.000 C 
ATOM      2  C   UNL     1      -0.519  10.450  20.602  0.00  0.00    +0.000 C 
ATOM      3  C   UNL     1      -1.241  11.505  21.062  0.00  0.00    +0.000 C 
ATOM      4  C   UNL     1      -2.007  12.387  20.046  0.00  0.00    +0.000 C 
ATOM      5  C   UNL     1      -2.374  11.564  18.798  0.00  0.00    +0.000 C 
ATOM      6  C   UNL     1      -1.552  10.563  18.401  0.00  0.00    +0.000 C 
ATOM      7  C   UNL     1      -1.678   9.743  17.142  0.00  0.00    +0.000 C 
ATOM      8  N   UNL     1      -0.487  10.193  19.222  0.00  0.00    +0.000 N 
ATOM      9  H   UNL     1      -0.064   9.301  18.974  0.00  0.00    +0.000 HD
ENDROOT
BRANCH   4  10
ATOM     10  C   UNL     1      -1.189  13.622  19.699  0.00  0.00    +0.000 A 
ATOM     11  N   UNL     1      -1.689  14.894  19.891  0.00  0.00    +0.000 N 
ATOM     12  C   UNL     1      -0.745  15.789  19.483  0.00  0.00    +0.000 A 
ATOM     13  N   UNL     1       0.323  15.178  19.033  0.00  0.00    +0.000 NA
ATOM     14  C   UNL     1       0.044  13.835  19.109  0.00  0.00    +0.000 A 
ATOM     15 CL   UNL     1       1.113  12.700  18.450  0.00  0.00    +0.000 Cl
ATOM     16  H   UNL     1      -2.614  15.116  20.236  0.00  0.00    +0.000 HD
ENDBRANCH   4  10
BRANCH   3  17
ATOM     17  C   UNL     1      -1.414  11.922  22.485  0.00  0.00    +0.000 C 
ATOM     18  O   UNL     1      -0.969  11.298  23.427  0.00  0.00    +0.000 OA
BRANCH  17  19
ATOM     19  O   UNL     1      -2.153  13.051  22.568  0.00  0.00    +0.000 OA
BRANCH  19  20
ATOM     20  C   UNL     1      -3.541  12.933  22.950  0.00  0.00    +0.000 C 
ATOM     21  C   UNL     1      -3.708  13.012  24.474  0.00  0.00    +0.000 C 
ATOM     22  C   UNL     1      -3.237  14.349  25.045  0.00  0.00    +0.000 C 
ATOM     23  C   UNL     1      -3.874  15.544  24.337  0.00  0.00    +0.000 C 
ATOM     24  C   UNL     1      -3.797  15.457  22.815  0.00  0.00    +0.000 C 
ATOM     25  C   UNL     1      -4.286  14.105  22.293  0.00  0.00    +0.000 C 
ENDBRANCH  19  20
ENDBRANCH  17  19
ENDBRANCH   3  17
BRANCH   5  26
ATOM     26  C   UNL     1      -3.700  11.756  18.153  0.00  0.00    +0.000 C 
ATOM     27  O   UNL     1      -3.869  11.774  16.943  0.00  0.00    +0.000 OA
BRANCH  26  28
ATOM     28  O   UNL     1      -4.677  11.849  19.080  0.00  0.00    +0.000 OA
BRANCH  28  29
ATOM     29  C   UNL     1      -5.991  12.261  18.629  0.00  0.00    +0.000 C 
ATOM     30  C   UNL     1      -6.764  11.025  18.159  0.00  0.00    +0.000 C 
ATOM     31  C   UNL     1      -6.932  10.008  19.284  0.00  0.00    +0.000 C 
ATOM     32  C   UNL     1      -7.498  10.622  20.569  0.00  0.00    +0.000 C 
ATOM     33  C   UNL     1      -6.808  11.922  20.981  0.00  0.00    +0.000 C 
ATOM     34  C   UNL     1      -6.728  12.896  19.808  0.00  0.00    +0.000 C 
ENDBRANCH  28  29
ENDBRANCH  26  28
ENDBRANCH   5  26
TORSDOF 7
ENDMDL
