MODEL 1
REMARK VINA RESULT:      -8.6      0.000      0.000
REMARK  Name = 
REMARK  6 active torsions:
REMARK  status: ('A' for Active; 'I' for Inactive)
REMARK    1  A    between atoms: C_2  and  C_3
REMARK    2  A    between atoms: C_6  and  C_7
REMARK    3  A    between atoms: C_7  and  N_8
REMARK    4  A    between atoms: N_8  and  C_9
REMARK    5  A    between atoms: C_9  and  C_10
REMARK    6  A    between atoms: C_13  and  C_14
REMARK                            x       y       z     vdW  Elec       q    Type
REMARK                         _______ _______ _______ _____ _____    ______ ____
ROOT
ATOM      1  C   UNL     1       1.022  10.312  20.109  0.00  0.00    +0.000 C 
ATOM      2  C   UNL     1       0.639   8.958  20.723  0.00  0.00    +0.000 C 
ATOM      3  C   UNL     1       1.663   7.884  20.378  0.00  0.00    +0.000 C 
ATOM      4  C   UNL     1       1.870   7.703  18.866  0.00  0.00    +0.000 C 
ATOM      5  C   UNL     1       2.073   9.069  18.164  0.00  0.00    +0.000 C 
ATOM      6  C   UNL     1       1.057  10.149  18.578  0.00  0.00    +0.000 C 
ENDROOT
BRANCH   4   7
ATOM      7  C   UNL     1       3.025   6.770  18.626  0.00  0.00    +0.000 A 
ATOM      8  N   UNL     1       4.081   7.174  17.817  0.00  0.00    +0.000 NA
ATOM      9  N   UNL     1       5.003   6.216  17.785  0.00  0.00    +0.000 NA
ATOM     10  N   UNL     1       4.557   5.223  18.566  0.00  0.00    +0.000 N 
ATOM     11  C   UNL     1       5.257   4.033  18.799  0.00  0.00    +0.000 A 
ATOM     12  N   UNL     1       4.788   3.091  19.585  0.00  0.00    +0.000 NA
ATOM     13  C   UNL     1       3.575   3.382  20.148  0.00  0.00    +0.000 A 
ATOM     14  N   UNL     1       2.923   2.535  20.998  0.00  0.00    +0.000 N 
ATOM     15  C   UNL     1       1.739   3.116  21.396  0.00  0.00    +0.000 A 
ATOM     16  C   UNL     1       1.629   4.358  20.793  0.00  0.00    +0.000 A 
ATOM     17  C   UNL     1       2.780   4.510  20.010  0.00  0.00    +0.000 A 
ATOM     18  C   UNL     1       3.337   5.527  19.116  0.00  0.00    +0.000 A 
ATOM     19  H   UNL     1       3.272   1.628  21.279  0.00  0.00    +0.000 HD
ENDBRANCH   4   7
BRANCH   1  20
ATOM     20  C   UNL     1       0.080  11.438  20.606  0.00  0.00    +0.000 C 
BRANCH  20  21
ATOM     21  N   UNL     1      -0.675  11.985  19.464  0.00  0.00    +0.000 NA
ATOM     22  H   UNL     1      -0.267  11.645  18.595  0.00  0.00    +0.000 HD
BRANCH  21  23
ATOM     23  C   UNL     1      -2.097  11.656  19.492  0.00  0.00    +0.000 C 
BRANCH  23  27
ATOM     24  C   UNL     1      -3.513  10.440  15.561  0.00  0.00    +0.000 A 
ATOM     25  C   UNL     1      -4.303  11.253  16.379  0.00  0.00    +0.000 A 
ATOM     26  C   UNL     1      -3.852  11.627  17.657  0.00  0.00    +0.000 A 
ATOM     27  C   UNL     1      -2.601  11.202  18.131  0.00  0.00    +0.000 A 
ATOM     28  C   UNL     1      -1.829  10.363  17.313  0.00  0.00    +0.000 A 
ATOM     29  C   UNL     1      -2.275   9.990  16.037  0.00  0.00    +0.000 A 
BRANCH  24  31
ATOM     30  N   UNL     1      -4.328   9.789  13.183  0.00  0.00    +0.000 NA
ATOM     31  C   UNL     1      -3.963  10.077  14.245  0.00  0.00    +0.000 C 
ENDBRANCH  24  31
ENDBRANCH  23  27
ENDBRANCH  21  23
ENDBRANCH  20  21
ENDBRANCH   1  20
TORSDOF 6
ENDMDL
MODEL 2
REMARK VINA RESULT:      -8.4      1.617      2.691
REMARK  Name = 
REMARK  6 active torsions:
REMARK  status: ('A' for Active; 'I' for Inactive)
REMARK    1  A    between atoms: C_2  and  C_3
REMARK    2  A    between atoms: C_6  and  C_7
REMARK    3  A    between atoms: C_7  and  N_8
REMARK    4  A    between atoms: N_8  and  C_9
REMARK    5  A    between atoms: C_9  and  C_10
REMARK    6  A    between atoms: C_13  and  C_14
REMARK                            x       y       z     vdW  Elec       q    Type
REMARK                         _______ _______ _______ _____ _____    ______ ____
ROOT
ATOM      1  C   UNL     1       0.900   9.930  19.285  0.00  0.00    +0.000 C 
ATOM      2  C   UNL     1       1.949   9.391  18.303  0.00  0.00    +0.000 C 
ATOM      3  C   UNL     1       2.005   7.868  18.334  0.00  0.00    +0.000 C 
ATOM      4  C   UNL     1       2.294   7.299  19.732  0.00  0.00    +0.000 C 
ATOM      5  C   UNL     1       1.384   7.956  20.800  0.00  0.00    +0.000 C 
ATOM      6  C   UNL     1       1.303   9.490  20.704  0.00  0.00    +0.000 C 
ENDROOT
BRANCH   4   7
ATOM      7  C   UNL     1       2.140   5.802  19.706  0.00  0.00    +0.000 A 
ATOM      8  N   UNL     1       1.142   5.198  20.462  0.00  0.00    +0.000 NA
ATOM      9  N   UNL     1       1.163   3.885  20.251  0.00  0.00    +0.000 NA
ATOM     10  N   UNL     1       2.142   3.651  19.367  0.00  0.00    +0.000 N 
ATOM     11  C   UNL     1       2.472   2.381  18.879  0.00  0.00    +0.000 A 
ATOM     12  N   UNL     1       3.432   2.198  18.002  0.00  0.00    +0.000 NA
ATOM     13  C   UNL     1       4.063   3.349  17.613  0.00  0.00    +0.000 A 
ATOM     14  N   UNL     1       5.083   3.372  16.706  0.00  0.00    +0.000 N 
ATOM     15  C   UNL     1       5.498   4.672  16.523  0.00  0.00    +0.000 A 
ATOM     16  C   UNL     1       4.730   5.500  17.326  0.00  0.00    +0.000 A 
ATOM     17  C   UNL     1       3.841   4.660  18.007  0.00  0.00    +0.000 A 
ATOM     18  C   UNL     1       2.771   4.812  18.995  0.00  0.00    +0.000 A 
ATOM     19  H   UNL     1       5.460   2.551  16.250  0.00  0.00    +0.000 HD
ENDBRANCH   4   7
BRANCH   1  20
ATOM     20  C   UNL     1       0.718  11.461  19.123  0.00  0.00    +0.000 C 
BRANCH  20  21
ATOM     21  N   UNL     1      -0.715  11.772  18.983  0.00  0.00    +0.000 NA
ATOM     22  H   UNL     1      -0.862  12.320  18.136  0.00  0.00    +0.000 HD
BRANCH  21  23
ATOM     23  C   UNL     1      -1.570  10.589  18.948  0.00  0.00    +0.000 C 
BRANCH  23  27
ATOM     24  C   UNL     1      -3.457  10.170  15.050  0.00  0.00    +0.000 A 
ATOM     25  C   UNL     1      -4.007  11.018  16.017  0.00  0.00    +0.000 A 
ATOM     26  C   UNL     1      -3.406  11.135  17.282  0.00  0.00    +0.000 A 
ATOM     27  C   UNL     1      -2.244  10.415  17.596  0.00  0.00    +0.000 A 
ATOM     28  C   UNL     1      -1.717   9.545  16.629  0.00  0.00    +0.000 A 
ATOM     29  C   UNL     1      -2.312   9.429  15.363  0.00  0.00    +0.000 A 
BRANCH  24  31
ATOM     30  N   UNL     1      -4.538   9.982  12.696  0.00  0.00    +0.000 NA
ATOM     31  C   UNL     1      -4.056  10.069  13.747  0.00  0.00    +0.000 C 
ENDBRANCH  24  31
ENDBRANCH  23  27
ENDBRANCH  21  23
ENDBRANCH  20  21
ENDBRANCH   1  20
TORSDOF 6
ENDMDL
MODEL 3
REMARK VINA RESULT:      -8.3      2.147      3.451
REMARK  Name = 
REMARK  6 active torsions:
REMARK  status: ('A' for Active; 'I' for Inactive)
REMARK    1  A    between atoms: C_2  and  C_3
REMARK    2  A    between atoms: C_6  and  C_7
REMARK    3  A    between atoms: C_7  and  N_8
REMARK    4  A    between atoms: N_8  and  C_9
REMARK    5  A    between atoms: C_9  and  C_10
REMARK    6  A    between atoms: C_13  and  C_14
REMARK                            x       y       z     vdW  Elec       q    Type
REMARK                         _______ _______ _______ _____ _____    ______ ____
ROOT
ATOM      1  C   UNL     1       0.788   9.721  19.233  0.00  0.00    +0.000 C 
ATOM      2  C   UNL     1       1.908   9.235  18.302  0.00  0.00    +0.000 C 
ATOM      3  C   UNL     1       2.046   7.718  18.345  0.00  0.00    +0.000 C 
ATOM      4  C   UNL     1       2.301   7.171  19.758  0.00  0.00    +0.000 C 
ATOM      5  C   UNL     1       1.310   7.781  20.780  0.00  0.00    +0.000 C 
ATOM      6  C   UNL     1       1.150   9.308  20.671  0.00  0.00    +0.000 C 
ENDROOT
BRANCH   4   7
ATOM      7  C   UNL     1       2.230   5.668  19.734  0.00  0.00    +0.000 A 
ATOM      8  N   UNL     1       1.307   5.008  20.537  0.00  0.00    +0.000 NA
ATOM      9  N   UNL     1       1.391   3.698  20.321  0.00  0.00    +0.000 NA
ATOM     10  N   UNL     1       2.336   3.520  19.388  0.00  0.00    +0.000 N 
ATOM     11  C   UNL     1       2.711   2.271  18.880  0.00  0.00    +0.000 A 
ATOM     12  N   UNL     1       3.635   2.143  17.955  0.00  0.00    +0.000 NA
ATOM     13  C   UNL     1       4.179   3.327  17.539  0.00  0.00    +0.000 A 
ATOM     14  N   UNL     1       5.150   3.408  16.582  0.00  0.00    +0.000 N 
ATOM     15  C   UNL     1       5.482   4.730  16.383  0.00  0.00    +0.000 A 
ATOM     16  C   UNL     1       4.710   5.513  17.226  0.00  0.00    +0.000 A 
ATOM     17  C   UNL     1       3.905   4.624  17.949  0.00  0.00    +0.000 A 
ATOM     18  C   UNL     1       2.879   4.715  18.989  0.00  0.00    +0.000 A 
ATOM     19  H   UNL     1       5.550   2.610  16.104  0.00  0.00    +0.000 HD
ENDBRANCH   4   7
BRANCH   1  20
ATOM     20  C   UNL     1       0.532  11.239  19.053  0.00  0.00    +0.000 C 
BRANCH  20  21
ATOM     21  N   UNL     1      -0.417  11.447  17.945  0.00  0.00    +0.000 NA
ATOM     22  H   UNL     1       0.096  11.500  17.065  0.00  0.00    +0.000 HD
BRANCH  21  23
ATOM     23  C   UNL     1      -1.439  10.410  17.847  0.00  0.00    +0.000 C 
BRANCH  23  27
ATOM     24  C   UNL     1      -5.410  12.088  18.441  0.00  0.00    +0.000 A 
ATOM     25  C   UNL     1      -4.379  12.369  19.344  0.00  0.00    +0.000 A 
ATOM     26  C   UNL     1      -3.104  11.808  19.160  0.00  0.00    +0.000 A 
ATOM     27  C   UNL     1      -2.837  10.968  18.068  0.00  0.00    +0.000 A 
ATOM     28  C   UNL     1      -3.886  10.670  17.186  0.00  0.00    +0.000 A 
ATOM     29  C   UNL     1      -5.160  11.230  17.364  0.00  0.00    +0.000 A 
BRANCH  24  31
ATOM     30  N   UNL     1      -7.756  13.157  18.749  0.00  0.00    +0.000 NA
ATOM     31  C   UNL     1      -6.709  12.680  18.615  0.00  0.00    +0.000 C 
ENDBRANCH  24  31
ENDBRANCH  23  27
ENDBRANCH  21  23
ENDBRANCH  20  21
ENDBRANCH   1  20
TORSDOF 6
ENDMDL
MODEL 4
REMARK VINA RESULT:      -8.3      3.174      4.836
REMARK  Name = 
REMARK  6 active torsions:
REMARK  status: ('A' for Active; 'I' for Inactive)
REMARK    1  A    between atoms: C_2  and  C_3
REMARK    2  A    between atoms: C_6  and  C_7
REMARK    3  A    between atoms: C_7  and  N_8
REMARK    4  A    between atoms: N_8  and  C_9
REMARK    5  A    between atoms: C_9  and  C_10
REMARK    6  A    between atoms: C_13  and  C_14
REMARK                            x       y       z     vdW  Elec       q    Type
REMARK                         _______ _______ _______ _____ _____    ______ ____
ROOT
ATOM      1  C   UNL     1       0.635   9.761  19.059  0.00  0.00    +0.000 C 
ATOM      2  C   UNL     1       1.737   9.271  18.110  0.00  0.00    +0.000 C 
ATOM      3  C   UNL     1       1.962   7.770  18.250  0.00  0.00    +0.000 C 
ATOM      4  C   UNL     1       2.312   7.339  19.683  0.00  0.00    +0.000 C 
ATOM      5  C   UNL     1       1.335   7.967  20.708  0.00  0.00    +0.000 C 
ATOM      6  C   UNL     1       1.084   9.472  20.503  0.00  0.00    +0.000 C 
ENDROOT
BRANCH   4   7
ATOM      7  C   UNL     1       2.325   5.837  19.766  0.00  0.00    +0.000 A 
ATOM      8  N   UNL     1       1.501   5.189  20.679  0.00  0.00    +0.000 NA
ATOM      9  N   UNL     1       1.643   3.873  20.545  0.00  0.00    +0.000 NA
ATOM     10  N   UNL     1       2.527   3.678  19.558  0.00  0.00    +0.000 N 
ATOM     11  C   UNL     1       2.935   2.417  19.108  0.00  0.00    +0.000 A 
ATOM     12  N   UNL     1       3.796   2.272  18.126  0.00  0.00    +0.000 NA
ATOM     13  C   UNL     1       4.241   3.450  17.592  0.00  0.00    +0.000 A 
ATOM     14  N   UNL     1       5.134   3.512  16.561  0.00  0.00    +0.000 N 
ATOM     15  C   UNL     1       5.375   4.832  16.249  0.00  0.00    +0.000 A 
ATOM     16  C   UNL     1       4.623   5.632  17.094  0.00  0.00    +0.000 A 
ATOM     17  C   UNL     1       3.924   4.756  17.933  0.00  0.00    +0.000 A 
ATOM     18  C   UNL     1       2.971   4.868  19.039  0.00  0.00    +0.000 A 
ATOM     19  H   UNL     1       5.543   2.704  16.109  0.00  0.00    +0.000 HD
ENDBRANCH   4   7
BRANCH   1  20
ATOM     20  C   UNL     1       0.285  11.247  18.788  0.00  0.00    +0.000 C 
BRANCH  20  21
ATOM     21  N   UNL     1       1.073  12.107  19.689  0.00  0.00    +0.000 NA
ATOM     22  H   UNL     1       1.948  12.362  19.234  0.00  0.00    +0.000 HD
BRANCH  21  23
ATOM     23  C   UNL     1       0.371  13.319  20.103  0.00  0.00    +0.000 C 
BRANCH  23  27
ATOM     24  C   UNL     1      -2.829  12.521  22.942  0.00  0.00    +0.000 A 
ATOM     25  C   UNL     1      -1.550  11.993  23.148  0.00  0.00    +0.000 A 
ATOM     26  C   UNL     1      -0.524  12.236  22.219  0.00  0.00    +0.000 A 
ATOM     27  C   UNL     1      -0.758  13.016  21.075  0.00  0.00    +0.000 A 
ATOM     28  C   UNL     1      -2.053  13.516  20.864  0.00  0.00    +0.000 A 
ATOM     29  C   UNL     1      -3.078  13.278  21.792  0.00  0.00    +0.000 A 
BRANCH  24  31
ATOM     30  N   UNL     1      -4.711  12.105  24.682  0.00  0.00    +0.000 NA
ATOM     31  C   UNL     1      -3.872  12.294  23.905  0.00  0.00    +0.000 C 
ENDBRANCH  24  31
ENDBRANCH  23  27
ENDBRANCH  21  23
ENDBRANCH  20  21
ENDBRANCH   1  20
TORSDOF 6
ENDMDL
MODEL 5
REMARK VINA RESULT:      -8.3      1.528      2.765
REMARK  Name = 
REMARK  6 active torsions:
REMARK  status: ('A' for Active; 'I' for Inactive)
REMARK    1  A    between atoms: C_2  and  C_3
REMARK    2  A    between atoms: C_6  and  C_7
REMARK    3  A    between atoms: C_7  and  N_8
REMARK    4  A    between atoms: N_8  and  C_9
REMARK    5  A    between atoms: C_9  and  C_10
REMARK    6  A    between atoms: C_13  and  C_14
REMARK                            x       y       z     vdW  Elec       q    Type
REMARK                         _______ _______ _______ _____ _____    ______ ____
ROOT
ATOM      1  C   UNL     1       0.230  10.535  20.111  0.00  0.00    +0.000 C 
ATOM      2  C   UNL     1       1.306  10.288  19.045  0.00  0.00    +0.000 C 
ATOM      3  C   UNL     1       1.565   8.799  18.853  0.00  0.00    +0.000 C 
ATOM      4  C   UNL     1       1.975   8.081  20.149  0.00  0.00    +0.000 C 
ATOM      5  C   UNL     1       1.024   8.450  21.315  0.00  0.00    +0.000 C 
ATOM      6  C   UNL     1       0.737   9.957  21.445  0.00  0.00    +0.000 C 
ENDROOT
BRANCH   4   7
ATOM      7  C   UNL     1       2.020   6.597  19.908  0.00  0.00    +0.000 A 
ATOM      8  N   UNL     1       1.211   5.751  20.658  0.00  0.00    +0.000 NA
ATOM      9  N   UNL     1       1.380   4.498  20.246  0.00  0.00    +0.000 NA
ATOM     10  N   UNL     1       2.267   4.538  19.243  0.00  0.00    +0.000 N 
ATOM     11  C   UNL     1       2.702   3.411  18.535  0.00  0.00    +0.000 A 
ATOM     12  N   UNL     1       3.564   3.497  17.548  0.00  0.00    +0.000 NA
ATOM     13  C   UNL     1       3.984   4.772  17.280  0.00  0.00    +0.000 A 
ATOM     14  N   UNL     1       4.874   5.072  16.289  0.00  0.00    +0.000 N 
ATOM     15  C   UNL     1       5.087   6.433  16.269  0.00  0.00    +0.000 A 
ATOM     16  C   UNL     1       4.318   7.017  17.262  0.00  0.00    +0.000 A 
ATOM     17  C   UNL     1       3.639   5.968  17.892  0.00  0.00    +0.000 A 
ATOM     18  C   UNL     1       2.686   5.820  18.993  0.00  0.00    +0.000 A 
ATOM     19  H   UNL     1       5.300   4.388  15.676  0.00  0.00    +0.000 HD
ENDBRANCH   4   7
BRANCH   1  20
ATOM     20  C   UNL     1      -0.158  12.035  20.176  0.00  0.00    +0.000 C 
BRANCH  20  21
ATOM     21  N   UNL     1      -1.335  12.273  19.321  0.00  0.00    +0.000 NA
ATOM     22  H   UNL     1      -1.026  12.495  18.375  0.00  0.00    +0.000 HD
BRANCH  21  23
ATOM     23  C   UNL     1      -2.263  11.147  19.275  0.00  0.00    +0.000 C 
BRANCH  23  27
ATOM     24  C   UNL     1      -3.445  10.292  15.176  0.00  0.00    +0.000 A 
ATOM     25  C   UNL     1      -4.210  11.153  15.969  0.00  0.00    +0.000 A 
ATOM     26  C   UNL     1      -3.837  11.411  17.299  0.00  0.00    +0.000 A 
ATOM     27  C   UNL     1      -2.690  10.820  17.853  0.00  0.00    +0.000 A 
ATOM     28  C   UNL     1      -1.946   9.936  17.056  0.00  0.00    +0.000 A 
ATOM     29  C   UNL     1      -2.314   9.679  15.727  0.00  0.00    +0.000 A 
BRANCH  24  31
ATOM     30  N   UNL     1      -4.108   9.845  12.705  0.00  0.00    +0.000 NA
ATOM     31  C   UNL     1      -3.812  10.047  13.808  0.00  0.00    +0.000 C 
ENDBRANCH  24  31
ENDBRANCH  23  27
ENDBRANCH  21  23
ENDBRANCH  20  21
ENDBRANCH   1  20
TORSDOF 6
ENDMDL
MODEL 6
REMARK VINA RESULT:      -8.2      1.503      1.596
REMARK  Name = 
REMARK  6 active torsions:
REMARK  status: ('A' for Active; 'I' for Inactive)
REMARK    1  A    between atoms: C_2  and  C_3
REMARK    2  A    between atoms: C_6  and  C_7
REMARK    3  A    between atoms: C_7  and  N_8
REMARK    4  A    between atoms: N_8  and  C_9
REMARK    5  A    between atoms: C_9  and  C_10
REMARK    6  A    between atoms: C_13  and  C_14
REMARK                            x       y       z     vdW  Elec       q    Type
REMARK                         _______ _______ _______ _____ _____    ______ ____
ROOT
ATOM      1  C   UNL     1       1.493  10.069  19.877  0.00  0.00    +0.000 C 
ATOM      2  C   UNL     1       1.175   8.694  20.482  0.00  0.00    +0.000 C 
ATOM      3  C   UNL     1       2.069   7.610  19.893  0.00  0.00    +0.000 C 
ATOM      4  C   UNL     1       1.979   7.512  18.362  0.00  0.00    +0.000 C 
ATOM      5  C   UNL     1       2.104   8.910  17.706  0.00  0.00    +0.000 C 
ATOM      6  C   UNL     1       1.232   9.996  18.362  0.00  0.00    +0.000 C 
ENDROOT
BRANCH   4   7
ATOM      7  C   UNL     1       3.028   6.559  17.858  0.00  0.00    +0.000 A 
ATOM      8  N   UNL     1       4.231   7.053  17.367  0.00  0.00    +0.000 NA
ATOM      9  N   UNL     1       5.018   6.037  17.023  0.00  0.00    +0.000 NA
ATOM     10  N   UNL     1       4.342   4.914  17.300  0.00  0.00    +0.000 N 
ATOM     11  C   UNL     1       4.843   3.624  17.087  0.00  0.00    +0.000 A 
ATOM     12  N   UNL     1       4.151   2.549  17.385  0.00  0.00    +0.000 NA
ATOM     13  C   UNL     1       2.918   2.806  17.921  0.00  0.00    +0.000 A 
ATOM     14  N   UNL     1       2.049   1.824  18.302  0.00  0.00    +0.000 N 
ATOM     15  C   UNL     1       0.905   2.402  18.806  0.00  0.00    +0.000 A 
ATOM     16  C   UNL     1       1.042   3.780  18.749  0.00  0.00    +0.000 A 
ATOM     17  C   UNL     1       2.301   4.020  18.187  0.00  0.00    +0.000 A 
ATOM     18  C   UNL     1       3.105   5.189  17.826  0.00  0.00    +0.000 A 
ATOM     19  H   UNL     1       2.236   0.833  18.220  0.00  0.00    +0.000 HD
ENDBRANCH   4   7
BRANCH   1  20
ATOM     20  C   UNL     1       0.710  11.193  20.603  0.00  0.00    +0.000 C 
BRANCH  20  21
ATOM     21  N   UNL     1      -0.651  10.721  20.911  0.00  0.00    +0.000 NA
ATOM     22  H   UNL     1      -0.770  10.663  21.922  0.00  0.00    +0.000 HD
BRANCH  21  23
ATOM     23  C   UNL     1      -1.703  11.563  20.348  0.00  0.00    +0.000 C 
BRANCH  23  27
ATOM     24  C   UNL     1      -2.667  10.546  16.229  0.00  0.00    +0.000 A 
ATOM     25  C   UNL     1      -2.907   9.632  17.260  0.00  0.00    +0.000 A 
ATOM     26  C   UNL     1      -2.576   9.956  18.586  0.00  0.00    +0.000 A 
ATOM     27  C   UNL     1      -2.008  11.200  18.903  0.00  0.00    +0.000 A 
ATOM     28  C   UNL     1      -1.745  12.097  17.857  0.00  0.00    +0.000 A 
ATOM     29  C   UNL     1      -2.078  11.779  16.532  0.00  0.00    +0.000 A 
BRANCH  24  31
ATOM     30  N   UNL     1      -3.320   9.961  13.784  0.00  0.00    +0.000 NA
ATOM     31  C   UNL     1      -3.028  10.225  14.875  0.00  0.00    +0.000 C 
ENDBRANCH  24  31
ENDBRANCH  23  27
ENDBRANCH  21  23
ENDBRANCH  20  21
ENDBRANCH   1  20
TORSDOF 6
ENDMDL
MODEL 7
REMARK VINA RESULT:      -8.2      2.577      8.955
REMARK  Name = 
REMARK  6 active torsions:
REMARK  status: ('A' for Active; 'I' for Inactive)
REMARK    1  A    between atoms: C_2  and  C_3
REMARK    2  A    between atoms: C_6  and  C_7
REMARK    3  A    between atoms: C_7  and  N_8
REMARK    4  A    between atoms: N_8  and  C_9
REMARK    5  A    between atoms: C_9  and  C_10
REMARK    6  A    between atoms: C_13  and  C_14
REMARK                            x       y       z     vdW  Elec       q    Type
REMARK                         _______ _______ _______ _____ _____    ______ ____
ROOT
ATOM      1  C   UNL     1       3.146   5.877  19.629  0.00  0.00    +0.000 C 
ATOM      2  C   UNL     1       2.665   6.638  18.385  0.00  0.00    +0.000 C 
ATOM      3  C   UNL     1       2.172   8.034  18.746  0.00  0.00    +0.000 C 
ATOM      4  C   UNL     1       1.047   8.030  19.793  0.00  0.00    +0.000 C 
ATOM      5  C   UNL     1       1.404   7.117  20.992  0.00  0.00    +0.000 C 
ATOM      6  C   UNL     1       1.953   5.735  20.592  0.00  0.00    +0.000 C 
ENDROOT
BRANCH   4   7
ATOM      7  C   UNL     1       0.761   9.442  20.227  0.00  0.00    +0.000 A 
ATOM      8  N   UNL     1       1.422   9.972  21.329  0.00  0.00    +0.000 NA
ATOM      9  N   UNL     1       1.050  11.238  21.500  0.00  0.00    +0.000 NA
ATOM     10  N   UNL     1       0.181  11.521  20.520  0.00  0.00    +0.000 N 
ATOM     11  C   UNL     1      -0.431  12.768  20.351  0.00  0.00    +0.000 A 
ATOM     12  N   UNL     1      -1.269  13.006  19.367  0.00  0.00    +0.000 NA
ATOM     13  C   UNL     1      -1.476  11.939  18.536  0.00  0.00    +0.000 A 
ATOM     14  N   UNL     1      -2.306  11.986  17.453  0.00  0.00    +0.000 N 
ATOM     15  C   UNL     1      -2.294  10.762  16.820  0.00  0.00    +0.000 A 
ATOM     16  C   UNL     1      -1.440   9.915  17.508  0.00  0.00    +0.000 A 
ATOM     17  C   UNL     1      -0.941  10.661  18.582  0.00  0.00    +0.000 A 
ATOM     18  C   UNL     1      -0.023  10.439  19.702  0.00  0.00    +0.000 A 
ATOM     19  H   UNL     1      -2.837  12.801  17.175  0.00  0.00    +0.000 HD
ENDBRANCH   4   7
BRANCH   1  20
ATOM     20  C   UNL     1       3.809   4.532  19.238  0.00  0.00    +0.000 C 
BRANCH  20  21
ATOM     21  N   UNL     1       4.019   4.495  17.780  0.00  0.00    +0.000 NA
ATOM     22  H   UNL     1       3.683   5.364  17.367  0.00  0.00    +0.000 HD
BRANCH  21  23
ATOM     23  C   UNL     1       5.411   4.282  17.394  0.00  0.00    +0.000 C 
BRANCH  23  27
ATOM     24  C   UNL     1       7.739   7.914  17.965  0.00  0.00    +0.000 A 
ATOM     25  C   UNL     1       6.675   7.889  17.058  0.00  0.00    +0.000 A 
ATOM     26  C   UNL     1       5.938   6.709  16.861  0.00  0.00    +0.000 A 
ATOM     27  C   UNL     1       6.248   5.540  17.574  0.00  0.00    +0.000 A 
ATOM     28  C   UNL     1       7.335   5.569  18.460  0.00  0.00    +0.000 A 
ATOM     29  C   UNL     1       8.071   6.746  18.661  0.00  0.00    +0.000 A 
BRANCH  24  31
ATOM     30  N   UNL     1       9.075  10.105  18.367  0.00  0.00    +0.000 NA
ATOM     31  C   UNL     1       8.477   9.128  18.185  0.00  0.00    +0.000 C 
ENDBRANCH  24  31
ENDBRANCH  23  27
ENDBRANCH  21  23
ENDBRANCH  20  21
ENDBRANCH   1  20
TORSDOF 6
ENDMDL
MODEL 8
REMARK VINA RESULT:      -8.2      5.503      9.218
REMARK  Name = 
REMARK  6 active torsions:
REMARK  status: ('A' for Active; 'I' for Inactive)
REMARK    1  A    between atoms: C_2  and  C_3
REMARK    2  A    between atoms: C_6  and  C_7
REMARK    3  A    between atoms: C_7  and  N_8
REMARK    4  A    between atoms: N_8  and  C_9
REMARK    5  A    between atoms: C_9  and  C_10
REMARK    6  A    between atoms: C_13  and  C_14
REMARK                            x       y       z     vdW  Elec       q    Type
REMARK                         _______ _______ _______ _____ _____    ______ ____
ROOT
ATOM      1  C   UNL     1       6.829   6.944  17.460  0.00  0.00    +0.000 C 
ATOM      2  C   UNL     1       6.033   6.435  16.250  0.00  0.00    +0.000 C 
ATOM      3  C   UNL     1       4.894   5.520  16.682  0.00  0.00    +0.000 C 
ATOM      4  C   UNL     1       5.363   4.314  17.511  0.00  0.00    +0.000 C 
ATOM      5  C   UNL     1       6.329   4.755  18.638  0.00  0.00    +0.000 C 
ATOM      6  C   UNL     1       7.434   5.725  18.181  0.00  0.00    +0.000 C 
ENDROOT
BRANCH   4   7
ATOM      7  C   UNL     1       4.165   3.580  18.051  0.00  0.00    +0.000 A 
ATOM      8  N   UNL     1       4.030   2.216  17.819  0.00  0.00    +0.000 NA
ATOM      9  N   UNL     1       2.930   1.774  18.423  0.00  0.00    +0.000 NA
ATOM     10  N   UNL     1       2.379   2.826  19.043  0.00  0.00    +0.000 N 
ATOM     11  C   UNL     1       1.205   2.762  19.803  0.00  0.00    +0.000 A 
ATOM     12  N   UNL     1       0.706   3.818  20.405  0.00  0.00    +0.000 NA
ATOM     13  C   UNL     1       1.435   4.962  20.226  0.00  0.00    +0.000 A 
ATOM     14  N   UNL     1       1.086   6.163  20.773  0.00  0.00    +0.000 N 
ATOM     15  C   UNL     1       2.018   7.112  20.416  0.00  0.00    +0.000 A 
ATOM     16  C   UNL     1       2.984   6.510  19.626  0.00  0.00    +0.000 A 
ATOM     17  C   UNL     1       2.604   5.168  19.509  0.00  0.00    +0.000 A 
ATOM     18  C   UNL     1       3.115   3.967  18.845  0.00  0.00    +0.000 A 
ATOM     19  H   UNL     1       0.267   6.312  21.350  0.00  0.00    +0.000 HD
ENDBRANCH   4   7
BRANCH   1  20
ATOM     20  C   UNL     1       7.870   8.011  17.035  0.00  0.00    +0.000 C 
BRANCH  20  21
ATOM     21  N   UNL     1       7.799   9.159  17.956  0.00  0.00    +0.000 NA
ATOM     22  H   UNL     1       6.878   9.187  18.391  0.00  0.00    +0.000 HD
BRANCH  21  23
ATOM     23  C   UNL     1       8.824   9.139  18.995  0.00  0.00    +0.000 C 
BRANCH  23  27
ATOM     24  C   UNL     1      10.863  12.958  19.433  0.00  0.00    +0.000 A 
ATOM     25  C   UNL     1      10.421  12.258  20.560  0.00  0.00    +0.000 A 
ATOM     26  C   UNL     1       9.745  11.034  20.414  0.00  0.00    +0.000 A 
ATOM     27  C   UNL     1       9.509  10.490  19.142  0.00  0.00    +0.000 A 
ATOM     28  C   UNL     1       9.931  11.215  18.018  0.00  0.00    +0.000 A 
ATOM     29  C   UNL     1      10.610  12.435  18.160  0.00  0.00    +0.000 A 
BRANCH  24  31
ATOM     30  N   UNL     1      12.149  15.198  19.706  0.00  0.00    +0.000 NA
ATOM     31  C   UNL     1      11.577  14.197  19.583  0.00  0.00    +0.000 C 
ENDBRANCH  24  31
ENDBRANCH  23  27
ENDBRANCH  21  23
ENDBRANCH  20  21
ENDBRANCH   1  20
TORSDOF 6
ENDMDL
MODEL 9
REMARK VINA RESULT:      -8.1      1.854      3.134
REMARK  Name = 
REMARK  6 active torsions:
REMARK  status: ('A' for Active; 'I' for Inactive)
REMARK    1  A    between atoms: C_2  and  C_3
REMARK    2  A    between atoms: C_6  and  C_7
REMARK    3  A    between atoms: C_7  and  N_8
REMARK    4  A    between atoms: N_8  and  C_9
REMARK    5  A    between atoms: C_9  and  C_10
REMARK    6  A    between atoms: C_13  and  C_14
REMARK                            x       y       z     vdW  Elec       q    Type
REMARK                         _______ _______ _______ _____ _____    ______ ____
ROOT
ATOM      1  C   UNL     1       0.533   9.322  19.859  0.00  0.00    +0.000 C 
ATOM      2  C   UNL     1       1.486   9.660  18.704  0.00  0.00    +0.000 C 
ATOM      3  C   UNL     1       2.006   8.398  18.027  0.00  0.00    +0.000 C 
ATOM      4  C   UNL     1       2.716   7.438  18.994  0.00  0.00    +0.000 C 
ATOM      5  C   UNL     1       1.874   7.211  20.274  0.00  0.00    +0.000 C 
ATOM      6  C   UNL     1       1.316   8.501  20.900  0.00  0.00    +0.000 C 
ENDROOT
BRANCH   4   7
ATOM      7  C   UNL     1       3.021   6.146  18.285  0.00  0.00    +0.000 A 
ATOM      8  N   UNL     1       2.038   5.169  18.180  0.00  0.00    +0.000 NA
ATOM      9  N   UNL     1       2.511   4.141  17.480  0.00  0.00    +0.000 NA
ATOM     10  N   UNL     1       3.764   4.457  17.128  0.00  0.00    +0.000 N 
ATOM     11  C   UNL     1       4.598   3.629  16.367  0.00  0.00    +0.000 A 
ATOM     12  N   UNL     1       5.818   3.985  16.033  0.00  0.00    +0.000 NA
ATOM     13  C   UNL     1       6.185   5.222  16.487  0.00  0.00    +0.000 A 
ATOM     14  N   UNL     1       7.409   5.774  16.243  0.00  0.00    +0.000 N 
ATOM     15  C   UNL     1       7.468   7.022  16.824  0.00  0.00    +0.000 A 
ATOM     16  C   UNL     1       6.260   7.276  17.452  0.00  0.00    +0.000 A 
ATOM     17  C   UNL     1       5.469   6.140  17.241  0.00  0.00    +0.000 A 
ATOM     18  C   UNL     1       4.121   5.695  17.599  0.00  0.00    +0.000 A 
ATOM     19  H   UNL     1       8.145   5.322  15.713  0.00  0.00    +0.000 HD
ENDBRANCH   4   7
BRANCH   1  20
ATOM     20  C   UNL     1      -0.131  10.602  20.428  0.00  0.00    +0.000 C 
BRANCH  20  21
ATOM     21  N   UNL     1      -1.567  10.597  20.098  0.00  0.00    +0.000 NA
ATOM     22  H   UNL     1      -2.113  10.621  20.958  0.00  0.00    +0.000 HD
BRANCH  21  23
ATOM     23  C   UNL     1      -1.973  11.705  19.237  0.00  0.00    +0.000 C 
BRANCH  23  27
ATOM     24  C   UNL     1      -3.527  10.387  15.392  0.00  0.00    +0.000 A 
ATOM     25  C   UNL     1      -4.256  11.281  16.183  0.00  0.00    +0.000 A 
ATOM     26  C   UNL     1      -3.761  11.688  17.434  0.00  0.00    +0.000 A 
ATOM     27  C   UNL     1      -2.527  11.217  17.908  0.00  0.00    +0.000 A 
ATOM     28  C   UNL     1      -1.817  10.298  17.119  0.00  0.00    +0.000 A 
ATOM     29  C   UNL     1      -2.307   9.892  15.869  0.00  0.00    +0.000 A 
BRANCH  24  31
ATOM     30  N   UNL     1      -4.416   9.663  13.062  0.00  0.00    +0.000 NA
ATOM     31  C   UNL     1      -4.021   9.988  14.103  0.00  0.00    +0.000 C 
ENDBRANCH  24  31
ENDBRANCH  23  27
ENDBRANCH  21  23
ENDBRANCH  20  21
ENDBRANCH   1  20
TORSDOF 6
ENDMDL
