MODEL 1
REMARK VINA RESULT:      -6.3      0.000      0.000
REMARK  Name = 
REMARK  9 active torsions:
REMARK  status: ('A' for Active; 'I' for Inactive)
REMARK    1  A    between atoms: C_1  and  S_2
REMARK    2  A    between atoms: S_2  and  C_3
REMARK    3  A    between atoms: C_3  and  C_4
REMARK    4  A    between atoms: C_4  and  C_5
REMARK    5  A    between atoms: C_5  and  N_6
REMARK    6  A    between atoms: C_8  and  C_9
REMARK    7  A    between atoms: C_12  and  N_13
REMARK    8  A    between atoms: C_14  and  C_16
REMARK    9  A    between atoms: N_19  and  C_20
REMARK                            x       y       z     vdW  Elec       q    Type
REMARK                         _______ _______ _______ _____ _____    ______ ____
ROOT
ATOM      1  N   UNL     1       3.629   4.891  18.653  0.00  0.00    +0.000 NA
ATOM      2  C   UNL     1       4.825   4.027  18.777  0.00  0.00    +0.000 C 
ATOM      3  C   UNL     1       6.039   4.795  18.228  0.00  0.00    +0.000 C 
ATOM      4  C   UNL     1       5.398   5.628  17.107  0.00  0.00    +0.000 C 
ATOM      5  C   UNL     1       3.934   5.827  17.548  0.00  0.00    +0.000 C 
ENDROOT
BRANCH   4   6
ATOM      6  N   UNL     1       5.485   4.957  15.819  0.00  0.00    +0.000 N 
ATOM      7  C   UNL     1       6.597   5.114  15.012  0.00  0.00    +0.000 C 
ATOM      8  O   UNL     1       7.541   5.835  15.309  0.00  0.00    +0.000 OA
ATOM      9  H   UNL     1       4.801   4.251  15.596  0.00  0.00    +0.000 HD
BRANCH   7  10
ATOM     10  C   UNL     1       6.565   4.377  13.765  0.00  0.00    +0.000 A 
ATOM     11  C   UNL     1       7.410   4.595  12.649  0.00  0.00    +0.000 A 
ATOM     12  N   UNL     1       7.144   3.778  11.627  0.00  0.00    +0.000 NA
ATOM     13  N   UNL     1       6.119   3.038  12.075  0.00  0.00    +0.000 N 
ATOM     14  C   UNL     1       5.509   2.054  11.216  0.00  0.00    +0.000 C 
ATOM     15  C   UNL     1       5.742   3.344  13.352  0.00  0.00    +0.000 A 
ENDBRANCH   7  10
ENDBRANCH   4   6
BRANCH   3  16
ATOM     16  C   UNL     1       6.743   5.672  19.248  0.00  0.00    +0.000 C 
ATOM     17  C   UNL     1       7.884   6.550  18.792  0.00  0.00    +0.000 C 
ATOM     18  C   UNL     1       8.151   5.412  19.732  0.00  0.00    +0.000 C 
ENDBRANCH   3  16
BRANCH   1  19
ATOM     19  C   UNL     1       3.318   5.588  19.917  0.00  0.00    +0.000 C 
BRANCH  19  20
ATOM     20  C   UNL     1       1.985   5.172  20.570  0.00  0.00    +0.000 C 
BRANCH  20  21
ATOM     21  C   UNL     1       2.121   3.972  21.519  0.00  0.00    +0.000 C 
BRANCH  21  23
ATOM     22  C   UNL     1       0.745   2.924  19.339  0.00  0.00    +0.000 C 
ATOM     23  S   UNL     1       1.880   2.387  20.635  0.00  0.00    +0.000 S 
ENDBRANCH  21  23
ENDBRANCH  20  21
ENDBRANCH  19  20
ENDBRANCH   1  19
TORSDOF 7
ENDMDL
MODEL 2
REMARK VINA RESULT:      -6.0      3.882      7.918
REMARK  Name = 
REMARK  9 active torsions:
REMARK  status: ('A' for Active; 'I' for Inactive)
REMARK    1  A    between atoms: C_1  and  S_2
REMARK    2  A    between atoms: S_2  and  C_3
REMARK    3  A    between atoms: C_3  and  C_4
REMARK    4  A    between atoms: C_4  and  C_5
REMARK    5  A    between atoms: C_5  and  N_6
REMARK    6  A    between atoms: C_8  and  C_9
REMARK    7  A    between atoms: C_12  and  N_13
REMARK    8  A    between atoms: C_14  and  C_16
REMARK    9  A    between atoms: N_19  and  C_20
REMARK                            x       y       z     vdW  Elec       q    Type
REMARK                         _______ _______ _______ _____ _____    ______ ____
ROOT
ATOM      1  N   UNL     1       5.793   6.043  18.042  0.00  0.00    +0.000 NA
ATOM      2  C   UNL     1       5.393   5.100  19.111  0.00  0.00    +0.000 C 
ATOM      3  C   UNL     1       3.950   4.640  18.840  0.00  0.00    +0.000 C 
ATOM      4  C   UNL     1       3.340   5.896  18.199  0.00  0.00    +0.000 C 
ATOM      5  C   UNL     1       4.527   6.621  17.536  0.00  0.00    +0.000 C 
ENDROOT
BRANCH   4   6
ATOM      6  N   UNL     1       2.678   6.738  19.185  0.00  0.00    +0.000 N 
ATOM      7  C   UNL     1       2.055   7.913  18.808  0.00  0.00    +0.000 C 
ATOM      8  O   UNL     1       2.048   8.327  17.655  0.00  0.00    +0.000 OA
ATOM      9  H   UNL     1       2.540   6.374  20.114  0.00  0.00    +0.000 HD
BRANCH   7  10
ATOM     10  C   UNL     1       1.418   8.647  19.883  0.00  0.00    +0.000 A 
ATOM     11  C   UNL     1       0.836   9.935  19.780  0.00  0.00    +0.000 A 
ATOM     12  N   UNL     1       0.338  10.375  20.937  0.00  0.00    +0.000 NA
ATOM     13  N   UNL     1       0.608   9.379  21.795  0.00  0.00    +0.000 N 
ATOM     14  C   UNL     1       0.257   9.510  23.187  0.00  0.00    +0.000 C 
ATOM     15  C   UNL     1       1.239   8.316  21.215  0.00  0.00    +0.000 A 
ENDBRANCH   7  10
ENDBRANCH   4   6
BRANCH   3  16
ATOM     16  C   UNL     1       3.837   3.431  17.928  0.00  0.00    +0.000 C 
ATOM     17  C   UNL     1       2.549   3.205  17.173  0.00  0.00    +0.000 C 
ATOM     18  C   UNL     1       2.965   2.237  18.241  0.00  0.00    +0.000 C 
ENDBRANCH   3  16
BRANCH   1  19
ATOM     19  C   UNL     1       6.576   5.378  16.983  0.00  0.00    +0.000 C 
BRANCH  19  20
ATOM     20  C   UNL     1       5.917   5.391  15.590  0.00  0.00    +0.000 C 
BRANCH  20  21
ATOM     21  C   UNL     1       5.985   4.034  14.873  0.00  0.00    +0.000 C 
BRANCH  21  23
ATOM     22  C   UNL     1       5.735   3.231  12.220  0.00  0.00    +0.000 C 
ATOM     23  S   UNL     1       6.866   4.163  13.273  0.00  0.00    +0.000 S 
ENDBRANCH  21  23
ENDBRANCH  20  21
ENDBRANCH  19  20
ENDBRANCH   1  19
TORSDOF 7
ENDMDL
MODEL 3
REMARK VINA RESULT:      -6.0      3.408      5.897
REMARK  Name = 
REMARK  9 active torsions:
REMARK  status: ('A' for Active; 'I' for Inactive)
REMARK    1  A    between atoms: C_1  and  S_2
REMARK    2  A    between atoms: S_2  and  C_3
REMARK    3  A    between atoms: C_3  and  C_4
REMARK    4  A    between atoms: C_4  and  C_5
REMARK    5  A    between atoms: C_5  and  N_6
REMARK    6  A    between atoms: C_8  and  C_9
REMARK    7  A    between atoms: C_12  and  N_13
REMARK    8  A    between atoms: C_14  and  C_16
REMARK    9  A    between atoms: N_19  and  C_20
REMARK                            x       y       z     vdW  Elec       q    Type
REMARK                         _______ _______ _______ _____ _____    ______ ____
ROOT
ATOM      1  N   UNL     1       4.385   5.734  18.431  0.00  0.00    +0.000 NA
ATOM      2  C   UNL     1       4.076   6.401  17.146  0.00  0.00    +0.000 C 
ATOM      3  C   UNL     1       5.301   6.273  16.224  0.00  0.00    +0.000 C 
ATOM      4  C   UNL     1       6.456   6.321  17.236  0.00  0.00    +0.000 C 
ATOM      5  C   UNL     1       5.861   5.769  18.546  0.00  0.00    +0.000 C 
ENDROOT
BRANCH   4   6
ATOM      6  N   UNL     1       6.969   7.672  17.405  0.00  0.00    +0.000 N 
ATOM      7  C   UNL     1       8.036   7.924  18.247  0.00  0.00    +0.000 C 
ATOM      8  O   UNL     1       8.583   7.053  18.913  0.00  0.00    +0.000 OA
ATOM      9  H   UNL     1       6.645   8.393  16.779  0.00  0.00    +0.000 HD
BRANCH   7  10
ATOM     10  C   UNL     1       8.461   9.308  18.311  0.00  0.00    +0.000 A 
ATOM     11  C   UNL     1       9.316   9.872  19.289  0.00  0.00    +0.000 A 
ATOM     12  N   UNL     1       9.522  11.178  19.111  0.00  0.00    +0.000 NA
ATOM     13  N   UNL     1       8.791  11.466  18.023  0.00  0.00    +0.000 N 
ATOM     14  C   UNL     1       8.721  12.822  17.538  0.00  0.00    +0.000 C 
ATOM     15  C   UNL     1       8.148  10.383  17.496  0.00  0.00    +0.000 A 
ENDBRANCH   7  10
ENDBRANCH   4   6
BRANCH   3  16
ATOM     16  C   UNL     1       5.333   5.002  15.394  0.00  0.00    +0.000 C 
ATOM     17  C   UNL     1       6.516   4.073  15.526  0.00  0.00    +0.000 C 
ATOM     18  C   UNL     1       6.278   4.795  14.233  0.00  0.00    +0.000 C 
ENDBRANCH   3  16
BRANCH   1  19
ATOM     19  C   UNL     1       3.844   4.362  18.486  0.00  0.00    +0.000 C 
BRANCH  19  20
ATOM     20  C   UNL     1       2.476   4.182  17.799  0.00  0.00    +0.000 C 
BRANCH  20  21
ATOM     21  C   UNL     1       1.389   3.644  18.742  0.00  0.00    +0.000 C 
BRANCH  21  23
ATOM     22  C   UNL     1       1.929   2.904  21.369  0.00  0.00    +0.000 C 
ATOM     23  S   UNL     1       1.525   4.380  20.412  0.00  0.00    +0.000 S 
ENDBRANCH  21  23
ENDBRANCH  20  21
ENDBRANCH  19  20
ENDBRANCH   1  19
TORSDOF 7
ENDMDL
MODEL 4
REMARK VINA RESULT:      -6.0      0.789      1.070
REMARK  Name = 
REMARK  9 active torsions:
REMARK  status: ('A' for Active; 'I' for Inactive)
REMARK    1  A    between atoms: C_1  and  S_2
REMARK    2  A    between atoms: S_2  and  C_3
REMARK    3  A    between atoms: C_3  and  C_4
REMARK    4  A    between atoms: C_4  and  C_5
REMARK    5  A    between atoms: C_5  and  N_6
REMARK    6  A    between atoms: C_8  and  C_9
REMARK    7  A    between atoms: C_12  and  N_13
REMARK    8  A    between atoms: C_14  and  C_16
REMARK    9  A    between atoms: N_19  and  C_20
REMARK                            x       y       z     vdW  Elec       q    Type
REMARK                         _______ _______ _______ _____ _____    ______ ____
ROOT
ATOM      1  N   UNL     1       3.522   5.037  18.519  0.00  0.00    +0.000 NA
ATOM      2  C   UNL     1       4.704   4.156  18.654  0.00  0.00    +0.000 C 
ATOM      3  C   UNL     1       5.909   4.854  18.001  0.00  0.00    +0.000 C 
ATOM      4  C   UNL     1       5.237   5.621  16.852  0.00  0.00    +0.000 C 
ATOM      5  C   UNL     1       3.798   5.886  17.338  0.00  0.00    +0.000 C 
ENDROOT
BRANCH   4   6
ATOM      6  N   UNL     1       5.255   4.860  15.612  0.00  0.00    +0.000 N 
ATOM      7  C   UNL     1       6.362   4.879  14.785  0.00  0.00    +0.000 C 
ATOM      8  O   UNL     1       7.362   5.547  15.021  0.00  0.00    +0.000 OA
ATOM      9  H   UNL     1       4.518   4.193  15.445  0.00  0.00    +0.000 HD
BRANCH   7  10
ATOM     10  C   UNL     1       6.258   4.064  13.592  0.00  0.00    +0.000 A 
ATOM     11  C   UNL     1       5.053   3.634  12.982  0.00  0.00    +0.000 A 
ATOM     12  N   UNL     1       5.258   2.876  11.902  0.00  0.00    +0.000 NA
ATOM     13  N   UNL     1       6.595   2.804  11.818  0.00  0.00    +0.000 N 
ATOM     14  C   UNL     1       7.212   2.013  10.783  0.00  0.00    +0.000 C 
ATOM     15  C   UNL     1       7.242   3.507  12.794  0.00  0.00    +0.000 A 
ENDBRANCH   7  10
ENDBRANCH   4   6
BRANCH   3  16
ATOM     16  C   UNL     1       6.675   5.783  18.927  0.00  0.00    +0.000 C 
ATOM     17  C   UNL     1       7.744   6.676  18.343  0.00  0.00    +0.000 C 
ATOM     18  C   UNL     1       8.127   5.578  19.290  0.00  0.00    +0.000 C 
ENDBRANCH   3  16
BRANCH   1  19
ATOM     19  C   UNL     1       3.280   5.828  19.741  0.00  0.00    +0.000 C 
BRANCH  19  20
ATOM     20  C   UNL     1       2.076   5.360  20.583  0.00  0.00    +0.000 C 
BRANCH  20  21
ATOM     21  C   UNL     1       1.229   4.284  19.886  0.00  0.00    +0.000 C 
BRANCH  21  23
ATOM     22  C   UNL     1       1.826   1.757  18.885  0.00  0.00    +0.000 C 
ATOM     23  S   UNL     1       1.666   2.605  20.470  0.00  0.00    +0.000 S 
ENDBRANCH  21  23
ENDBRANCH  20  21
ENDBRANCH  19  20
ENDBRANCH   1  19
TORSDOF 7
ENDMDL
MODEL 5
REMARK VINA RESULT:      -5.9      3.870      7.468
REMARK  Name = 
REMARK  9 active torsions:
REMARK  status: ('A' for Active; 'I' for Inactive)
REMARK    1  A    between atoms: C_1  and  S_2
REMARK    2  A    between atoms: S_2  and  C_3
REMARK    3  A    between atoms: C_3  and  C_4
REMARK    4  A    between atoms: C_4  and  C_5
REMARK    5  A    between atoms: C_5  and  N_6
REMARK    6  A    between atoms: C_8  and  C_9
REMARK    7  A    between atoms: C_12  and  N_13
REMARK    8  A    between atoms: C_14  and  C_16
REMARK    9  A    between atoms: N_19  and  C_20
REMARK                            x       y       z     vdW  Elec       q    Type
REMARK                         _______ _______ _______ _____ _____    ______ ____
ROOT
ATOM      1  N   UNL     1       6.466   6.222  16.371  0.00  0.00    +0.000 NA
ATOM      2  C   UNL     1       6.497   6.228  17.852  0.00  0.00    +0.000 C 
ATOM      3  C   UNL     1       5.194   5.595  18.368  0.00  0.00    +0.000 C 
ATOM      4  C   UNL     1       4.190   6.028  17.289  0.00  0.00    +0.000 C 
ATOM      5  C   UNL     1       5.031   6.200  16.009  0.00  0.00    +0.000 C 
ENDROOT
BRANCH   4   6
ATOM      6  N   UNL     1       3.505   7.260  17.652  0.00  0.00    +0.000 N 
ATOM      7  C   UNL     1       2.480   7.253  18.580  0.00  0.00    +0.000 C 
ATOM      8  O   UNL     1       2.071   6.232  19.117  0.00  0.00    +0.000 OA
ATOM      9  H   UNL     1       3.895   8.137  17.343  0.00  0.00    +0.000 HD
BRANCH   7  10
ATOM     10  C   UNL     1       1.896   8.549  18.865  0.00  0.00    +0.000 A 
ATOM     11  C   UNL     1       1.861   9.658  17.984  0.00  0.00    +0.000 A 
ATOM     12  N   UNL     1       1.276  10.731  18.520  0.00  0.00    +0.000 NA
ATOM     13  N   UNL     1       0.941  10.323  19.754  0.00  0.00    +0.000 N 
ATOM     14  C   UNL     1       0.318  11.241  20.673  0.00  0.00    +0.000 C 
ATOM     15  C   UNL     1       1.275   9.023  20.008  0.00  0.00    +0.000 A 
ENDBRANCH   7  10
ENDBRANCH   4   6
BRANCH   3  16
ATOM     16  C   UNL     1       5.244   4.084  18.516  0.00  0.00    +0.000 C 
ATOM     17  C   UNL     1       4.101   3.259  17.976  0.00  0.00    +0.000 C 
ATOM     18  C   UNL     1       4.344   3.314  19.455  0.00  0.00    +0.000 C 
ENDBRANCH   3  16
BRANCH   1  19
ATOM     19  C   UNL     1       7.210   5.078  15.808  0.00  0.00    +0.000 C 
BRANCH  19  20
ATOM     20  C   UNL     1       7.079   4.914  14.281  0.00  0.00    +0.000 C 
BRANCH  20  21
ATOM     21  C   UNL     1       6.080   3.822  13.871  0.00  0.00    +0.000 C 
BRANCH  21  23
ATOM     22  C   UNL     1       4.543   3.166  11.646  0.00  0.00    +0.000 C 
ATOM     23  S   UNL     1       6.276   3.361  12.110  0.00  0.00    +0.000 S 
ENDBRANCH  21  23
ENDBRANCH  20  21
ENDBRANCH  19  20
ENDBRANCH   1  19
TORSDOF 7
ENDMDL
MODEL 6
REMARK VINA RESULT:      -5.9      2.954      4.424
REMARK  Name = 
REMARK  9 active torsions:
REMARK  status: ('A' for Active; 'I' for Inactive)
REMARK    1  A    between atoms: C_1  and  S_2
REMARK    2  A    between atoms: S_2  and  C_3
REMARK    3  A    between atoms: C_3  and  C_4
REMARK    4  A    between atoms: C_4  and  C_5
REMARK    5  A    between atoms: C_5  and  N_6
REMARK    6  A    between atoms: C_8  and  C_9
REMARK    7  A    between atoms: C_12  and  N_13
REMARK    8  A    between atoms: C_14  and  C_16
REMARK    9  A    between atoms: N_19  and  C_20
REMARK                            x       y       z     vdW  Elec       q    Type
REMARK                         _______ _______ _______ _____ _____    ______ ____
ROOT
ATOM      1  N   UNL     1       2.468   6.878  19.296  0.00  0.00    +0.000 NA
ATOM      2  C   UNL     1       1.599   6.066  18.413  0.00  0.00    +0.000 C 
ATOM      3  C   UNL     1       2.097   4.611  18.445  0.00  0.00    +0.000 C 
ATOM      4  C   UNL     1       3.611   4.805  18.618  0.00  0.00    +0.000 C 
ATOM      5  C   UNL     1       3.759   6.154  19.349  0.00  0.00    +0.000 C 
ENDROOT
BRANCH   4   6
ATOM      6  N   UNL     1       4.305   4.809  17.338  0.00  0.00    +0.000 N 
ATOM      7  C   UNL     1       5.640   4.460  17.255  0.00  0.00    +0.000 C 
ATOM      8  O   UNL     1       6.316   4.166  18.233  0.00  0.00    +0.000 OA
ATOM      9  H   UNL     1       3.760   4.909  16.495  0.00  0.00    +0.000 HD
BRANCH   7  10
ATOM     10  C   UNL     1       6.204   4.486  15.920  0.00  0.00    +0.000 A 
ATOM     11  C   UNL     1       7.285   5.295  15.490  0.00  0.00    +0.000 A 
ATOM     12  N   UNL     1       7.581   5.124  14.200  0.00  0.00    +0.000 NA
ATOM     13  N   UNL     1       6.685   4.215  13.789  0.00  0.00    +0.000 N 
ATOM     14  C   UNL     1       6.656   3.801  12.408  0.00  0.00    +0.000 C 
ATOM     15  C   UNL     1       5.847   3.788  14.780  0.00  0.00    +0.000 A 
ENDBRANCH   7  10
ENDBRANCH   4   6
BRANCH   3  16
ATOM     16  C   UNL     1       1.507   3.769  19.562  0.00  0.00    +0.000 C 
ATOM     17  C   UNL     1       1.993   2.351  19.742  0.00  0.00    +0.000 C 
ATOM     18  C   UNL     1       0.577   2.603  19.316  0.00  0.00    +0.000 C 
ENDBRANCH   3  16
BRANCH   1  19
ATOM     19  C   UNL     1       1.872   7.072  20.631  0.00  0.00    +0.000 C 
BRANCH  19  20
ATOM     20  C   UNL     1       1.181   8.435  20.836  0.00  0.00    +0.000 C 
BRANCH  20  21
ATOM     21  C   UNL     1       1.383   9.014  22.245  0.00  0.00    +0.000 C 
BRANCH  21  23
ATOM     22  C   UNL     1      -0.537  11.003  21.933  0.00  0.00    +0.000 C 
ATOM     23  S   UNL     1      -0.201   9.569  22.976  0.00  0.00    +0.000 S 
ENDBRANCH  21  23
ENDBRANCH  20  21
ENDBRANCH  19  20
ENDBRANCH   1  19
TORSDOF 7
ENDMDL
MODEL 7
REMARK VINA RESULT:      -5.9      3.979      8.071
REMARK  Name = 
REMARK  9 active torsions:
REMARK  status: ('A' for Active; 'I' for Inactive)
REMARK    1  A    between atoms: C_1  and  S_2
REMARK    2  A    between atoms: S_2  and  C_3
REMARK    3  A    between atoms: C_3  and  C_4
REMARK    4  A    between atoms: C_4  and  C_5
REMARK    5  A    between atoms: C_5  and  N_6
REMARK    6  A    between atoms: C_8  and  C_9
REMARK    7  A    between atoms: C_12  and  N_13
REMARK    8  A    between atoms: C_14  and  C_16
REMARK    9  A    between atoms: N_19  and  C_20
REMARK                            x       y       z     vdW  Elec       q    Type
REMARK                         _______ _______ _______ _____ _____    ______ ____
ROOT
ATOM      1  N   UNL     1       5.283   5.596  17.704  0.00  0.00    +0.000 NA
ATOM      2  C   UNL     1       5.366   5.452  19.175  0.00  0.00    +0.000 C 
ATOM      3  C   UNL     1       3.990   5.005  19.698  0.00  0.00    +0.000 C 
ATOM      4  C   UNL     1       3.042   5.709  18.716  0.00  0.00    +0.000 C 
ATOM      5  C   UNL     1       3.855   5.858  17.415  0.00  0.00    +0.000 C 
ENDROOT
BRANCH   4   6
ATOM      6  N   UNL     1       2.598   6.999  19.224  0.00  0.00    +0.000 N 
ATOM      7  C   UNL     1       1.736   7.078  20.301  0.00  0.00    +0.000 C 
ATOM      8  O   UNL     1       1.276   6.091  20.863  0.00  0.00    +0.000 OA
ATOM      9  H   UNL     1       3.054   7.832  18.886  0.00  0.00    +0.000 HD
BRANCH   7  10
ATOM     10  C   UNL     1       1.389   8.421  20.719  0.00  0.00    +0.000 A 
ATOM     11  C   UNL     1       1.290   8.877  22.057  0.00  0.00    +0.000 A 
ATOM     12  N   UNL     1       0.934  10.161  22.145  0.00  0.00    +0.000 NA
ATOM     13  N   UNL     1       0.789  10.535  20.865  0.00  0.00    +0.000 N 
ATOM     14  C   UNL     1       0.354  11.872  20.548  0.00  0.00    +0.000 C 
ATOM     15  C   UNL     1       1.063   9.539  19.970  0.00  0.00    +0.000 A 
ENDBRANCH   7  10
ENDBRANCH   4   6
BRANCH   3  16
ATOM     16  C   UNL     1       3.778   3.502  19.705  0.00  0.00    +0.000 C 
ATOM     17  C   UNL     1       2.413   2.956  19.359  0.00  0.00    +0.000 C 
ATOM     18  C   UNL     1       2.950   2.788  20.749  0.00  0.00    +0.000 C 
ENDBRANCH   3  16
BRANCH   1  19
ATOM     19  C   UNL     1       5.794   4.403  17.002  0.00  0.00    +0.000 C 
BRANCH  19  20
ATOM     20  C   UNL     1       7.199   4.568  16.389  0.00  0.00    +0.000 C 
BRANCH  20  21
ATOM     21  C   UNL     1       7.176   4.800  14.870  0.00  0.00    +0.000 C 
BRANCH  21  23
ATOM     22  C   UNL     1       6.305   3.546  12.544  0.00  0.00    +0.000 C 
ATOM     23  S   UNL     1       5.644   4.142  14.114  0.00  0.00    +0.000 S 
ENDBRANCH  21  23
ENDBRANCH  20  21
ENDBRANCH  19  20
ENDBRANCH   1  19
TORSDOF 7
ENDMDL
MODEL 8
REMARK VINA RESULT:      -5.9      3.772      7.873
REMARK  Name = 
REMARK  9 active torsions:
REMARK  status: ('A' for Active; 'I' for Inactive)
REMARK    1  A    between atoms: C_1  and  S_2
REMARK    2  A    between atoms: S_2  and  C_3
REMARK    3  A    between atoms: C_3  and  C_4
REMARK    4  A    between atoms: C_4  and  C_5
REMARK    5  A    between atoms: C_5  and  N_6
REMARK    6  A    between atoms: C_8  and  C_9
REMARK    7  A    between atoms: C_12  and  N_13
REMARK    8  A    between atoms: C_14  and  C_16
REMARK    9  A    between atoms: N_19  and  C_20
REMARK                            x       y       z     vdW  Elec       q    Type
REMARK                         _______ _______ _______ _____ _____    ______ ____
ROOT
ATOM      1  N   UNL     1       6.049   5.731  18.429  0.00  0.00    +0.000 NA
ATOM      2  C   UNL     1       5.332   4.753  19.279  0.00  0.00    +0.000 C 
ATOM      3  C   UNL     1       3.909   4.574  18.721  0.00  0.00    +0.000 C 
ATOM      4  C   UNL     1       3.613   5.979  18.174  0.00  0.00    +0.000 C 
ATOM      5  C   UNL     1       4.992   6.565  17.815  0.00  0.00    +0.000 C 
ENDROOT
BRANCH   4   6
ATOM      6  N   UNL     1       2.916   6.803  19.151  0.00  0.00    +0.000 N 
ATOM      7  C   UNL     1       2.168   7.894  18.752  0.00  0.00    +0.000 C 
ATOM      8  O   UNL     1       2.073   8.248  17.583  0.00  0.00    +0.000 OA
ATOM      9  H   UNL     1       2.852   6.473  20.101  0.00  0.00    +0.000 HD
BRANCH   7  10
ATOM     10  C   UNL     1       1.510   8.618  19.821  0.00  0.00    +0.000 A 
ATOM     11  C   UNL     1       1.377   8.180  21.162  0.00  0.00    +0.000 A 
ATOM     12  N   UNL     1       0.706   9.043  21.928  0.00  0.00    +0.000 NA
ATOM     13  N   UNL     1       0.392  10.036  21.081  0.00  0.00    +0.000 N 
ATOM     14  C   UNL     1      -0.393  11.154  21.540  0.00  0.00    +0.000 C 
ATOM     15  C   UNL     1       0.860   9.840  19.813  0.00  0.00    +0.000 A 
ENDBRANCH   7  10
ENDBRANCH   4   6
BRANCH   3  16
ATOM     16  C   UNL     1       3.786   3.512  17.643  0.00  0.00    +0.000 C 
ATOM     17  C   UNL     1       2.412   3.012  17.265  0.00  0.00    +0.000 C 
ATOM     18  C   UNL     1       3.384   2.084  17.930  0.00  0.00    +0.000 C 
ENDBRANCH   3  16
BRANCH   1  19
ATOM     19  C   UNL     1       6.903   5.068  17.425  0.00  0.00    +0.000 C 
BRANCH  19  20
ATOM     20  C   UNL     1       6.746   5.607  15.989  0.00  0.00    +0.000 C 
BRANCH  20  21
ATOM     21  C   UNL     1       7.085   4.568  14.909  0.00  0.00    +0.000 C 
BRANCH  21  23
ATOM     22  C   UNL     1       6.345   3.506  12.446  0.00  0.00    +0.000 C 
ATOM     23  S   UNL     1       5.589   4.039  13.995  0.00  0.00    +0.000 S 
ENDBRANCH  21  23
ENDBRANCH  20  21
ENDBRANCH  19  20
ENDBRANCH   1  19
TORSDOF 7
ENDMDL
MODEL 9
REMARK VINA RESULT:      -5.9      4.369      8.151
REMARK  Name = 
REMARK  9 active torsions:
REMARK  status: ('A' for Active; 'I' for Inactive)
REMARK    1  A    between atoms: C_1  and  S_2
REMARK    2  A    between atoms: S_2  and  C_3
REMARK    3  A    between atoms: C_3  and  C_4
REMARK    4  A    between atoms: C_4  and  C_5
REMARK    5  A    between atoms: C_5  and  N_6
REMARK    6  A    between atoms: C_8  and  C_9
REMARK    7  A    between atoms: C_12  and  N_13
REMARK    8  A    between atoms: C_14  and  C_16
REMARK    9  A    between atoms: N_19  and  C_20
REMARK                            x       y       z     vdW  Elec       q    Type
REMARK                         _______ _______ _______ _____ _____    ______ ____
ROOT
ATOM      1  N   UNL     1       5.101   5.852  18.529  0.00  0.00    +0.000 NA
ATOM      2  C   UNL     1       4.330   5.228  19.628  0.00  0.00    +0.000 C 
ATOM      3  C   UNL     1       2.848   5.184  19.218  0.00  0.00    +0.000 C 
ATOM      4  C   UNL     1       2.721   6.463  18.377  0.00  0.00    +0.000 C 
ATOM      5  C   UNL     1       4.132   6.703  17.804  0.00  0.00    +0.000 C 
ENDROOT
BRANCH   4   6
ATOM      6  N   UNL     1       2.266   7.592  19.175  0.00  0.00    +0.000 N 
ATOM      7  C   UNL     1       1.772   8.733  18.570  0.00  0.00    +0.000 C 
ATOM      8  O   UNL     1       1.718   8.876  17.355  0.00  0.00    +0.000 OA
ATOM      9  H   UNL     1       2.163   7.468  20.170  0.00  0.00    +0.000 HD
BRANCH   7  10
ATOM     10  C   UNL     1       1.335   9.774  19.479  0.00  0.00    +0.000 A 
ATOM     11  C   UNL     1       1.051   9.610  20.857  0.00  0.00    +0.000 A 
ATOM     12  N   UNL     1       0.649  10.739  21.444  0.00  0.00    +0.000 NA
ATOM     13  N   UNL     1       0.660  11.634  20.445  0.00  0.00    +0.000 N 
ATOM     14  C   UNL     1       0.230  12.989  20.684  0.00  0.00    +0.000 C 
ATOM     15  C   UNL     1       1.076  11.115  19.252  0.00  0.00    +0.000 A 
ENDBRANCH   7  10
ENDBRANCH   4   6
BRANCH   3  16
ATOM     16  C   UNL     1       2.449   3.950  18.429  0.00  0.00    +0.000 C 
ATOM     17  C   UNL     1       1.262   4.030  17.500  0.00  0.00    +0.000 C 
ATOM     18  C   UNL     1       1.196   3.154  18.715  0.00  0.00    +0.000 C 
ENDBRANCH   3  16
BRANCH   1  19
ATOM     19  C   UNL     1       5.734   4.843  17.657  0.00  0.00    +0.000 C 
BRANCH  19  20
ATOM     20  C   UNL     1       5.295   4.903  16.180  0.00  0.00    +0.000 C 
BRANCH  20  21
ATOM     21  C   UNL     1       5.939   3.813  15.310  0.00  0.00    +0.000 C 
BRANCH  21  23
ATOM     22  C   UNL     1       6.059   3.441  12.555  0.00  0.00    +0.000 C 
ATOM     23  S   UNL     1       6.741   4.524  13.827  0.00  0.00    +0.000 S 
ENDBRANCH  21  23
ENDBRANCH  20  21
ENDBRANCH  19  20
ENDBRANCH   1  19
TORSDOF 7
ENDMDL
