MODEL 1
REMARK VINA RESULT:      -6.2      0.000      0.000
REMARK  Name = 
REMARK  15 active torsions:
REMARK  status: ('A' for Active; 'I' for Inactive)
REMARK    1  A    between atoms: C_1  and  N_2
REMARK    2  A    between atoms: C_6  and  C_7
REMARK    3  A    between atoms: N_9  and  C_10
REMARK    4  A    between atoms: C_10  and  C_11
REMARK    5  A    between atoms: C_11  and  C_12
REMARK    6  A    between atoms: C_12  and  N_13
REMARK    7  A    between atoms: N_13  and  C_14
REMARK    8  A    between atoms: N_13  and  C_18
REMARK    9  A    between atoms: C_14  and  C_15
REMARK   10  A    between atoms: C_15  and  C_16
REMARK   11  A    between atoms: C_16  and  N_17
REMARK   12  A    between atoms: C_18  and  C_19
REMARK   13  A    between atoms: C_19  and  C_20
REMARK   14  A    between atoms: C_20  and  C_21
REMARK   15  A    between atoms: C_21  and  N_22
REMARK                            x       y       z     vdW  Elec       q    Type
REMARK                         _______ _______ _______ _____ _____    ______ ____
ROOT
ATOM      1  C   UNL     1       1.595   8.452  18.047  0.00  0.00    +0.000 C 
ENDROOT
BRANCH   1   4
ATOM      2  C   UNL     1       3.064   6.640  18.887  0.00  0.00    +0.000 C 
ATOM      3  O   UNL     1       2.349   6.402  19.852  0.00  0.00    +0.000 OA
ATOM      4  N   UNL     1       2.759   7.591  17.934  0.00  0.00    +0.000 N 
ATOM      5  H   UNL     1       3.455   7.749  17.209  0.00  0.00    +0.000 HD
BRANCH   2  11
ATOM      6  C   UNL     1       7.521   5.053  14.327  0.00  0.00    +0.000 C 
ATOM      7  N   UNL     1       6.656   5.280  15.464  0.00  0.00    +0.000 N 
ATOM      8  N   UNL     1       5.502   5.986  15.219  0.00  0.00    +0.000 NA
ATOM      9  N   UNL     1       4.706   6.238  16.153  0.00  0.00    +0.000 NA
ATOM     10  C   UNL     1       4.969   5.829  17.412  0.00  0.00    +0.000 A 
ATOM     11  C   UNL     1       4.332   5.953  18.635  0.00  0.00    +0.000 A 
ATOM     12  N   UNL     1       5.075   5.320  19.631  0.00  0.00    +0.000 NA
ATOM     13  C   UNL     1       6.127   4.831  19.008  0.00  0.00    +0.000 A 
ATOM     14  N   UNL     1       6.107   5.121  17.669  0.00  0.00    +0.000 N 
ATOM     15  C   UNL     1       7.037   4.794  16.702  0.00  0.00    +0.000 A 
ATOM     16  O   UNL     1       8.039   4.160  17.003  0.00  0.00    +0.000 OA
ENDBRANCH   2  11
ENDBRANCH   1   4
BRANCH   1  17
ATOM     17  C   UNL     1       2.000   9.924  18.036  0.00  0.00    +0.000 C 
BRANCH  17  18
ATOM     18  C   UNL     1       0.959  10.867  18.657  0.00  0.00    +0.000 C 
BRANCH  18  19
ATOM     19  N   UNL     1      -0.020  10.298  19.616  0.00  0.00    +0.000 NA
BRANCH  19  20
ATOM     20  C   UNL     1       0.017  11.018  20.912  0.00  0.00    +0.000 C 
BRANCH  20  21
ATOM     21  C   UNL     1      -0.140  10.165  22.189  0.00  0.00    +0.000 C 
BRANCH  21  22
ATOM     22  C   UNL     1       0.173   8.684  21.987  0.00  0.00    +0.000 C 
BRANCH  22  23
ATOM     23  N   UNL     1       1.612   8.510  21.771  0.00  0.00    +0.000 NA
ATOM     24  H   UNL     1       2.107   9.343  22.087  0.00  0.00    +0.000 HD
ATOM     25  H   UNL     1       1.792   8.435  20.770  0.00  0.00    +0.000 HD
ENDBRANCH  22  23
ENDBRANCH  21  22
ENDBRANCH  20  21
ENDBRANCH  19  20
BRANCH  19  26
ATOM     26  C   UNL     1      -1.387  10.352  19.039  0.00  0.00    +0.000 C 
BRANCH  26  27
ATOM     27  C   UNL     1      -1.471  10.783  17.569  0.00  0.00    +0.000 C 
BRANCH  27  28
ATOM     28  C   UNL     1      -2.502   9.978  16.776  0.00  0.00    +0.000 C 
BRANCH  28  29
ATOM     29  C   UNL     1      -3.069  10.814  15.631  0.00  0.00    +0.000 C 
BRANCH  29  30
ATOM     30  N   UNL     1      -2.977  10.088  14.371  0.00  0.00    +0.000 NA
ATOM     31  H   UNL     1      -2.984   9.085  14.553  0.00  0.00    +0.000 HD
ATOM     32  H   UNL     1      -2.085  10.295  13.926  0.00  0.00    +0.000 HD
ENDBRANCH  29  30
ENDBRANCH  28  29
ENDBRANCH  27  28
ENDBRANCH  26  27
ENDBRANCH  19  26
ENDBRANCH  18  19
ENDBRANCH  17  18
ENDBRANCH   1  17
TORSDOF 14
ENDMDL
MODEL 2
REMARK VINA RESULT:      -6.1      2.392      8.572
REMARK  Name = 
REMARK  15 active torsions:
REMARK  status: ('A' for Active; 'I' for Inactive)
REMARK    1  A    between atoms: C_1  and  N_2
REMARK    2  A    between atoms: C_6  and  C_7
REMARK    3  A    between atoms: N_9  and  C_10
REMARK    4  A    between atoms: C_10  and  C_11
REMARK    5  A    between atoms: C_11  and  C_12
REMARK    6  A    between atoms: C_12  and  N_13
REMARK    7  A    between atoms: N_13  and  C_14
REMARK    8  A    between atoms: N_13  and  C_18
REMARK    9  A    between atoms: C_14  and  C_15
REMARK   10  A    between atoms: C_15  and  C_16
REMARK   11  A    between atoms: C_16  and  N_17
REMARK   12  A    between atoms: C_18  and  C_19
REMARK   13  A    between atoms: C_19  and  C_20
REMARK   14  A    between atoms: C_20  and  C_21
REMARK   15  A    between atoms: C_21  and  N_22
REMARK                            x       y       z     vdW  Elec       q    Type
REMARK                         _______ _______ _______ _____ _____    ______ ____
ROOT
ATOM      1  C   UNL     1       3.759   4.847  18.574  0.00  0.00    +0.000 C 
ENDROOT
BRANCH   1   4
ATOM      2  C   UNL     1       3.204   7.218  18.111  0.00  0.00    +0.000 C 
ATOM      3  O   UNL     1       4.219   7.408  17.452  0.00  0.00    +0.000 OA
ATOM      4  N   UNL     1       2.875   5.996  18.663  0.00  0.00    +0.000 N 
ATOM      5  H   UNL     1       2.041   5.968  19.244  0.00  0.00    +0.000 HD
BRANCH   2  11
ATOM      6  C   UNL     1      -0.560   9.936  22.761  0.00  0.00    +0.000 C 
ATOM      7  N   UNL     1       0.170   9.473  21.601  0.00  0.00    +0.000 N 
ATOM      8  N   UNL     1       0.995   8.390  21.795  0.00  0.00    +0.000 NA
ATOM      9  N   UNL     1       1.673   7.935  20.846  0.00  0.00    +0.000 NA
ATOM     10  C   UNL     1       1.613   8.502  19.622  0.00  0.00    +0.000 A 
ATOM     11  C   UNL     1       2.225   8.268  18.402  0.00  0.00    +0.000 A 
ATOM     12  N   UNL     1       1.778   9.187  17.455  0.00  0.00    +0.000 NA
ATOM     13  C   UNL     1       0.918   9.947  18.100  0.00  0.00    +0.000 A 
ATOM     14  N   UNL     1       0.793   9.574  19.413  0.00  0.00    +0.000 N 
ATOM     15  C   UNL     1       0.008  10.137  20.399  0.00  0.00    +0.000 A 
ATOM     16  O   UNL     1      -0.701  11.100  20.144  0.00  0.00    +0.000 OA
ENDBRANCH   2  11
ENDBRANCH   1   4
BRANCH   1  17
ATOM     17  C   UNL     1       3.788   4.288  17.153  0.00  0.00    +0.000 C 
BRANCH  17  18
ATOM     18  C   UNL     1       5.199   4.003  16.618  0.00  0.00    +0.000 C 
BRANCH  18  19
ATOM     19  N   UNL     1       5.846   5.026  15.762  0.00  0.00    +0.000 NA
BRANCH  19  20
ATOM     20  C   UNL     1       7.006   5.645  16.447  0.00  0.00    +0.000 C 
BRANCH  20  21
ATOM     21  C   UNL     1       7.427   5.033  17.800  0.00  0.00    +0.000 C 
BRANCH  21  22
ATOM     22  C   UNL     1       7.808   6.067  18.856  0.00  0.00    +0.000 C 
BRANCH  22  23
ATOM     23  N   UNL     1       7.837   5.435  20.177  0.00  0.00    +0.000 NA
ATOM     24  H   UNL     1       8.445   4.617  20.149  0.00  0.00    +0.000 HD
ATOM     25  H   UNL     1       6.906   5.088  20.402  0.00  0.00    +0.000 HD
ENDBRANCH  22  23
ENDBRANCH  21  22
ENDBRANCH  20  21
ENDBRANCH  19  20
BRANCH  19  26
ATOM     26  C   UNL     1       6.275   4.416  14.478  0.00  0.00    +0.000 C 
BRANCH  26  27
ATOM     27  C   UNL     1       5.171   3.723  13.669  0.00  0.00    +0.000 C 
BRANCH  27  28
ATOM     28  C   UNL     1       5.477   3.676  12.171  0.00  0.00    +0.000 C 
BRANCH  28  29
ATOM     29  C   UNL     1       6.588   2.669  11.883  0.00  0.00    +0.000 C 
BRANCH  29  30
ATOM     30  N   UNL     1       6.027   1.380  11.503  0.00  0.00    +0.000 NA
ATOM     31  H   UNL     1       6.414   0.649  12.101  0.00  0.00    +0.000 HD
ATOM     32  H   UNL     1       6.310   1.155  10.552  0.00  0.00    +0.000 HD
ENDBRANCH  29  30
ENDBRANCH  28  29
ENDBRANCH  27  28
ENDBRANCH  26  27
ENDBRANCH  19  26
ENDBRANCH  18  19
ENDBRANCH  17  18
ENDBRANCH   1  17
TORSDOF 14
ENDMDL
MODEL 3
REMARK VINA RESULT:      -5.9      2.529      8.367
REMARK  Name = 
REMARK  15 active torsions:
REMARK  status: ('A' for Active; 'I' for Inactive)
REMARK    1  A    between atoms: C_1  and  N_2
REMARK    2  A    between atoms: C_6  and  C_7
REMARK    3  A    between atoms: N_9  and  C_10
REMARK    4  A    between atoms: C_10  and  C_11
REMARK    5  A    between atoms: C_11  and  C_12
REMARK    6  A    between atoms: C_12  and  N_13
REMARK    7  A    between atoms: N_13  and  C_14
REMARK    8  A    between atoms: N_13  and  C_18
REMARK    9  A    between atoms: C_14  and  C_15
REMARK   10  A    between atoms: C_15  and  C_16
REMARK   11  A    between atoms: C_16  and  N_17
REMARK   12  A    between atoms: C_18  and  C_19
REMARK   13  A    between atoms: C_19  and  C_20
REMARK   14  A    between atoms: C_20  and  C_21
REMARK   15  A    between atoms: C_21  and  N_22
REMARK                            x       y       z     vdW  Elec       q    Type
REMARK                         _______ _______ _______ _____ _____    ______ ____
ROOT
ATOM      1  C   UNL     1       2.901   3.763  18.152  0.00  0.00    +0.000 C 
ENDROOT
BRANCH   1   4
ATOM      2  C   UNL     1       3.023   6.095  18.984  0.00  0.00    +0.000 C 
ATOM      3  O   UNL     1       3.868   5.831  19.831  0.00  0.00    +0.000 OA
ATOM      4  N   UNL     1       2.522   5.164  18.096  0.00  0.00    +0.000 N 
ATOM      5  H   UNL     1       1.779   5.479  17.477  0.00  0.00    +0.000 HD
BRANCH   2  11
ATOM      6  C   UNL     1      -0.430  10.858  21.910  0.00  0.00    +0.000 C 
ATOM      7  N   UNL     1       0.315   9.930  21.088  0.00  0.00    +0.000 N 
ATOM      8  N   UNL     1       0.649   8.732  21.674  0.00  0.00    +0.000 NA
ATOM      9  N   UNL     1       1.307   7.879  21.035  0.00  0.00    +0.000 NA
ATOM     10  C   UNL     1       1.705   8.123  19.768  0.00  0.00    +0.000 A 
ATOM     11  C   UNL     1       2.436   7.427  18.820  0.00  0.00    +0.000 A 
ATOM     12  N   UNL     1       2.546   8.178  17.651  0.00  0.00    +0.000 NA
ATOM     13  C   UNL     1       1.893   9.293  17.902  0.00  0.00    +0.000 A 
ATOM     14  N   UNL     1       1.375   9.305  19.171  0.00  0.00    +0.000 N 
ATOM     15  C   UNL     1       0.649  10.299  19.798  0.00  0.00    +0.000 A 
ATOM     16  O   UNL     1       0.392  11.337  19.205  0.00  0.00    +0.000 OA
ENDBRANCH   2  11
ENDBRANCH   1   4
BRANCH   1  17
ATOM     17  C   UNL     1       4.240   3.530  17.456  0.00  0.00    +0.000 C 
BRANCH  17  18
ATOM     18  C   UNL     1       4.329   4.133  16.046  0.00  0.00    +0.000 C 
BRANCH  18  19
ATOM     19  N   UNL     1       5.501   4.980  15.717  0.00  0.00    +0.000 NA
BRANCH  19  20
ATOM     20  C   UNL     1       6.108   5.557  16.941  0.00  0.00    +0.000 C 
BRANCH  20  21
ATOM     21  C   UNL     1       7.426   4.922  17.431  0.00  0.00    +0.000 C 
BRANCH  21  22
ATOM     22  C   UNL     1       7.880   5.419  18.803  0.00  0.00    +0.000 C 
BRANCH  22  23
ATOM     23  N   UNL     1       6.759   5.356  19.744  0.00  0.00    +0.000 NA
ATOM     24  H   UNL     1       6.994   5.878  20.588  0.00  0.00    +0.000 HD
ATOM     25  H   UNL     1       6.623   4.389  20.037  0.00  0.00    +0.000 HD
ENDBRANCH  22  23
ENDBRANCH  21  22
ENDBRANCH  20  21
ENDBRANCH  19  20
BRANCH  19  26
ATOM     26  C   UNL     1       6.509   4.184  14.971  0.00  0.00    +0.000 C 
BRANCH  26  27
ATOM     27  C   UNL     1       7.202   4.909  13.810  0.00  0.00    +0.000 C 
BRANCH  27  28
ATOM     28  C   UNL     1       7.078   4.154  12.485  0.00  0.00    +0.000 C 
BRANCH  28  29
ATOM     29  C   UNL     1       5.797   3.325  12.460  0.00  0.00    +0.000 C 
BRANCH  29  30
ATOM     30  N   UNL     1       6.026   2.047  11.800  0.00  0.00    +0.000 NA
ATOM     31  H   UNL     1       6.160   1.318  12.501  0.00  0.00    +0.000 HD
ATOM     32  H   UNL     1       6.890   2.093  11.263  0.00  0.00    +0.000 HD
ENDBRANCH  29  30
ENDBRANCH  28  29
ENDBRANCH  27  28
ENDBRANCH  26  27
ENDBRANCH  19  26
ENDBRANCH  18  19
ENDBRANCH  17  18
ENDBRANCH   1  17
TORSDOF 14
ENDMDL
MODEL 4
REMARK VINA RESULT:      -5.8      2.429      4.980
REMARK  Name = 
REMARK  15 active torsions:
REMARK  status: ('A' for Active; 'I' for Inactive)
REMARK    1  A    between atoms: C_1  and  N_2
REMARK    2  A    between atoms: C_6  and  C_7
REMARK    3  A    between atoms: N_9  and  C_10
REMARK    4  A    between atoms: C_10  and  C_11
REMARK    5  A    between atoms: C_11  and  C_12
REMARK    6  A    between atoms: C_12  and  N_13
REMARK    7  A    between atoms: N_13  and  C_14
REMARK    8  A    between atoms: N_13  and  C_18
REMARK    9  A    between atoms: C_14  and  C_15
REMARK   10  A    between atoms: C_15  and  C_16
REMARK   11  A    between atoms: C_16  and  N_17
REMARK   12  A    between atoms: C_18  and  C_19
REMARK   13  A    between atoms: C_19  and  C_20
REMARK   14  A    between atoms: C_20  and  C_21
REMARK   15  A    between atoms: C_21  and  N_22
REMARK                            x       y       z     vdW  Elec       q    Type
REMARK                         _______ _______ _______ _____ _____    ______ ____
ROOT
ATOM      1  C   UNL     1       2.160   9.119  17.856  0.00  0.00    +0.000 C 
ENDROOT
BRANCH   1   4
ATOM      2  C   UNL     1       3.640   7.139  17.667  0.00  0.00    +0.000 C 
ATOM      3  O   UNL     1       4.149   7.522  16.620  0.00  0.00    +0.000 OA
ATOM      4  N   UNL     1       2.695   7.866  18.361  0.00  0.00    +0.000 N 
ATOM      5  H   UNL     1       2.295   7.424  19.185  0.00  0.00    +0.000 HD
BRANCH   2  11
ATOM      6  C   UNL     1       1.564   2.501  21.833  0.00  0.00    +0.000 C 
ATOM      7  N   UNL     1       2.205   3.411  20.909  0.00  0.00    +0.000 N 
ATOM      8  N   UNL     1       1.510   4.557  20.602  0.00  0.00    +0.000 NA
ATOM      9  N   UNL     1       1.988   5.389  19.798  0.00  0.00    +0.000 NA
ATOM     10  C   UNL     1       3.187   5.175  19.216  0.00  0.00    +0.000 A 
ATOM     11  C   UNL     1       3.968   5.860  18.300  0.00  0.00    +0.000 A 
ATOM     12  N   UNL     1       5.143   5.155  18.047  0.00  0.00    +0.000 NA
ATOM     13  C   UNL     1       5.060   4.078  18.799  0.00  0.00    +0.000 A 
ATOM     14  N   UNL     1       3.892   4.045  19.516  0.00  0.00    +0.000 N 
ATOM     15  C   UNL     1       3.444   3.077  20.393  0.00  0.00    +0.000 A 
ATOM     16  O   UNL     1       4.126   2.086  20.613  0.00  0.00    +0.000 OA
ENDBRANCH   2  11
ENDBRANCH   1   4
BRANCH   1  17
ATOM     17  C   UNL     1       0.978   9.589  18.701  0.00  0.00    +0.000 C 
BRANCH  17  18
ATOM     18  C   UNL     1       0.913  11.111  18.898  0.00  0.00    +0.000 C 
BRANCH  18  19
ATOM     19  N   UNL     1       0.096  11.640  20.017  0.00  0.00    +0.000 NA
BRANCH  19  20
ATOM     20  C   UNL     1      -0.948  12.572  19.526  0.00  0.00    +0.000 C 
BRANCH  20  21
ATOM     21  C   UNL     1      -2.347  11.977  19.262  0.00  0.00    +0.000 C 
BRANCH  21  22
ATOM     22  C   UNL     1      -2.575  11.549  17.814  0.00  0.00    +0.000 C 
BRANCH  22  23
ATOM     23  N   UNL     1      -1.593  12.204  16.947  0.00  0.00    +0.000 NA
ATOM     24  H   UNL     1      -1.264  13.061  17.391  0.00  0.00    +0.000 HD
ATOM     25  H   UNL     1      -2.050  12.490  16.082  0.00  0.00    +0.000 HD
ENDBRANCH  22  23
ENDBRANCH  21  22
ENDBRANCH  20  21
ENDBRANCH  19  20
BRANCH  19  26
ATOM     26  C   UNL     1      -0.529  10.518  20.763  0.00  0.00    +0.000 C 
BRANCH  26  27
ATOM     27  C   UNL     1      -0.678  10.726  22.275  0.00  0.00    +0.000 C 
BRANCH  27  28
ATOM     28  C   UNL     1      -0.049   9.596  23.092  0.00  0.00    +0.000 C 
BRANCH  28  29
ATOM     29  C   UNL     1       1.137   8.992  22.345  0.00  0.00    +0.000 C 
BRANCH  29  30
ATOM     30  N   UNL     1       2.386   9.306  23.026  0.00  0.00    +0.000 NA
ATOM     31  H   UNL     1       2.358  10.267  23.367  0.00  0.00    +0.000 HD
ATOM     32  H   UNL     1       3.155   9.257  22.361  0.00  0.00    +0.000 HD
ENDBRANCH  29  30
ENDBRANCH  28  29
ENDBRANCH  27  28
ENDBRANCH  26  27
ENDBRANCH  19  26
ENDBRANCH  18  19
ENDBRANCH  17  18
ENDBRANCH   1  17
TORSDOF 14
ENDMDL
MODEL 5
REMARK VINA RESULT:      -5.8      2.383      8.747
REMARK  Name = 
REMARK  15 active torsions:
REMARK  status: ('A' for Active; 'I' for Inactive)
REMARK    1  A    between atoms: C_1  and  N_2
REMARK    2  A    between atoms: C_6  and  C_7
REMARK    3  A    between atoms: N_9  and  C_10
REMARK    4  A    between atoms: C_10  and  C_11
REMARK    5  A    between atoms: C_11  and  C_12
REMARK    6  A    between atoms: C_12  and  N_13
REMARK    7  A    between atoms: N_13  and  C_14
REMARK    8  A    between atoms: N_13  and  C_18
REMARK    9  A    between atoms: C_14  and  C_15
REMARK   10  A    between atoms: C_15  and  C_16
REMARK   11  A    between atoms: C_16  and  N_17
REMARK   12  A    between atoms: C_18  and  C_19
REMARK   13  A    between atoms: C_19  and  C_20
REMARK   14  A    between atoms: C_20  and  C_21
REMARK   15  A    between atoms: C_21  and  N_22
REMARK                            x       y       z     vdW  Elec       q    Type
REMARK                         _______ _______ _______ _____ _____    ______ ____
ROOT
ATOM      1  C   UNL     1       3.151   5.642  19.630  0.00  0.00    +0.000 C 
ENDROOT
BRANCH   1   4
ATOM      2  C   UNL     1       2.406   7.835  18.748  0.00  0.00    +0.000 C 
ATOM      3  O   UNL     1       3.318   7.905  17.933  0.00  0.00    +0.000 OA
ATOM      4  N   UNL     1       2.220   6.756  19.588  0.00  0.00    +0.000 N 
ATOM      5  H   UNL     1       1.467   6.832  20.268  0.00  0.00    +0.000 HD
BRANCH   2  11
ATOM      6  C   UNL     1      -1.261  11.066  23.141  0.00  0.00    +0.000 C 
ATOM      7  N   UNL     1      -0.560  10.468  22.025  0.00  0.00    +0.000 N 
ATOM      8  N   UNL     1       0.298   9.438  22.328  0.00  0.00    +0.000 NA
ATOM      9  N   UNL     1       0.954   8.876  21.421  0.00  0.00    +0.000 NA
ATOM     10  C   UNL     1       0.836   9.275  20.137  0.00  0.00    +0.000 A 
ATOM     11  C   UNL     1       1.411   8.894  18.936  0.00  0.00    +0.000 A 
ATOM     12  N   UNL     1       0.907   9.670  17.893  0.00  0.00    +0.000 NA
ATOM     13  C   UNL     1       0.052  10.490  18.466  0.00  0.00    +0.000 A 
ATOM     14  N   UNL     1      -0.018  10.292  19.820  0.00  0.00    +0.000 N 
ATOM     15  C   UNL     1      -0.782  10.964  20.753  0.00  0.00    +0.000 A 
ATOM     16  O   UNL     1      -1.524  11.870  20.400  0.00  0.00    +0.000 OA
ENDBRANCH   2  11
ENDBRANCH   1   4
BRANCH   1  17
ATOM     17  C   UNL     1       3.039   4.787  18.369  0.00  0.00    +0.000 C 
BRANCH  17  18
ATOM     18  C   UNL     1       4.382   4.250  17.853  0.00  0.00    +0.000 C 
BRANCH  18  19
ATOM     19  N   UNL     1       5.003   4.918  16.684  0.00  0.00    +0.000 NA
BRANCH  19  20
ATOM     20  C   UNL     1       6.036   5.893  17.108  0.00  0.00    +0.000 C 
BRANCH  20  21
ATOM     21  C   UNL     1       7.227   5.341  17.919  0.00  0.00    +0.000 C 
BRANCH  21  22
ATOM     22  C   UNL     1       7.146   5.635  19.416  0.00  0.00    +0.000 C 
BRANCH  22  23
ATOM     23  N   UNL     1       8.420   5.294  20.054  0.00  0.00    +0.000 NA
ATOM     24  H   UNL     1       8.286   5.218  21.062  0.00  0.00    +0.000 HD
ATOM     25  H   UNL     1       9.079   6.058  19.912  0.00  0.00    +0.000 HD
ENDBRANCH  22  23
ENDBRANCH  21  22
ENDBRANCH  20  21
ENDBRANCH  19  20
BRANCH  19  26
ATOM     26  C   UNL     1       5.598   3.904  15.777  0.00  0.00    +0.000 C 
BRANCH  26  27
ATOM     27  C   UNL     1       5.439   4.179  14.276  0.00  0.00    +0.000 C 
BRANCH  27  28
ATOM     28  C   UNL     1       6.777   4.198  13.534  0.00  0.00    +0.000 C 
BRANCH  28  29
ATOM     29  C   UNL     1       6.606   3.682  12.108  0.00  0.00    +0.000 C 
BRANCH  29  30
ATOM     30  N   UNL     1       6.040   2.340  12.112  0.00  0.00    +0.000 NA
ATOM     31  H   UNL     1       6.182   1.906  11.200  0.00  0.00    +0.000 HD
ATOM     32  H   UNL     1       5.034   2.397  12.252  0.00  0.00    +0.000 HD
ENDBRANCH  29  30
ENDBRANCH  28  29
ENDBRANCH  27  28
ENDBRANCH  26  27
ENDBRANCH  19  26
ENDBRANCH  18  19
ENDBRANCH  17  18
ENDBRANCH   1  17
TORSDOF 14
ENDMDL
MODEL 6
REMARK VINA RESULT:      -5.8      2.800      8.837
REMARK  Name = 
REMARK  15 active torsions:
REMARK  status: ('A' for Active; 'I' for Inactive)
REMARK    1  A    between atoms: C_1  and  N_2
REMARK    2  A    between atoms: C_6  and  C_7
REMARK    3  A    between atoms: N_9  and  C_10
REMARK    4  A    between atoms: C_10  and  C_11
REMARK    5  A    between atoms: C_11  and  C_12
REMARK    6  A    between atoms: C_12  and  N_13
REMARK    7  A    between atoms: N_13  and  C_14
REMARK    8  A    between atoms: N_13  and  C_18
REMARK    9  A    between atoms: C_14  and  C_15
REMARK   10  A    between atoms: C_15  and  C_16
REMARK   11  A    between atoms: C_16  and  N_17
REMARK   12  A    between atoms: C_18  and  C_19
REMARK   13  A    between atoms: C_19  and  C_20
REMARK   14  A    between atoms: C_20  and  C_21
REMARK   15  A    between atoms: C_21  and  N_22
REMARK                            x       y       z     vdW  Elec       q    Type
REMARK                         _______ _______ _______ _____ _____    ______ ____
ROOT
ATOM      1  C   UNL     1       2.998   7.078  19.254  0.00  0.00    +0.000 C 
ENDROOT
BRANCH   1   4
ATOM      2  C   UNL     1       1.632   8.951  18.376  0.00  0.00    +0.000 C 
ATOM      3  O   UNL     1       2.330   9.097  17.380  0.00  0.00    +0.000 OA
ATOM      4  N   UNL     1       1.855   7.971  19.322  0.00  0.00    +0.000 N 
ATOM      5  H   UNL     1       1.251   7.982  20.140  0.00  0.00    +0.000 HD
BRANCH   2  11
ATOM      6  C   UNL     1      -1.168  12.766  22.934  0.00  0.00    +0.000 C 
ATOM      7  N   UNL     1      -0.730  11.960  21.816  0.00  0.00    +0.000 N 
ATOM      8  N   UNL     1       0.449  11.275  21.985  0.00  0.00    +0.000 NA
ATOM      9  N   UNL     1       0.905  10.565  21.059  0.00  0.00    +0.000 NA
ATOM     10  C   UNL     1       0.253  10.466  19.882  0.00  0.00    +0.000 A 
ATOM     11  C   UNL     1       0.484   9.806  18.686  0.00  0.00    +0.000 A 
ATOM     12  N   UNL     1      -0.547  10.067  17.785  0.00  0.00    +0.000 NA
ATOM     13  C   UNL     1      -1.370  10.862  18.435  0.00  0.00    +0.000 A 
ATOM     14  N   UNL     1      -0.923  11.135  19.702  0.00  0.00    +0.000 N 
ATOM     15  C   UNL     1      -1.501  11.935  20.668  0.00  0.00    +0.000 A 
ATOM     16  O   UNL     1      -2.555  12.510  20.438  0.00  0.00    +0.000 OA
ENDBRANCH   2  11
ENDBRANCH   1   4
BRANCH   1  17
ATOM     17  C   UNL     1       2.726   5.913  18.305  0.00  0.00    +0.000 C 
BRANCH  17  18
ATOM     18  C   UNL     1       3.867   5.628  17.317  0.00  0.00    +0.000 C 
BRANCH  18  19
ATOM     19  N   UNL     1       4.806   4.523  17.629  0.00  0.00    +0.000 NA
BRANCH  19  20
ATOM     20  C   UNL     1       5.716   4.889  18.741  0.00  0.00    +0.000 C 
BRANCH  20  21
ATOM     21  C   UNL     1       6.701   6.049  18.485  0.00  0.00    +0.000 C 
BRANCH  21  22
ATOM     22  C   UNL     1       8.081   5.837  19.102  0.00  0.00    +0.000 C 
BRANCH  22  23
ATOM     23  N   UNL     1       7.937   5.365  20.481  0.00  0.00    +0.000 NA
ATOM     24  H   UNL     1       6.999   5.578  20.817  0.00  0.00    +0.000 HD
ATOM     25  H   UNL     1       8.578   5.885  21.080  0.00  0.00    +0.000 HD
ENDBRANCH  22  23
ENDBRANCH  21  22
ENDBRANCH  20  21
ENDBRANCH  19  20
BRANCH  19  26
ATOM     26  C   UNL     1       4.047   3.294  17.972  0.00  0.00    +0.000 C 
BRANCH  26  27
ATOM     27  C   UNL     1       4.072   2.888  19.452  0.00  0.00    +0.000 C 
BRANCH  27  28
ATOM     28  C   UNL     1       2.679   2.573  20.001  0.00  0.00    +0.000 C 
BRANCH  28  29
ATOM     29  C   UNL     1       2.405   3.388  21.263  0.00  0.00    +0.000 C 
BRANCH  29  30
ATOM     30  N   UNL     1       1.581   2.630  22.194  0.00  0.00    +0.000 NA
ATOM     31  H   UNL     1       1.925   1.671  22.254  0.00  0.00    +0.000 HD
ATOM     32  H   UNL     1       0.629   2.574  21.836  0.00  0.00    +0.000 HD
ENDBRANCH  29  30
ENDBRANCH  28  29
ENDBRANCH  27  28
ENDBRANCH  26  27
ENDBRANCH  19  26
ENDBRANCH  18  19
ENDBRANCH  17  18
ENDBRANCH   1  17
TORSDOF 14
ENDMDL
MODEL 7
REMARK VINA RESULT:      -5.7      6.232      8.637
REMARK  Name = 
REMARK  15 active torsions:
REMARK  status: ('A' for Active; 'I' for Inactive)
REMARK    1  A    between atoms: C_1  and  N_2
REMARK    2  A    between atoms: C_6  and  C_7
REMARK    3  A    between atoms: N_9  and  C_10
REMARK    4  A    between atoms: C_10  and  C_11
REMARK    5  A    between atoms: C_11  and  C_12
REMARK    6  A    between atoms: C_12  and  N_13
REMARK    7  A    between atoms: N_13  and  C_14
REMARK    8  A    between atoms: N_13  and  C_18
REMARK    9  A    between atoms: C_14  and  C_15
REMARK   10  A    between atoms: C_15  and  C_16
REMARK   11  A    between atoms: C_16  and  N_17
REMARK   12  A    between atoms: C_18  and  C_19
REMARK   13  A    between atoms: C_19  and  C_20
REMARK   14  A    between atoms: C_20  and  C_21
REMARK   15  A    between atoms: C_21  and  N_22
REMARK                            x       y       z     vdW  Elec       q    Type
REMARK                         _______ _______ _______ _____ _____    ______ ____
ROOT
ATOM      1  C   UNL     1       8.351   8.879  17.529  0.00  0.00    +0.000 C 
ENDROOT
BRANCH   1   4
ATOM      2  C   UNL     1       6.765   7.000  17.218  0.00  0.00    +0.000 C 
ATOM      3  O   UNL     1       7.487   6.421  16.415  0.00  0.00    +0.000 OA
ATOM      4  N   UNL     1       7.117   8.179  17.842  0.00  0.00    +0.000 N 
ATOM      5  H   UNL     1       6.415   8.605  18.442  0.00  0.00    +0.000 HD
BRANCH   2  11
ATOM      6  C   UNL     1       3.463   2.346  20.476  0.00  0.00    +0.000 C 
ATOM      7  N   UNL     1       3.996   3.441  19.696  0.00  0.00    +0.000 N 
ATOM      8  N   UNL     1       5.365   3.491  19.574  0.00  0.00    +0.000 NA
ATOM      9  N   UNL     1       5.908   4.416  18.927  0.00  0.00    +0.000 NA
ATOM     10  C   UNL     1       5.163   5.380  18.346  0.00  0.00    +0.000 A 
ATOM     11  C   UNL     1       5.437   6.515  17.602  0.00  0.00    +0.000 A 
ATOM     12  N   UNL     1       4.252   7.160  17.253  0.00  0.00    +0.000 NA
ATOM     13  C   UNL     1       3.297   6.421  17.778  0.00  0.00    +0.000 A 
ATOM     14  N   UNL     1       3.802   5.340  18.453  0.00  0.00    +0.000 N 
ATOM     15  C   UNL     1       3.120   4.357  19.141  0.00  0.00    +0.000 A 
ATOM     16  O   UNL     1       1.899   4.384  19.200  0.00  0.00    +0.000 OA
ENDBRANCH   2  11
ENDBRANCH   1   4
BRANCH   1  17
ATOM     17  C   UNL     1       8.838   9.691  18.727  0.00  0.00    +0.000 C 
BRANCH  17  18
ATOM     18  C   UNL     1       8.967  11.197  18.456  0.00  0.00    +0.000 C 
BRANCH  18  19
ATOM     19  N   UNL     1      10.050  11.944  19.139  0.00  0.00    +0.000 NA
BRANCH  19  20
ATOM     20  C   UNL     1      10.079  11.641  20.591  0.00  0.00    +0.000 C 
BRANCH  20  21
ATOM     21  C   UNL     1       9.758  12.804  21.553  0.00  0.00    +0.000 C 
BRANCH  21  22
ATOM     22  C   UNL     1      10.009  14.188  20.957  0.00  0.00    +0.000 C 
BRANCH  22  23
ATOM     23  N   UNL     1       8.852  14.597  20.156  0.00  0.00    +0.000 NA
ATOM     24  H   UNL     1       9.052  14.447  19.168  0.00  0.00    +0.000 HD
ATOM     25  H   UNL     1       8.706  15.599  20.268  0.00  0.00    +0.000 HD
ENDBRANCH  22  23
ENDBRANCH  21  22
ENDBRANCH  20  21
ENDBRANCH  19  20
BRANCH  19  26
ATOM     26  C   UNL     1      11.360  11.615  18.522  0.00  0.00    +0.000 C 
BRANCH  26  27
ATOM     27  C   UNL     1      12.102  12.789  17.870  0.00  0.00    +0.000 C 
BRANCH  27  28
ATOM     28  C   UNL     1      11.250  13.522  16.832  0.00  0.00    +0.000 C 
BRANCH  28  29
ATOM     29  C   UNL     1      10.964  14.951  17.286  0.00  0.00    +0.000 C 
BRANCH  29  30
ATOM     30  N   UNL     1      11.787  15.900  16.548  0.00  0.00    +0.000 NA
ATOM     31  H   UNL     1      12.098  16.643  17.174  0.00  0.00    +0.000 HD
ATOM     32  H   UNL     1      11.225  16.345  15.826  0.00  0.00    +0.000 HD
ENDBRANCH  29  30
ENDBRANCH  28  29
ENDBRANCH  27  28
ENDBRANCH  26  27
ENDBRANCH  19  26
ENDBRANCH  18  19
ENDBRANCH  17  18
ENDBRANCH   1  17
TORSDOF 14
ENDMDL
MODEL 8
REMARK VINA RESULT:      -5.7      2.766      8.742
REMARK  Name = 
REMARK  15 active torsions:
REMARK  status: ('A' for Active; 'I' for Inactive)
REMARK    1  A    between atoms: C_1  and  N_2
REMARK    2  A    between atoms: C_6  and  C_7
REMARK    3  A    between atoms: N_9  and  C_10
REMARK    4  A    between atoms: C_10  and  C_11
REMARK    5  A    between atoms: C_11  and  C_12
REMARK    6  A    between atoms: C_12  and  N_13
REMARK    7  A    between atoms: N_13  and  C_14
REMARK    8  A    between atoms: N_13  and  C_18
REMARK    9  A    between atoms: C_14  and  C_15
REMARK   10  A    between atoms: C_15  and  C_16
REMARK   11  A    between atoms: C_16  and  N_17
REMARK   12  A    between atoms: C_18  and  C_19
REMARK   13  A    between atoms: C_19  and  C_20
REMARK   14  A    between atoms: C_20  and  C_21
REMARK   15  A    between atoms: C_21  and  N_22
REMARK                            x       y       z     vdW  Elec       q    Type
REMARK                         _______ _______ _______ _____ _____    ______ ____
ROOT
ATOM      1  C   UNL     1       2.879   7.244  18.484  0.00  0.00    +0.000 C 
ENDROOT
BRANCH   1   4
ATOM      2  C   UNL     1       1.573   9.322  18.136  0.00  0.00    +0.000 C 
ATOM      3  O   UNL     1       2.387   9.795  17.352  0.00  0.00    +0.000 OA
ATOM      4  N   UNL     1       1.707   8.072  18.706  0.00  0.00    +0.000 N 
ATOM      5  H   UNL     1       1.003   7.807  19.391  0.00  0.00    +0.000 HD
BRANCH   2  11
ATOM      6  C   UNL     1      -1.074  13.078  22.833  0.00  0.00    +0.000 C 
ATOM      7  N   UNL     1      -0.688  12.249  21.712  0.00  0.00    +0.000 N 
ATOM      8  N   UNL     1       0.594  11.753  21.736  0.00  0.00    +0.000 NA
ATOM      9  N   UNL     1       1.011  11.038  20.795  0.00  0.00    +0.000 NA
ATOM     10  C   UNL     1       0.216  10.750  19.743  0.00  0.00    +0.000 A 
ATOM     11  C   UNL     1       0.367  10.031  18.569  0.00  0.00    +0.000 A 
ATOM     12  N   UNL     1      -0.812  10.068  17.827  0.00  0.00    +0.000 NA
ATOM     13  C   UNL     1      -1.642  10.792  18.548  0.00  0.00    +0.000 A 
ATOM     14  N   UNL     1      -1.061  11.230  19.709  0.00  0.00    +0.000 N 
ATOM     15  C   UNL     1      -1.606  12.020  20.703  0.00  0.00    +0.000 A 
ATOM     16  O   UNL     1      -2.757  12.419  20.606  0.00  0.00    +0.000 OA
ENDBRANCH   2  11
ENDBRANCH   1   4
BRANCH   1  17
ATOM     17  C   UNL     1       3.081   6.262  19.636  0.00  0.00    +0.000 C 
BRANCH  17  18
ATOM     18  C   UNL     1       4.164   5.204  19.377  0.00  0.00    +0.000 C 
BRANCH  18  19
ATOM     19  N   UNL     1       4.948   5.294  18.121  0.00  0.00    +0.000 NA
BRANCH  19  20
ATOM     20  C   UNL     1       6.346   4.846  18.327  0.00  0.00    +0.000 C 
BRANCH  20  21
ATOM     21  C   UNL     1       7.366   5.919  18.763  0.00  0.00    +0.000 C 
BRANCH  21  22
ATOM     22  C   UNL     1       7.564   7.037  17.742  0.00  0.00    +0.000 C 
BRANCH  22  23
ATOM     23  N   UNL     1       7.407   6.501  16.388  0.00  0.00    +0.000 NA
ATOM     24  H   UNL     1       6.965   7.202  15.794  0.00  0.00    +0.000 HD
ATOM     25  H   UNL     1       6.767   5.708  16.415  0.00  0.00    +0.000 HD
ENDBRANCH  22  23
ENDBRANCH  21  22
ENDBRANCH  20  21
ENDBRANCH  19  20
BRANCH  19  26
ATOM     26  C   UNL     1       4.301   4.482  17.060  0.00  0.00    +0.000 C 
BRANCH  26  27
ATOM     27  C   UNL     1       3.456   3.298  17.550  0.00  0.00    +0.000 C 
BRANCH  27  28
ATOM     28  C   UNL     1       1.953   3.562  17.443  0.00  0.00    +0.000 C 
BRANCH  28  29
ATOM     29  C   UNL     1       1.193   2.761  18.498  0.00  0.00    +0.000 C 
BRANCH  29  30
ATOM     30  N   UNL     1       1.971   1.606  18.925  0.00  0.00    +0.000 NA
ATOM     31  H   UNL     1       1.765   1.397  19.901  0.00  0.00    +0.000 HD
ATOM     32  H   UNL     1       2.963   1.831  18.880  0.00  0.00    +0.000 HD
ENDBRANCH  29  30
ENDBRANCH  28  29
ENDBRANCH  27  28
ENDBRANCH  26  27
ENDBRANCH  19  26
ENDBRANCH  18  19
ENDBRANCH  17  18
ENDBRANCH   1  17
TORSDOF 14
ENDMDL
MODEL 9
REMARK VINA RESULT:      -5.7      2.900      9.003
REMARK  Name = 
REMARK  15 active torsions:
REMARK  status: ('A' for Active; 'I' for Inactive)
REMARK    1  A    between atoms: C_1  and  N_2
REMARK    2  A    between atoms: C_6  and  C_7
REMARK    3  A    between atoms: N_9  and  C_10
REMARK    4  A    between atoms: C_10  and  C_11
REMARK    5  A    between atoms: C_11  and  C_12
REMARK    6  A    between atoms: C_12  and  N_13
REMARK    7  A    between atoms: N_13  and  C_14
REMARK    8  A    between atoms: N_13  and  C_18
REMARK    9  A    between atoms: C_14  and  C_15
REMARK   10  A    between atoms: C_15  and  C_16
REMARK   11  A    between atoms: C_16  and  N_17
REMARK   12  A    between atoms: C_18  and  C_19
REMARK   13  A    between atoms: C_19  and  C_20
REMARK   14  A    between atoms: C_20  and  C_21
REMARK   15  A    between atoms: C_21  and  N_22
REMARK                            x       y       z     vdW  Elec       q    Type
REMARK                         _______ _______ _______ _____ _____    ______ ____
ROOT
ATOM      1  C   UNL     1       2.739   7.523  18.183  0.00  0.00    +0.000 C 
ENDROOT
BRANCH   1   4
ATOM      2  C   UNL     1       1.633   9.742  18.181  0.00  0.00    +0.000 C 
ATOM      3  O   UNL     1       2.456  10.238  17.421  0.00  0.00    +0.000 OA
ATOM      4  N   UNL     1       1.666   8.419  18.576  0.00  0.00    +0.000 N 
ATOM      5  H   UNL     1       0.970   8.130  19.258  0.00  0.00    +0.000 HD
BRANCH   2  11
ATOM      6  C   UNL     1      -4.751  11.211  17.675  0.00  0.00    +0.000 C 
ATOM      7  N   UNL     1      -3.342  11.031  17.947  0.00  0.00    +0.000 N 
ATOM      8  N   UNL     1      -2.654  10.220  17.076  0.00  0.00    +0.000 NA
ATOM      9  N   UNL     1      -1.433  10.000  17.250  0.00  0.00    +0.000 NA
ATOM     10  C   UNL     1      -0.776  10.547  18.294  0.00  0.00    +0.000 A 
ATOM     11  C   UNL     1       0.524  10.495  18.770  0.00  0.00    +0.000 A 
ATOM     12  N   UNL     1       0.647  11.275  19.919  0.00  0.00    +0.000 NA
ATOM     13  C   UNL     1      -0.552  11.779  20.115  0.00  0.00    +0.000 A 
ATOM     14  N   UNL     1      -1.444  11.361  19.163  0.00  0.00    +0.000 N 
ATOM     15  C   UNL     1      -2.787  11.661  19.046  0.00  0.00    +0.000 A 
ATOM     16  O   UNL     1      -3.325  12.395  19.863  0.00  0.00    +0.000 OA
ENDBRANCH   2  11
ENDBRANCH   1   4
BRANCH   1  17
ATOM     17  C   UNL     1       2.457   6.096  18.645  0.00  0.00    +0.000 C 
BRANCH  17  18
ATOM     18  C   UNL     1       3.194   5.016  17.839  0.00  0.00    +0.000 C 
BRANCH  18  19
ATOM     19  N   UNL     1       4.542   4.597  18.294  0.00  0.00    +0.000 NA
BRANCH  19  20
ATOM     20  C   UNL     1       4.457   3.492  19.279  0.00  0.00    +0.000 C 
BRANCH  20  21
ATOM     21  C   UNL     1       3.586   2.278  18.894  0.00  0.00    +0.000 C 
BRANCH  21  22
ATOM     22  C   UNL     1       2.242   2.226  19.617  0.00  0.00    +0.000 C 
BRANCH  22  23
ATOM     23  N   UNL     1       1.173   1.959  18.651  0.00  0.00    +0.000 NA
ATOM     24  H   UNL     1       0.628   1.156  18.961  0.00  0.00    +0.000 HD
ATOM     25  H   UNL     1       1.589   1.694  17.759  0.00  0.00    +0.000 HD
ENDBRANCH  22  23
ENDBRANCH  21  22
ENDBRANCH  20  21
ENDBRANCH  19  20
BRANCH  19  26
ATOM     26  C   UNL     1       5.364   4.183  17.129  0.00  0.00    +0.000 C 
BRANCH  26  27
ATOM     27  C   UNL     1       6.671   4.960  16.927  0.00  0.00    +0.000 C 
BRANCH  27  28
ATOM     28  C   UNL     1       6.722   6.252  17.744  0.00  0.00    +0.000 C 
BRANCH  28  29
ATOM     29  C   UNL     1       7.817   6.172  18.805  0.00  0.00    +0.000 C 
BRANCH  29  30
ATOM     30  N   UNL     1       7.357   5.414  19.961  0.00  0.00    +0.000 NA
ATOM     31  H   UNL     1       7.068   6.057  20.698  0.00  0.00    +0.000 HD
ATOM     32  H   UNL     1       8.130   4.870  20.338  0.00  0.00    +0.000 HD
ENDBRANCH  29  30
ENDBRANCH  28  29
ENDBRANCH  27  28
ENDBRANCH  26  27
ENDBRANCH  19  26
ENDBRANCH  18  19
ENDBRANCH  17  18
ENDBRANCH   1  17
TORSDOF 14
ENDMDL
