MODEL 1
REMARK VINA RESULT:      -9.4      0.000      0.000
REMARK  Name = 
REMARK  6 active torsions:
REMARK  status: ('A' for Active; 'I' for Inactive)
REMARK    1  A    between atoms: C_1  and  C_2
REMARK    2  A    between atoms: C_5  and  C_6
REMARK    3  A    between atoms: C_6  and  N_7
REMARK    4  A    between atoms: C_10  and  C_11
REMARK    5  A    between atoms: C_13  and  C_14
REMARK    6  A    between atoms: C_18  and  C_19
REMARK                            x       y       z     vdW  Elec       q    Type
REMARK                         _______ _______ _______ _____ _____    ______ ____
ROOT
ATOM      1  C   UNL     1       2.960   5.910  19.576  0.00  0.00    +0.000 A 
ATOM      2  C   UNL     1       4.138   5.841  18.843  0.00  0.00    +0.000 A 
ATOM      3  C   UNL     1       4.823   4.629  18.771  0.00  0.00    +0.000 A 
ATOM      4  C   UNL     1       4.268   3.512  19.396  0.00  0.00    +0.000 A 
ATOM      5  C   UNL     1       3.084   3.665  20.097  0.00  0.00    +0.000 A 
ATOM      6  N   UNL     1       2.424   4.836  20.211  0.00  0.00    +0.000 NA
ENDROOT
BRANCH   3   7
ATOM      7  C   UNL     1       6.064   4.505  18.037  0.00  0.00    +0.000 A 
ATOM      8  N   UNL     1       7.290   4.514  18.656  0.00  0.00    +0.000 NA
ATOM      9  N   UNL     1       8.228   4.368  17.731  0.00  0.00    +0.000 NA
ATOM     10  N   UNL     1       7.608   4.278  16.548  0.00  0.00    +0.000 N 
ATOM     11  C   UNL     1       6.256   4.391  16.677  0.00  0.00    +0.000 A 
ATOM     12  H   UNL     1       8.170   4.156  15.710  0.00  0.00    +0.000 HD
BRANCH  11  13
ATOM     13  C   UNL     1       5.413   4.381  15.483  0.00  0.00    +0.000 C 
ATOM     14  F   UNL     1       4.175   3.877  15.678  0.00  0.00    +0.000 F 
ATOM     15  F   UNL     1       5.250   5.640  15.001  0.00  0.00    +0.000 F 
ATOM     16  F   UNL     1       5.991   3.665  14.487  0.00  0.00    +0.000 F 
ENDBRANCH  11  13
ENDBRANCH   3   7
BRANCH   1  20
ATOM     17  N   UNL     1       1.443   9.143  19.196  0.00  0.00    +0.000 N 
ATOM     18  C   UNL     1       1.097   8.794  20.471  0.00  0.00    +0.000 A 
ATOM     19  N   UNL     1       1.564   7.606  20.782  0.00  0.00    +0.000 NA
ATOM     20  C   UNL     1       2.238   7.170  19.655  0.00  0.00    +0.000 A 
ATOM     21  C   UNL     1       2.138   8.104  18.648  0.00  0.00    +0.000 A 
BRANCH  17  22
ATOM     22  C   UNL     1       1.125  10.401  18.543  0.00  0.00    +0.000 C 
BRANCH  22  27
ATOM     23  C   UNL     1      -4.594  11.247  17.844  0.00  0.00    +0.000 C 
ATOM     24  C   UNL     1      -3.131  10.986  18.046  0.00  0.00    +0.000 A 
ATOM     25  C   UNL     1      -2.472   9.971  17.342  0.00  0.00    +0.000 A 
ATOM     26  C   UNL     1      -1.099   9.761  17.511  0.00  0.00    +0.000 A 
ATOM     27  C   UNL     1      -0.363  10.563  18.394  0.00  0.00    +0.000 A 
ATOM     28  C   UNL     1      -1.033  11.565  19.099  0.00  0.00    +0.000 A 
ATOM     29  F   UNL     1      -0.351  12.351  19.945  0.00  0.00    +0.000 F 
ATOM     30  C   UNL     1      -2.398  11.780  18.934  0.00  0.00    +0.000 A 
ENDBRANCH  22  27
ENDBRANCH  17  22
ENDBRANCH   1  20
TORSDOF 5
ENDMDL
MODEL 2
REMARK VINA RESULT:      -9.3      1.015      1.273
REMARK  Name = 
REMARK  6 active torsions:
REMARK  status: ('A' for Active; 'I' for Inactive)
REMARK    1  A    between atoms: C_1  and  C_2
REMARK    2  A    between atoms: C_5  and  C_6
REMARK    3  A    between atoms: C_6  and  N_7
REMARK    4  A    between atoms: C_10  and  C_11
REMARK    5  A    between atoms: C_13  and  C_14
REMARK    6  A    between atoms: C_18  and  C_19
REMARK                            x       y       z     vdW  Elec       q    Type
REMARK                         _______ _______ _______ _____ _____    ______ ____
ROOT
ATOM      1  C   UNL     1       2.934   6.515  18.613  0.00  0.00    +0.000 A 
ATOM      2  C   UNL     1       4.202   6.310  18.085  0.00  0.00    +0.000 A 
ATOM      3  C   UNL     1       4.750   5.028  18.110  0.00  0.00    +0.000 A 
ATOM      4  C   UNL     1       3.976   3.983  18.619  0.00  0.00    +0.000 A 
ATOM      5  C   UNL     1       2.716   4.273  19.115  0.00  0.00    +0.000 A 
ATOM      6  N   UNL     1       2.183   5.512  19.135  0.00  0.00    +0.000 NA
ENDROOT
BRANCH   3   7
ATOM      7  C   UNL     1       6.073   4.761  17.591  0.00  0.00    +0.000 A 
ATOM      8  N   UNL     1       7.138   4.461  18.406  0.00  0.00    +0.000 NA
ATOM      9  N   UNL     1       8.202   4.254  17.645  0.00  0.00    +0.000 NA
ATOM     10  N   UNL     1       7.823   4.429  16.373  0.00  0.00    +0.000 N 
ATOM     11  C   UNL     1       6.508   4.780  16.283  0.00  0.00    +0.000 A 
ATOM     12  H   UNL     1       8.511   4.306  15.636  0.00  0.00    +0.000 HD
BRANCH  11  13
ATOM     13  C   UNL     1       5.928   5.077  14.975  0.00  0.00    +0.000 C 
ATOM     14  F   UNL     1       5.031   4.164  14.543  0.00  0.00    +0.000 F 
ATOM     15  F   UNL     1       5.286   6.274  14.996  0.00  0.00    +0.000 F 
ATOM     16  F   UNL     1       6.892   5.180  14.028  0.00  0.00    +0.000 F 
ENDBRANCH  11  13
ENDBRANCH   3   7
BRANCH   1  20
ATOM     17  N   UNL     1       1.195   9.621  19.092  0.00  0.00    +0.000 N 
ATOM     18  C   UNL     1       1.800   9.796  17.879  0.00  0.00    +0.000 A 
ATOM     19  N   UNL     1       2.508   8.742  17.544  0.00  0.00    +0.000 NA
ATOM     20  C   UNL     1       2.355   7.849  18.590  0.00  0.00    +0.000 A 
ATOM     21  C   UNL     1       1.568   8.401  19.577  0.00  0.00    +0.000 A 
BRANCH  17  22
ATOM     22  C   UNL     1       0.311  10.570  19.746  0.00  0.00    +0.000 C 
BRANCH  22  27
ATOM     23  C   UNL     1      -4.598  11.353  16.713  0.00  0.00    +0.000 C 
ATOM     24  C   UNL     1      -3.349  11.106  17.506  0.00  0.00    +0.000 A 
ATOM     25  C   UNL     1      -2.394  10.173  17.083  0.00  0.00    +0.000 A 
ATOM     26  C   UNL     1      -1.216   9.979  17.812  0.00  0.00    +0.000 A 
ATOM     27  C   UNL     1      -0.977  10.713  18.982  0.00  0.00    +0.000 A 
ATOM     28  C   UNL     1      -1.942  11.632  19.400  0.00  0.00    +0.000 A 
ATOM     29  F   UNL     1      -1.735  12.351  20.513  0.00  0.00    +0.000 F 
ATOM     30  C   UNL     1      -3.115  11.831  18.679  0.00  0.00    +0.000 A 
ENDBRANCH  22  27
ENDBRANCH  17  22
ENDBRANCH   1  20
TORSDOF 5
ENDMDL
MODEL 3
REMARK VINA RESULT:      -9.1      0.983      1.330
REMARK  Name = 
REMARK  6 active torsions:
REMARK  status: ('A' for Active; 'I' for Inactive)
REMARK    1  A    between atoms: C_1  and  C_2
REMARK    2  A    between atoms: C_5  and  C_6
REMARK    3  A    between atoms: C_6  and  N_7
REMARK    4  A    between atoms: C_10  and  C_11
REMARK    5  A    between atoms: C_13  and  C_14
REMARK    6  A    between atoms: C_18  and  C_19
REMARK                            x       y       z     vdW  Elec       q    Type
REMARK                         _______ _______ _______ _____ _____    ______ ____
ROOT
ATOM      1  C   UNL     1       2.602   6.230  19.801  0.00  0.00    +0.000 A 
ATOM      2  C   UNL     1       3.852   6.139  19.204  0.00  0.00    +0.000 A 
ATOM      3  C   UNL     1       4.483   4.898  19.133  0.00  0.00    +0.000 A 
ATOM      4  C   UNL     1       3.807   3.778  19.620  0.00  0.00    +0.000 A 
ATOM      5  C   UNL     1       2.557   3.956  20.190  0.00  0.00    +0.000 A 
ATOM      6  N   UNL     1       1.945   5.152  20.303  0.00  0.00    +0.000 NA
ENDROOT
BRANCH   3   7
ATOM      7  C   UNL     1       5.794   4.748  18.539  0.00  0.00    +0.000 A 
ATOM      8  N   UNL     1       6.953   4.919  19.256  0.00  0.00    +0.000 NA
ATOM      9  N   UNL     1       7.981   4.703  18.449  0.00  0.00    +0.000 NA
ATOM     10  N   UNL     1       7.484   4.411  17.241  0.00  0.00    +0.000 N 
ATOM     11  C   UNL     1       6.121   4.457  17.232  0.00  0.00    +0.000 A 
ATOM     12  H   UNL     1       8.129   4.207  16.483  0.00  0.00    +0.000 HD
BRANCH  11  13
ATOM     13  C   UNL     1       5.399   4.229  15.982  0.00  0.00    +0.000 C 
ATOM     14  F   UNL     1       4.128   3.799  16.142  0.00  0.00    +0.000 F 
ATOM     15  F   UNL     1       5.335   5.371  15.250  0.00  0.00    +0.000 F 
ATOM     16  F   UNL     1       6.042   3.318  15.209  0.00  0.00    +0.000 F 
ENDBRANCH  11  13
ENDBRANCH   3   7
BRANCH   1  20
ATOM     17  N   UNL     1       1.237   9.530  19.419  0.00  0.00    +0.000 N 
ATOM     18  C   UNL     1       0.859   9.191  20.688  0.00  0.00    +0.000 A 
ATOM     19  N   UNL     1       1.269   7.982  20.999  0.00  0.00    +0.000 NA
ATOM     20  C   UNL     1       1.936   7.521  19.878  0.00  0.00    +0.000 A 
ATOM     21  C   UNL     1       1.891   8.463  18.875  0.00  0.00    +0.000 A 
BRANCH  17  22
ATOM     22  C   UNL     1       0.983  10.803  18.768  0.00  0.00    +0.000 C 
BRANCH  22  27
ATOM     23  C   UNL     1      -4.776  11.645  18.584  0.00  0.00    +0.000 C 
ATOM     24  C   UNL     1      -3.287  11.472  18.612  0.00  0.00    +0.000 A 
ATOM     25  C   UNL     1      -2.484  12.236  19.468  0.00  0.00    +0.000 A 
ATOM     26  C   UNL     1      -1.100  12.040  19.511  0.00  0.00    +0.000 A 
ATOM     27  C   UNL     1      -0.494  11.078  18.691  0.00  0.00    +0.000 A 
ATOM     28  C   UNL     1      -1.303  10.331  17.833  0.00  0.00    +0.000 A 
ATOM     29  F   UNL     1      -0.749   9.400  17.042  0.00  0.00    +0.000 F 
ATOM     30  C   UNL     1      -2.681  10.519  17.786  0.00  0.00    +0.000 A 
ENDBRANCH  22  27
ENDBRANCH  17  22
ENDBRANCH   1  20
TORSDOF 5
ENDMDL
MODEL 4
REMARK VINA RESULT:      -8.9      2.014      2.324
REMARK  Name = 
REMARK  6 active torsions:
REMARK  status: ('A' for Active; 'I' for Inactive)
REMARK    1  A    between atoms: C_1  and  C_2
REMARK    2  A    between atoms: C_5  and  C_6
REMARK    3  A    between atoms: C_6  and  N_7
REMARK    4  A    between atoms: C_10  and  C_11
REMARK    5  A    between atoms: C_13  and  C_14
REMARK    6  A    between atoms: C_18  and  C_19
REMARK                            x       y       z     vdW  Elec       q    Type
REMARK                         _______ _______ _______ _____ _____    ______ ____
ROOT
ATOM      1  C   UNL     1       2.550   6.792  19.062  0.00  0.00    +0.000 A 
ATOM      2  C   UNL     1       3.621   6.865  18.181  0.00  0.00    +0.000 A 
ATOM      3  C   UNL     1       4.334   5.705  17.881  0.00  0.00    +0.000 A 
ATOM      4  C   UNL     1       3.909   4.498  18.440  0.00  0.00    +0.000 A 
ATOM      5  C   UNL     1       2.824   4.513  19.300  0.00  0.00    +0.000 A 
ATOM      6  N   UNL     1       2.144   5.629  19.633  0.00  0.00    +0.000 NA
ENDROOT
BRANCH   3   7
ATOM      7  C   UNL     1       5.469   5.725  16.984  0.00  0.00    +0.000 A 
ATOM      8  N   UNL     1       5.331   5.648  15.620  0.00  0.00    +0.000 NA
ATOM      9  N   UNL     1       6.537   5.706  15.073  0.00  0.00    +0.000 NA
ATOM     10  N   UNL     1       7.423   5.807  16.073  0.00  0.00    +0.000 N 
ATOM     11  C   UNL     1       6.811   5.790  17.291  0.00  0.00    +0.000 A 
ATOM     12  H   UNL     1       8.411   5.868  15.846  0.00  0.00    +0.000 HD
BRANCH  11  13
ATOM     13  C   UNL     1       7.622   5.826  18.507  0.00  0.00    +0.000 C 
ATOM     14  F   UNL     1       8.365   6.946  18.649  0.00  0.00    +0.000 F 
ATOM     15  F   UNL     1       6.836   5.738  19.610  0.00  0.00    +0.000 F 
ATOM     16  F   UNL     1       8.468   4.767  18.558  0.00  0.00    +0.000 F 
ENDBRANCH  11  13
ENDBRANCH   3   7
BRANCH   1  20
ATOM     17  N   UNL     1       0.829   9.940  19.236  0.00  0.00    +0.000 N 
ATOM     18  C   UNL     1       0.778   9.495  20.527  0.00  0.00    +0.000 A 
ATOM     19  N   UNL     1       1.358   8.323  20.650  0.00  0.00    +0.000 NA
ATOM     20  C   UNL     1       1.800   7.997  19.379  0.00  0.00    +0.000 A 
ATOM     21  C   UNL     1       1.443   8.981  18.484  0.00  0.00    +0.000 A 
BRANCH  17  22
ATOM     22  C   UNL     1       0.317  11.211  18.754  0.00  0.00    +0.000 C 
BRANCH  22  27
ATOM     23  C   UNL     1      -5.417  11.149  17.744  0.00  0.00    +0.000 C 
ATOM     24  C   UNL     1      -3.943  11.120  18.022  0.00  0.00    +0.000 A 
ATOM     25  C   UNL     1      -3.085  10.289  17.292  0.00  0.00    +0.000 A 
ATOM     26  C   UNL     1      -1.707  10.297  17.536  0.00  0.00    +0.000 A 
ATOM     27  C   UNL     1      -1.166  11.135  18.520  0.00  0.00    +0.000 A 
ATOM     28  C   UNL     1      -2.034  11.951  19.250  0.00  0.00    +0.000 A 
ATOM     29  F   UNL     1      -1.541  12.767  20.193  0.00  0.00    +0.000 F 
ATOM     30  C   UNL     1      -3.405  11.949  19.012  0.00  0.00    +0.000 A 
ENDBRANCH  22  27
ENDBRANCH  17  22
ENDBRANCH   1  20
TORSDOF 5
ENDMDL
MODEL 5
REMARK VINA RESULT:      -8.9      1.833      2.651
REMARK  Name = 
REMARK  6 active torsions:
REMARK  status: ('A' for Active; 'I' for Inactive)
REMARK    1  A    between atoms: C_1  and  C_2
REMARK    2  A    between atoms: C_5  and  C_6
REMARK    3  A    between atoms: C_6  and  N_7
REMARK    4  A    between atoms: C_10  and  C_11
REMARK    5  A    between atoms: C_13  and  C_14
REMARK    6  A    between atoms: C_18  and  C_19
REMARK                            x       y       z     vdW  Elec       q    Type
REMARK                         _______ _______ _______ _____ _____    ______ ____
ROOT
ATOM      1  C   UNL     1       2.741   6.415  18.111  0.00  0.00    +0.000 A 
ATOM      2  C   UNL     1       4.106   6.244  17.928  0.00  0.00    +0.000 A 
ATOM      3  C   UNL     1       4.597   4.973  17.631  0.00  0.00    +0.000 A 
ATOM      4  C   UNL     1       3.687   3.926  17.475  0.00  0.00    +0.000 A 
ATOM      5  C   UNL     1       2.340   4.187  17.664  0.00  0.00    +0.000 A 
ATOM      6  N   UNL     1       1.847   5.400  17.989  0.00  0.00    +0.000 NA
ENDROOT
BRANCH   3   7
ATOM      7  C   UNL     1       6.013   4.733  17.448  0.00  0.00    +0.000 A 
ATOM      8  N   UNL     1       6.884   4.625  18.504  0.00  0.00    +0.000 NA
ATOM      9  N   UNL     1       8.097   4.393  18.023  0.00  0.00    +0.000 NA
ATOM     10  N   UNL     1       7.998   4.364  16.689  0.00  0.00    +0.000 N 
ATOM     11  C   UNL     1       6.721   4.604  16.273  0.00  0.00    +0.000 A 
ATOM     12  H   UNL     1       8.835   4.191  16.139  0.00  0.00    +0.000 HD
BRANCH  11  13
ATOM     13  C   UNL     1       6.429   4.676  14.843  0.00  0.00    +0.000 C 
ATOM     14  F   UNL     1       6.027   3.508  14.296  0.00  0.00    +0.000 F 
ATOM     15  F   UNL     1       5.445   5.579  14.599  0.00  0.00    +0.000 F 
ATOM     16  F   UNL     1       7.513   5.099  14.146  0.00  0.00    +0.000 F 
ENDBRANCH  11  13
ENDBRANCH   3   7
BRANCH   1  20
ATOM     17  N   UNL     1       1.273   9.414  19.436  0.00  0.00    +0.000 N 
ATOM     18  C   UNL     1       1.580   9.768  18.151  0.00  0.00    +0.000 A 
ATOM     19  N   UNL     1       2.152   8.776  17.508  0.00  0.00    +0.000 NA
ATOM     20  C   UNL     1       2.219   7.737  18.421  0.00  0.00    +0.000 A 
ATOM     21  C   UNL     1       1.707   8.136  19.636  0.00  0.00    +0.000 A 
BRANCH  17  22
ATOM     22  C   UNL     1       0.602  10.255  20.412  0.00  0.00    +0.000 C 
BRANCH  22  27
ATOM     23  C   UNL     1       0.165  15.811  18.729  0.00  0.00    +0.000 C 
ATOM     24  C   UNL     1       0.315  14.375  19.132  0.00  0.00    +0.000 A 
ATOM     25  C   UNL     1       1.421  13.943  19.875  0.00  0.00    +0.000 A 
ATOM     26  C   UNL     1       1.532  12.607  20.276  0.00  0.00    +0.000 A 
ATOM     27  C   UNL     1       0.538  11.679  19.935  0.00  0.00    +0.000 A 
ATOM     28  C   UNL     1      -0.554  12.120  19.185  0.00  0.00    +0.000 A 
ATOM     29  F   UNL     1      -1.522  11.253  18.851  0.00  0.00    +0.000 F 
ATOM     30  C   UNL     1      -0.671  13.447  18.784  0.00  0.00    +0.000 A 
ENDBRANCH  22  27
ENDBRANCH  17  22
ENDBRANCH   1  20
TORSDOF 5
ENDMDL
MODEL 6
REMARK VINA RESULT:      -8.9      1.857      2.129
REMARK  Name = 
REMARK  6 active torsions:
REMARK  status: ('A' for Active; 'I' for Inactive)
REMARK    1  A    between atoms: C_1  and  C_2
REMARK    2  A    between atoms: C_5  and  C_6
REMARK    3  A    between atoms: C_6  and  N_7
REMARK    4  A    between atoms: C_10  and  C_11
REMARK    5  A    between atoms: C_13  and  C_14
REMARK    6  A    between atoms: C_18  and  C_19
REMARK                            x       y       z     vdW  Elec       q    Type
REMARK                         _______ _______ _______ _____ _____    ______ ____
ROOT
ATOM      1  C   UNL     1       2.705   6.209  19.662  0.00  0.00    +0.000 A 
ATOM      2  C   UNL     1       3.726   6.101  18.727  0.00  0.00    +0.000 A 
ATOM      3  C   UNL     1       4.403   4.889  18.597  0.00  0.00    +0.000 A 
ATOM      4  C   UNL     1       3.989   3.808  19.378  0.00  0.00    +0.000 A 
ATOM      5  C   UNL     1       2.953   3.999  20.277  0.00  0.00    +0.000 A 
ATOM      6  N   UNL     1       2.311   5.173  20.446  0.00  0.00    +0.000 NA
ENDROOT
BRANCH   3   7
ATOM      7  C   UNL     1       5.487   4.726  17.653  0.00  0.00    +0.000 A 
ATOM      8  N   UNL     1       5.308   4.155  16.417  0.00  0.00    +0.000 NA
ATOM      9  N   UNL     1       6.471   4.158  15.782  0.00  0.00    +0.000 NA
ATOM     10  N   UNL     1       7.372   4.711  16.604  0.00  0.00    +0.000 N 
ATOM     11  C   UNL     1       6.818   5.054  17.801  0.00  0.00    +0.000 A 
ATOM     12  H   UNL     1       8.332   4.805  16.285  0.00  0.00    +0.000 HD
BRANCH  11  13
ATOM     13  C   UNL     1       7.663   5.614  18.854  0.00  0.00    +0.000 C 
ATOM     14  F   UNL     1       7.057   5.726  20.056  0.00  0.00    +0.000 F 
ATOM     15  F   UNL     1       8.765   4.844  19.044  0.00  0.00    +0.000 F 
ATOM     16  F   UNL     1       8.115   6.846  18.510  0.00  0.00    +0.000 F 
ENDBRANCH  11  13
ENDBRANCH   3   7
BRANCH   1  20
ATOM     17  N   UNL     1       1.178   9.451  19.421  0.00  0.00    +0.000 N 
ATOM     18  C   UNL     1       0.907   9.083  20.710  0.00  0.00    +0.000 A 
ATOM     19  N   UNL     1       1.388   7.890  20.974  0.00  0.00    +0.000 NA
ATOM     20  C   UNL     1       1.993   7.470  19.803  0.00  0.00    +0.000 A 
ATOM     21  C   UNL     1       1.836   8.420  18.818  0.00  0.00    +0.000 A 
BRANCH  17  22
ATOM     22  C   UNL     1       0.826  10.720  18.807  0.00  0.00    +0.000 C 
BRANCH  22  27
ATOM     23  C   UNL     1      -4.844  11.177  17.563  0.00  0.00    +0.000 C 
ATOM     24  C   UNL     1      -3.392  11.015  17.902  0.00  0.00    +0.000 A 
ATOM     25  C   UNL     1      -2.588  10.092  17.221  0.00  0.00    +0.000 A 
ATOM     26  C   UNL     1      -1.226   9.976  17.521  0.00  0.00    +0.000 A 
ATOM     27  C   UNL     1      -0.648  10.779  18.514  0.00  0.00    +0.000 A 
ATOM     28  C   UNL     1      -1.462  11.687  19.193  0.00  0.00    +0.000 A 
ATOM     29  F   UNL     1      -0.932  12.472  20.143  0.00  0.00    +0.000 F 
ATOM     30  C   UNL     1      -2.817  11.809  18.899  0.00  0.00    +0.000 A 
ENDBRANCH  22  27
ENDBRANCH  17  22
ENDBRANCH   1  20
TORSDOF 5
ENDMDL
MODEL 7
REMARK VINA RESULT:      -8.9      1.859      2.098
REMARK  Name = 
REMARK  6 active torsions:
REMARK  status: ('A' for Active; 'I' for Inactive)
REMARK    1  A    between atoms: C_1  and  C_2
REMARK    2  A    between atoms: C_5  and  C_6
REMARK    3  A    between atoms: C_6  and  N_7
REMARK    4  A    between atoms: C_10  and  C_11
REMARK    5  A    between atoms: C_13  and  C_14
REMARK    6  A    between atoms: C_18  and  C_19
REMARK                            x       y       z     vdW  Elec       q    Type
REMARK                         _______ _______ _______ _____ _____    ______ ____
ROOT
ATOM      1  C   UNL     1       2.961   6.327  19.106  0.00  0.00    +0.000 A 
ATOM      2  C   UNL     1       3.938   6.350  18.121  0.00  0.00    +0.000 A 
ATOM      3  C   UNL     1       4.681   5.197  17.873  0.00  0.00    +0.000 A 
ATOM      4  C   UNL     1       4.375   4.040  18.591  0.00  0.00    +0.000 A 
ATOM      5  C   UNL     1       3.376   4.100  19.549  0.00  0.00    +0.000 A 
ATOM      6  N   UNL     1       2.672   5.215  19.831  0.00  0.00    +0.000 NA
ENDROOT
BRANCH   3   7
ATOM      7  C   UNL     1       5.724   5.170  16.870  0.00  0.00    +0.000 A 
ATOM      8  N   UNL     1       5.765   4.224  15.875  0.00  0.00    +0.000 NA
ATOM      9  N   UNL     1       6.819   4.467  15.110  0.00  0.00    +0.000 NA
ATOM     10  N   UNL     1       7.440   5.540  15.617  0.00  0.00    +0.000 N 
ATOM     11  C   UNL     1       6.816   6.000  16.738  0.00  0.00    +0.000 A 
ATOM     12  H   UNL     1       8.277   5.883  15.155  0.00  0.00    +0.000 HD
BRANCH  11  13
ATOM     13  C   UNL     1       7.387   7.129  17.470  0.00  0.00    +0.000 C 
ATOM     14  F   UNL     1       8.373   7.778  16.813  0.00  0.00    +0.000 F 
ATOM     15  F   UNL     1       6.431   8.053  17.747  0.00  0.00    +0.000 F 
ATOM     16  F   UNL     1       7.888   6.731  18.665  0.00  0.00    +0.000 F 
ENDBRANCH  11  13
ENDBRANCH   3   7
BRANCH   1  20
ATOM     17  N   UNL     1       1.245   9.481  19.181  0.00  0.00    +0.000 N 
ATOM     18  C   UNL     1       1.023   8.986  20.435  0.00  0.00    +0.000 A 
ATOM     19  N   UNL     1       1.577   7.805  20.585  0.00  0.00    +0.000 NA
ATOM     20  C   UNL     1       2.180   7.525  19.371  0.00  0.00    +0.000 A 
ATOM     21  C   UNL     1       1.948   8.547  18.477  0.00  0.00    +0.000 A 
BRANCH  17  22
ATOM     22  C   UNL     1       0.806  10.775  18.688  0.00  0.00    +0.000 C 
BRANCH  22  27
ATOM     23  C   UNL     1      -4.922  11.029  17.675  0.00  0.00    +0.000 C 
ATOM     24  C   UNL     1      -3.453  10.919  17.955  0.00  0.00    +0.000 A 
ATOM     25  C   UNL     1      -2.650  10.001  17.267  0.00  0.00    +0.000 A 
ATOM     26  C   UNL     1      -1.274   9.934  17.512  0.00  0.00    +0.000 A 
ATOM     27  C   UNL     1      -0.679  10.783  18.456  0.00  0.00    +0.000 A 
ATOM     28  C   UNL     1      -1.492  11.686  19.144  0.00  0.00    +0.000 A 
ATOM     29  F   UNL     1      -0.947  12.514  20.048  0.00  0.00    +0.000 F 
ATOM     30  C   UNL     1      -2.861  11.759  18.905  0.00  0.00    +0.000 A 
ENDBRANCH  22  27
ENDBRANCH  17  22
ENDBRANCH   1  20
TORSDOF 5
ENDMDL
MODEL 8
REMARK VINA RESULT:      -8.7      2.377      3.372
REMARK  Name = 
REMARK  6 active torsions:
REMARK  status: ('A' for Active; 'I' for Inactive)
REMARK    1  A    between atoms: C_1  and  C_2
REMARK    2  A    between atoms: C_5  and  C_6
REMARK    3  A    between atoms: C_6  and  N_7
REMARK    4  A    between atoms: C_10  and  C_11
REMARK    5  A    between atoms: C_13  and  C_14
REMARK    6  A    between atoms: C_18  and  C_19
REMARK                            x       y       z     vdW  Elec       q    Type
REMARK                         _______ _______ _______ _____ _____    ______ ____
ROOT
ATOM      1  C   UNL     1       2.837   7.493  18.347  0.00  0.00    +0.000 A 
ATOM      2  C   UNL     1       2.860   6.253  18.970  0.00  0.00    +0.000 A 
ATOM      3  C   UNL     1       3.758   5.284  18.522  0.00  0.00    +0.000 A 
ATOM      4  C   UNL     1       4.641   5.619  17.494  0.00  0.00    +0.000 A 
ATOM      5  C   UNL     1       4.558   6.884  16.936  0.00  0.00    +0.000 A 
ATOM      6  N   UNL     1       3.672   7.822  17.328  0.00  0.00    +0.000 NA
ENDROOT
BRANCH   3   7
ATOM      7  C   UNL     1       3.813   3.969  19.122  0.00  0.00    +0.000 A 
ATOM      8  N   UNL     1       4.987   3.410  19.565  0.00  0.00    +0.000 NA
ATOM      9  N   UNL     1       4.717   2.217  20.074  0.00  0.00    +0.000 NA
ATOM     10  N   UNL     1       3.399   2.019  19.946  0.00  0.00    +0.000 N 
ATOM     11  C   UNL     1       2.789   3.069  19.327  0.00  0.00    +0.000 A 
ATOM     12  H   UNL     1       3.000   1.149  20.288  0.00  0.00    +0.000 HD
BRANCH  11  13
ATOM     13  C   UNL     1       1.357   3.006  19.041  0.00  0.00    +0.000 C 
ATOM     14  F   UNL     1       0.979   3.683  17.934  0.00  0.00    +0.000 F 
ATOM     15  F   UNL     1       0.960   1.720  18.864  0.00  0.00    +0.000 F 
ATOM     16  F   UNL     1       0.633   3.489  20.080  0.00  0.00    +0.000 F 
ENDBRANCH  11  13
ENDBRANCH   3   7
BRANCH   1  20
ATOM     17  N   UNL     1       0.672  10.299  18.930  0.00  0.00    +0.000 N 
ATOM     18  C   UNL     1       0.618   9.623  20.117  0.00  0.00    +0.000 A 
ATOM     19  N   UNL     1       1.354   8.537  20.079  0.00  0.00    +0.000 NA
ATOM     20  C   UNL     1       1.904   8.510  18.809  0.00  0.00    +0.000 A 
ATOM     21  C   UNL     1       1.456   9.584  18.073  0.00  0.00    +0.000 A 
BRANCH  17  22
ATOM     22  C   UNL     1       0.008  11.558  18.638  0.00  0.00    +0.000 C 
BRANCH  22  27
ATOM     23  C   UNL     1      -5.745  11.006  17.932  0.00  0.00    +0.000 C 
ATOM     24  C   UNL     1      -4.262  11.103  18.132  0.00  0.00    +0.000 A 
ATOM     25  C   UNL     1      -3.376  10.331  17.371  0.00  0.00    +0.000 A 
ATOM     26  C   UNL     1      -1.994  10.457  17.542  0.00  0.00    +0.000 A 
ATOM     27  C   UNL     1      -1.474  11.356  18.483  0.00  0.00    +0.000 A 
ATOM     28  C   UNL     1      -2.368  12.113  19.244  0.00  0.00    +0.000 A 
ATOM     29  F   UNL     1      -1.897  12.985  20.148  0.00  0.00    +0.000 F 
ATOM     30  C   UNL     1      -3.744  11.993  19.079  0.00  0.00    +0.000 A 
ENDBRANCH  22  27
ENDBRANCH  17  22
ENDBRANCH   1  20
TORSDOF 5
ENDMDL
MODEL 9
REMARK VINA RESULT:      -8.7      1.039      1.246
REMARK  Name = 
REMARK  6 active torsions:
REMARK  status: ('A' for Active; 'I' for Inactive)
REMARK    1  A    between atoms: C_1  and  C_2
REMARK    2  A    between atoms: C_5  and  C_6
REMARK    3  A    between atoms: C_6  and  N_7
REMARK    4  A    between atoms: C_10  and  C_11
REMARK    5  A    between atoms: C_13  and  C_14
REMARK    6  A    between atoms: C_18  and  C_19
REMARK                            x       y       z     vdW  Elec       q    Type
REMARK                         _______ _______ _______ _____ _____    ______ ____
ROOT
ATOM      1  C   UNL     1       2.828   5.995  18.744  0.00  0.00    +0.000 A 
ATOM      2  C   UNL     1       4.163   5.925  18.371  0.00  0.00    +0.000 A 
ATOM      3  C   UNL     1       4.708   4.689  18.025  0.00  0.00    +0.000 A 
ATOM      4  C   UNL     1       3.871   3.571  18.016  0.00  0.00    +0.000 A 
ATOM      5  C   UNL     1       2.548   3.732  18.392  0.00  0.00    +0.000 A 
ATOM      6  N   UNL     1       2.010   4.912  18.766  0.00  0.00    +0.000 NA
ENDROOT
BRANCH   3   7
ATOM      7  C   UNL     1       6.098   4.553  17.646  0.00  0.00    +0.000 A 
ATOM      8  N   UNL     1       7.104   4.414  18.570  0.00  0.00    +0.000 NA
ATOM      9  N   UNL     1       8.254   4.298  17.923  0.00  0.00    +0.000 NA
ATOM     10  N   UNL     1       7.983   4.372  16.614  0.00  0.00    +0.000 N 
ATOM     11  C   UNL     1       6.653   4.565  16.384  0.00  0.00    +0.000 A 
ATOM     12  H   UNL     1       8.750   4.298  15.951  0.00  0.00    +0.000 HD
BRANCH  11  13
ATOM     13  C   UNL     1       6.174   4.735  15.014  0.00  0.00    +0.000 C 
ATOM     14  F   UNL     1       5.908   3.579  14.369  0.00  0.00    +0.000 F 
ATOM     15  F   UNL     1       5.029   5.465  14.994  0.00  0.00    +0.000 F 
ATOM     16  F   UNL     1       7.074   5.421  14.266  0.00  0.00    +0.000 F 
ENDBRANCH  11  13
ENDBRANCH   3   7
BRANCH   1  20
ATOM     17  N   UNL     1       1.645   9.371  19.069  0.00  0.00    +0.000 N 
ATOM     18  C   UNL     1       1.347   8.827  20.287  0.00  0.00    +0.000 A 
ATOM     19  N   UNL     1       1.703   7.564  20.343  0.00  0.00    +0.000 NA
ATOM     20  C   UNL     1       2.252   7.282  19.105  0.00  0.00    +0.000 A 
ATOM     21  C   UNL     1       2.188   8.390  18.291  0.00  0.00    +0.000 A 
BRANCH  17  22
ATOM     22  C   UNL     1       1.421  10.752  18.676  0.00  0.00    +0.000 C 
BRANCH  22  27
ATOM     23  C   UNL     1      -3.943  12.651  19.909  0.00  0.00    +0.000 C 
ATOM     24  C   UNL     1      -2.576  12.117  19.602  0.00  0.00    +0.000 A 
ATOM     25  C   UNL     1      -2.350  11.305  18.484  0.00  0.00    +0.000 A 
ATOM     26  C   UNL     1      -1.063  10.842  18.188  0.00  0.00    +0.000 A 
ATOM     27  C   UNL     1       0.020  11.181  19.011  0.00  0.00    +0.000 A 
ATOM     28  C   UNL     1      -0.221  11.982  20.129  0.00  0.00    +0.000 A 
ATOM     29  F   UNL     1       0.799  12.326  20.930  0.00  0.00    +0.000 F 
ATOM     30  C   UNL     1      -1.497  12.447  20.429  0.00  0.00    +0.000 A 
ENDBRANCH  22  27
ENDBRANCH  17  22
ENDBRANCH   1  20
TORSDOF 5
ENDMDL
