MODEL 1
REMARK VINA RESULT:      -7.4      0.000      0.000
REMARK  Name = 
REMARK  9 active torsions:
REMARK  status: ('A' for Active; 'I' for Inactive)
REMARK    1  A    between atoms: C_1  and  C_2
REMARK    2  A    between atoms: C_2  and  C_3
REMARK    3  A    between atoms: C_3  and  C_4
REMARK    4  A    between atoms: C_4  and  O_5
REMARK    5  A    between atoms: O_5  and  C_6
REMARK    6  A    between atoms: C_10  and  C_11
REMARK    7  A    between atoms: N_13  and  C_14
REMARK    8  A    between atoms: C_14  and  C_15
REMARK    9  A    between atoms: C_18  and  C_19
REMARK                            x       y       z     vdW  Elec       q    Type
REMARK                         _______ _______ _______ _____ _____    ______ ____
ROOT
ATOM      1  C   UNL     1       3.898   6.741  17.609  0.00  0.00    +0.000 C 
ATOM      2  O   UNL     1       3.919   7.868  17.109  0.00  0.00    +0.000 OA
ATOM      3  N   UNL     1       2.772   6.253  18.292  0.00  0.00    +0.000 N 
ATOM      4  C   UNL     1       2.570   4.869  18.521  0.00  0.00    +0.000 A 
ATOM      5  C   UNL     1       2.788   3.947  17.496  0.00  0.00    +0.000 A 
ATOM      6  C   UNL     1       2.944   2.601  17.821  0.00  0.00    +0.000 A 
ATOM      7  C   UNL     1       2.848   2.213  19.148  0.00  0.00    +0.000 A 
ATOM      8  C   UNL     1       2.547   3.181  20.092  0.00  0.00    +0.000 A 
ATOM      9  N   UNL     1       2.394   4.491  19.804  0.00  0.00    +0.000 NA
ENDROOT
BRANCH   1  14
ATOM     10  C   UNL     1       6.778   4.621  16.116  0.00  0.00    +0.000 A 
ATOM     11  C   UNL     1       7.598   4.520  17.243  0.00  0.00    +0.000 A 
ATOM     12  C   UNL     1       7.197   5.070  18.456  0.00  0.00    +0.000 A 
ATOM     13  C   UNL     1       5.991   5.766  18.545  0.00  0.00    +0.000 A 
ATOM     14  C   UNL     1       5.153   5.904  17.427  0.00  0.00    +0.000 A 
ATOM     15  C   UNL     1       5.537   5.273  16.226  0.00  0.00    +0.000 A 
BRANCH  10  16
ATOM     16  O   UNL     1       7.101   4.137  14.868  0.00  0.00    +0.000 OA
BRANCH  16  17
ATOM     17  C   UNL     1       6.030   4.098  13.918  0.00  0.00    +0.000 C 
BRANCH  17  18
ATOM     18  C   UNL     1       6.564   3.763  12.527  0.00  0.00    +0.000 C 
BRANCH  18  20
ATOM     19  C   UNL     1       4.285   3.301  11.542  0.00  0.00    +0.000 C 
ATOM     20  C   UNL     1       5.665   2.737  11.832  0.00  0.00    +0.000 C 
ENDBRANCH  18  20
ENDBRANCH  17  18
ENDBRANCH  16  17
ENDBRANCH  10  16
ENDBRANCH   1  14
BRANCH   3  21
ATOM     21  C   UNL     1       1.560   7.097  18.377  0.00  0.00    +0.000 C 
BRANCH  21  22
ATOM     22  C   UNL     1       1.419   7.912  19.623  0.00  0.00    +0.000 A 
ATOM     23  C   UNL     1       1.596   7.664  20.968  0.00  0.00    +0.000 A 
ATOM     24  C   UNL     1       1.359   8.882  21.650  0.00  0.00    +0.000 A 
ATOM     25  C   UNL     1       1.088   9.822  20.680  0.00  0.00    +0.000 A 
ATOM     26  C   UNL     1       0.813  11.278  20.743  0.00  0.00    +0.000 C 
ATOM     27  O   UNL     1       1.117   9.239  19.446  0.00  0.00    +0.000 OA
ENDBRANCH  21  22
ENDBRANCH   3  21
TORSDOF 7
ENDMDL
MODEL 2
REMARK VINA RESULT:      -7.0      1.697      7.843
REMARK  Name = 
REMARK  9 active torsions:
REMARK  status: ('A' for Active; 'I' for Inactive)
REMARK    1  A    between atoms: C_1  and  C_2
REMARK    2  A    between atoms: C_2  and  C_3
REMARK    3  A    between atoms: C_3  and  C_4
REMARK    4  A    between atoms: C_4  and  O_5
REMARK    5  A    between atoms: O_5  and  C_6
REMARK    6  A    between atoms: C_10  and  C_11
REMARK    7  A    between atoms: N_13  and  C_14
REMARK    8  A    between atoms: C_14  and  C_15
REMARK    9  A    between atoms: C_18  and  C_19
REMARK                            x       y       z     vdW  Elec       q    Type
REMARK                         _______ _______ _______ _____ _____    ______ ____
ROOT
ATOM      1  C   UNL     1       4.230   6.364  18.059  0.00  0.00    +0.000 C 
ATOM      2  O   UNL     1       5.282   6.944  17.781  0.00  0.00    +0.000 OA
ATOM      3  N   UNL     1       4.115   4.965  17.999  0.00  0.00    +0.000 N 
ATOM      4  C   UNL     1       3.085   4.263  18.673  0.00  0.00    +0.000 A 
ATOM      5  C   UNL     1       2.759   4.588  19.991  0.00  0.00    +0.000 A 
ATOM      6  C   UNL     1       1.536   4.163  20.507  0.00  0.00    +0.000 A 
ATOM      7  C   UNL     1       0.694   3.406  19.707  0.00  0.00    +0.000 A 
ATOM      8  C   UNL     1       1.133   3.059  18.441  0.00  0.00    +0.000 A 
ATOM      9  N   UNL     1       2.311   3.459  17.916  0.00  0.00    +0.000 NA
ENDROOT
BRANCH   1  14
ATOM     10  C   UNL     1       1.545   8.242  20.128  0.00  0.00    +0.000 A 
ATOM     11  C   UNL     1       1.019   9.066  19.130  0.00  0.00    +0.000 A 
ATOM     12  C   UNL     1       1.481   8.968  17.822  0.00  0.00    +0.000 A 
ATOM     13  C   UNL     1       2.505   8.075  17.506  0.00  0.00    +0.000 A 
ATOM     14  C   UNL     1       3.071   7.248  18.489  0.00  0.00    +0.000 A 
ATOM     15  C   UNL     1       2.538   7.304  19.792  0.00  0.00    +0.000 A 
BRANCH  10  16
ATOM     16  O   UNL     1       1.176   8.287  21.454  0.00  0.00    +0.000 OA
BRANCH  16  17
ATOM     17  C   UNL     1      -0.149   8.766  21.717  0.00  0.00    +0.000 C 
BRANCH  17  18
ATOM     18  C   UNL     1      -0.111   9.907  22.731  0.00  0.00    +0.000 C 
BRANCH  18  20
ATOM     19  C   UNL     1      -1.903  11.645  23.109  0.00  0.00    +0.000 C 
ATOM     20  C   UNL     1      -0.810  11.151  22.177  0.00  0.00    +0.000 C 
ENDBRANCH  18  20
ENDBRANCH  17  18
ENDBRANCH  16  17
ENDBRANCH  10  16
ENDBRANCH   1  14
BRANCH   3  21
ATOM     21  C   UNL     1       5.302   4.161  17.634  0.00  0.00    +0.000 C 
BRANCH  21  22
ATOM     22  C   UNL     1       5.846   4.387  16.259  0.00  0.00    +0.000 A 
ATOM     23  C   UNL     1       7.020   4.907  15.755  0.00  0.00    +0.000 A 
ATOM     24  C   UNL     1       6.955   4.790  14.346  0.00  0.00    +0.000 A 
ATOM     25  C   UNL     1       5.758   4.168  14.064  0.00  0.00    +0.000 A 
ATOM     26  C   UNL     1       5.136   3.719  12.795  0.00  0.00    +0.000 C 
ATOM     27  O   UNL     1       5.076   3.924  15.221  0.00  0.00    +0.000 OA
ENDBRANCH  21  22
ENDBRANCH   3  21
TORSDOF 7
ENDMDL
MODEL 3
REMARK VINA RESULT:      -7.0      0.758      1.126
REMARK  Name = 
REMARK  9 active torsions:
REMARK  status: ('A' for Active; 'I' for Inactive)
REMARK    1  A    between atoms: C_1  and  C_2
REMARK    2  A    between atoms: C_2  and  C_3
REMARK    3  A    between atoms: C_3  and  C_4
REMARK    4  A    between atoms: C_4  and  O_5
REMARK    5  A    between atoms: O_5  and  C_6
REMARK    6  A    between atoms: C_10  and  C_11
REMARK    7  A    between atoms: N_13  and  C_14
REMARK    8  A    between atoms: C_14  and  C_15
REMARK    9  A    between atoms: C_18  and  C_19
REMARK                            x       y       z     vdW  Elec       q    Type
REMARK                         _______ _______ _______ _____ _____    ______ ____
ROOT
ATOM      1  C   UNL     1       3.675   7.090  17.389  0.00  0.00    +0.000 C 
ATOM      2  O   UNL     1       3.720   8.069  16.641  0.00  0.00    +0.000 OA
ATOM      3  N   UNL     1       2.559   6.828  18.202  0.00  0.00    +0.000 N 
ATOM      4  C   UNL     1       2.311   5.545  18.752  0.00  0.00    +0.000 A 
ATOM      5  C   UNL     1       2.449   4.402  17.962  0.00  0.00    +0.000 A 
ATOM      6  C   UNL     1       2.564   3.162  18.586  0.00  0.00    +0.000 A 
ATOM      7  C   UNL     1       2.508   3.096  19.969  0.00  0.00    +0.000 A 
ATOM      8  C   UNL     1       2.285   4.268  20.671  0.00  0.00    +0.000 A 
ATOM      9  N   UNL     1       2.172   5.482  20.092  0.00  0.00    +0.000 NA
ENDROOT
BRANCH   1  14
ATOM     10  C   UNL     1       6.494   4.667  16.296  0.00  0.00    +0.000 A 
ATOM     11  C   UNL     1       7.253   4.652  17.469  0.00  0.00    +0.000 A 
ATOM     12  C   UNL     1       6.828   5.357  18.590  0.00  0.00    +0.000 A 
ATOM     13  C   UNL     1       5.662   6.120  18.537  0.00  0.00    +0.000 A 
ATOM     14  C   UNL     1       4.886   6.174  17.368  0.00  0.00    +0.000 A 
ATOM     15  C   UNL     1       5.289   5.391  16.267  0.00  0.00    +0.000 A 
BRANCH  10  16
ATOM     16  O   UNL     1       6.847   4.028  15.128  0.00  0.00    +0.000 OA
BRANCH  16  17
ATOM     17  C   UNL     1       5.896   4.112  14.060  0.00  0.00    +0.000 C 
BRANCH  17  18
ATOM     18  C   UNL     1       6.566   3.800  12.724  0.00  0.00    +0.000 C 
BRANCH  18  20
ATOM     19  C   UNL     1       4.396   3.286  11.540  0.00  0.00    +0.000 C 
ATOM     20  C   UNL     1       5.763   2.759  11.941  0.00  0.00    +0.000 C 
ENDBRANCH  18  20
ENDBRANCH  17  18
ENDBRANCH  16  17
ENDBRANCH  10  16
ENDBRANCH   1  14
BRANCH   3  21
ATOM     21  C   UNL     1       1.387   7.727  18.126  0.00  0.00    +0.000 C 
BRANCH  21  22
ATOM     22  C   UNL     1       1.328   8.812  19.154  0.00  0.00    +0.000 A 
ATOM     23  C   UNL     1       1.339  10.190  19.109  0.00  0.00    +0.000 A 
ATOM     24  C   UNL     1       1.195  10.651  20.440  0.00  0.00    +0.000 A 
ATOM     25  C   UNL     1       1.063   9.527  21.226  0.00  0.00    +0.000 A 
ATOM     26  C   UNL     1       0.830   9.341  22.678  0.00  0.00    +0.000 C 
ATOM     27  O   UNL     1       1.148   8.405  20.453  0.00  0.00    +0.000 OA
ENDBRANCH  21  22
ENDBRANCH   3  21
TORSDOF 7
ENDMDL
MODEL 4
REMARK VINA RESULT:      -6.9      4.001      8.155
REMARK  Name = 
REMARK  9 active torsions:
REMARK  status: ('A' for Active; 'I' for Inactive)
REMARK    1  A    between atoms: C_1  and  C_2
REMARK    2  A    between atoms: C_2  and  C_3
REMARK    3  A    between atoms: C_3  and  C_4
REMARK    4  A    between atoms: C_4  and  O_5
REMARK    5  A    between atoms: O_5  and  C_6
REMARK    6  A    between atoms: C_10  and  C_11
REMARK    7  A    between atoms: N_13  and  C_14
REMARK    8  A    between atoms: C_14  and  C_15
REMARK    9  A    between atoms: C_18  and  C_19
REMARK                            x       y       z     vdW  Elec       q    Type
REMARK                         _______ _______ _______ _____ _____    ______ ____
ROOT
ATOM      1  C   UNL     1       1.506   9.295  18.414  0.00  0.00    +0.000 C 
ATOM      2  O   UNL     1       2.249   9.158  17.440  0.00  0.00    +0.000 OA
ATOM      3  N   UNL     1       1.581   8.444  19.530  0.00  0.00    +0.000 N 
ATOM      4  C   UNL     1       1.040   8.804  20.790  0.00  0.00    +0.000 A 
ATOM      5  C   UNL     1       1.252  10.083  21.307  0.00  0.00    +0.000 A 
ATOM      6  C   UNL     1       0.433  10.538  22.338  0.00  0.00    +0.000 A 
ATOM      7  C   UNL     1      -0.547   9.696  22.841  0.00  0.00    +0.000 A 
ATOM      8  C   UNL     1      -0.633   8.414  22.328  0.00  0.00    +0.000 A 
ATOM      9  N   UNL     1       0.146   7.949  21.327  0.00  0.00    +0.000 NA
ENDROOT
BRANCH   1  14
ATOM     10  C   UNL     1      -1.724  11.429  18.249  0.00  0.00    +0.000 A 
ATOM     11  C   UNL     1      -1.167  12.702  18.402  0.00  0.00    +0.000 A 
ATOM     12  C   UNL     1       0.211  12.859  18.495  0.00  0.00    +0.000 A 
ATOM     13  C   UNL     1       1.047  11.742  18.479  0.00  0.00    +0.000 A 
ATOM     14  C   UNL     1       0.520  10.448  18.347  0.00  0.00    +0.000 A 
ATOM     15  C   UNL     1      -0.873  10.312  18.176  0.00  0.00    +0.000 A 
BRANCH  10  16
ATOM     16  O   UNL     1      -3.074  11.169  18.180  0.00  0.00    +0.000 OA
BRANCH  16  17
ATOM     17  C   UNL     1      -3.682  11.359  16.897  0.00  0.00    +0.000 C 
BRANCH  17  18
ATOM     18  C   UNL     1      -3.676  10.053  16.106  0.00  0.00    +0.000 C 
BRANCH  18  20
ATOM     19  C   UNL     1      -3.754   9.941  13.584  0.00  0.00    +0.000 C 
ATOM     20  C   UNL     1      -2.888  10.209  14.803  0.00  0.00    +0.000 C 
ENDBRANCH  18  20
ENDBRANCH  17  18
ENDBRANCH  16  17
ENDBRANCH  10  16
ENDBRANCH   1  14
BRANCH   3  21
ATOM     21  C   UNL     1       2.608   7.380  19.557  0.00  0.00    +0.000 C 
BRANCH  21  22
ATOM     22  C   UNL     1       2.153   6.022  19.128  0.00  0.00    +0.000 A 
ATOM     23  C   UNL     1       2.090   5.357  17.921  0.00  0.00    +0.000 A 
ATOM     24  C   UNL     1       1.612   4.052  18.190  0.00  0.00    +0.000 A 
ATOM     25  C   UNL     1       1.445   3.974  19.556  0.00  0.00    +0.000 A 
ATOM     26  C   UNL     1       1.027   2.872  20.454  0.00  0.00    +0.000 C 
ATOM     27  O   UNL     1       1.766   5.169  20.132  0.00  0.00    +0.000 OA
ENDBRANCH  21  22
ENDBRANCH   3  21
TORSDOF 7
ENDMDL
MODEL 5
REMARK VINA RESULT:      -6.8      1.084      1.491
REMARK  Name = 
REMARK  9 active torsions:
REMARK  status: ('A' for Active; 'I' for Inactive)
REMARK    1  A    between atoms: C_1  and  C_2
REMARK    2  A    between atoms: C_2  and  C_3
REMARK    3  A    between atoms: C_3  and  C_4
REMARK    4  A    between atoms: C_4  and  O_5
REMARK    5  A    between atoms: O_5  and  C_6
REMARK    6  A    between atoms: C_10  and  C_11
REMARK    7  A    between atoms: N_13  and  C_14
REMARK    8  A    between atoms: C_14  and  C_15
REMARK    9  A    between atoms: C_18  and  C_19
REMARK                            x       y       z     vdW  Elec       q    Type
REMARK                         _______ _______ _______ _____ _____    ______ ____
ROOT
ATOM      1  C   UNL     1       4.336   6.465  18.169  0.00  0.00    +0.000 C 
ATOM      2  O   UNL     1       4.459   7.687  18.069  0.00  0.00    +0.000 OA
ATOM      3  N   UNL     1       3.420   5.881  19.060  0.00  0.00    +0.000 N 
ATOM      4  C   UNL     1       2.979   4.541  18.918  0.00  0.00    +0.000 A 
ATOM      5  C   UNL     1       2.614   4.050  17.663  0.00  0.00    +0.000 A 
ATOM      6  C   UNL     1       2.541   2.671  17.473  0.00  0.00    +0.000 A 
ATOM      7  C   UNL     1       2.803   1.830  18.544  0.00  0.00    +0.000 A 
ATOM      8  C   UNL     1       3.075   2.403  19.774  0.00  0.00    +0.000 A 
ATOM      9  N   UNL     1       3.155   3.734  19.984  0.00  0.00    +0.000 NA
ENDROOT
BRANCH   1  14
ATOM     10  C   UNL     1       5.840   4.602  15.121  0.00  0.00    +0.000 A 
ATOM     11  C   UNL     1       7.054   4.192  15.678  0.00  0.00    +0.000 A 
ATOM     12  C   UNL     1       7.342   4.462  17.012  0.00  0.00    +0.000 A 
ATOM     13  C   UNL     1       6.438   5.182  17.792  0.00  0.00    +0.000 A 
ATOM     14  C   UNL     1       5.218   5.627  17.259  0.00  0.00    +0.000 A 
ATOM     15  C   UNL     1       4.908   5.278  15.929  0.00  0.00    +0.000 A 
BRANCH  10  16
ATOM     16  O   UNL     1       5.478   4.410  13.807  0.00  0.00    +0.000 OA
BRANCH  16  17
ATOM     17  C   UNL     1       6.359   3.590  13.030  0.00  0.00    +0.000 C 
BRANCH  17  18
ATOM     18  C   UNL     1       5.604   2.947  11.869  0.00  0.00    +0.000 C 
BRANCH  18  20
ATOM     19  C   UNL     1       3.401   2.937  10.635  0.00  0.00    +0.000 C 
ATOM     20  C   UNL     1       4.314   3.714  11.567  0.00  0.00    +0.000 C 
ENDBRANCH  18  20
ENDBRANCH  17  18
ENDBRANCH  16  17
ENDBRANCH  10  16
ENDBRANCH   1  14
BRANCH   3  21
ATOM     21  C   UNL     1       2.546   6.757  19.870  0.00  0.00    +0.000 C 
BRANCH  21  22
ATOM     22  C   UNL     1       1.939   7.919  19.150  0.00  0.00    +0.000 A 
ATOM     23  C   UNL     1       1.553   8.158  17.848  0.00  0.00    +0.000 A 
ATOM     24  C   UNL     1       0.981   9.452  17.815  0.00  0.00    +0.000 A 
ATOM     25  C   UNL     1       1.011   9.922  19.110  0.00  0.00    +0.000 A 
ATOM     26  C   UNL     1       0.520  11.174  19.734  0.00  0.00    +0.000 C 
ATOM     27  O   UNL     1       1.596   8.999  19.926  0.00  0.00    +0.000 OA
ENDBRANCH  21  22
ENDBRANCH   3  21
TORSDOF 7
ENDMDL
MODEL 6
REMARK VINA RESULT:      -6.8      1.586      7.760
REMARK  Name = 
REMARK  9 active torsions:
REMARK  status: ('A' for Active; 'I' for Inactive)
REMARK    1  A    between atoms: C_1  and  C_2
REMARK    2  A    between atoms: C_2  and  C_3
REMARK    3  A    between atoms: C_3  and  C_4
REMARK    4  A    between atoms: C_4  and  O_5
REMARK    5  A    between atoms: O_5  and  C_6
REMARK    6  A    between atoms: C_10  and  C_11
REMARK    7  A    between atoms: N_13  and  C_14
REMARK    8  A    between atoms: C_14  and  C_15
REMARK    9  A    between atoms: C_18  and  C_19
REMARK                            x       y       z     vdW  Elec       q    Type
REMARK                         _______ _______ _______ _____ _____    ______ ____
ROOT
ATOM      1  C   UNL     1       4.391   6.473  17.900  0.00  0.00    +0.000 C 
ATOM      2  O   UNL     1       5.412   7.110  17.630  0.00  0.00    +0.000 OA
ATOM      3  N   UNL     1       4.338   5.073  17.786  0.00  0.00    +0.000 N 
ATOM      4  C   UNL     1       3.351   4.300  18.447  0.00  0.00    +0.000 A 
ATOM      5  C   UNL     1       3.033   4.558  19.782  0.00  0.00    +0.000 A 
ATOM      6  C   UNL     1       1.839   4.059  20.299  0.00  0.00    +0.000 A 
ATOM      7  C   UNL     1       1.018   3.296  19.482  0.00  0.00    +0.000 A 
ATOM      8  C   UNL     1       1.451   3.019  18.197  0.00  0.00    +0.000 A 
ATOM      9  N   UNL     1       2.601   3.492  17.671  0.00  0.00    +0.000 NA
ENDROOT
BRANCH   1  14
ATOM     10  C   UNL     1       1.640   8.120  20.077  0.00  0.00    +0.000 A 
ATOM     11  C   UNL     1       1.086   8.986  19.130  0.00  0.00    +0.000 A 
ATOM     12  C   UNL     1       1.552   8.987  17.820  0.00  0.00    +0.000 A 
ATOM     13  C   UNL     1       2.607   8.153  17.451  0.00  0.00    +0.000 A 
ATOM     14  C   UNL     1       3.202   7.286  18.382  0.00  0.00    +0.000 A 
ATOM     15  C   UNL     1       2.666   7.241  19.685  0.00  0.00    +0.000 A 
BRANCH  10  16
ATOM     16  O   UNL     1       1.269   8.068  21.401  0.00  0.00    +0.000 OA
BRANCH  16  17
ATOM     17  C   UNL     1       1.136   9.332  22.062  0.00  0.00    +0.000 C 
BRANCH  17  18
ATOM     18  C   UNL     1      -0.106   9.340  22.951  0.00  0.00    +0.000 C 
BRANCH  18  20
ATOM     19  C   UNL     1      -0.341  11.518  21.695  0.00  0.00    +0.000 C 
ATOM     20  C   UNL     1      -0.821  10.691  22.876  0.00  0.00    +0.000 C 
ENDBRANCH  18  20
ENDBRANCH  17  18
ENDBRANCH  16  17
ENDBRANCH  10  16
ENDBRANCH   1  14
BRANCH   3  21
ATOM     21  C   UNL     1       5.553   4.338  17.373  0.00  0.00    +0.000 C 
BRANCH  21  22
ATOM     22  C   UNL     1       5.790   4.246  15.899  0.00  0.00    +0.000 A 
ATOM     23  C   UNL     1       5.102   3.693  14.840  0.00  0.00    +0.000 A 
ATOM     24  C   UNL     1       5.830   3.999  13.665  0.00  0.00    +0.000 A 
ATOM     25  C   UNL     1       6.906   4.760  14.065  0.00  0.00    +0.000 A 
ATOM     26  C   UNL     1       7.997   5.427  13.314  0.00  0.00    +0.000 C 
ATOM     27  O   UNL     1       6.892   4.910  15.421  0.00  0.00    +0.000 OA
ENDBRANCH  21  22
ENDBRANCH   3  21
TORSDOF 7
ENDMDL
MODEL 7
REMARK VINA RESULT:      -6.6      4.004      8.911
REMARK  Name = 
REMARK  9 active torsions:
REMARK  status: ('A' for Active; 'I' for Inactive)
REMARK    1  A    between atoms: C_1  and  C_2
REMARK    2  A    between atoms: C_2  and  C_3
REMARK    3  A    between atoms: C_3  and  C_4
REMARK    4  A    between atoms: C_4  and  O_5
REMARK    5  A    between atoms: O_5  and  C_6
REMARK    6  A    between atoms: C_10  and  C_11
REMARK    7  A    between atoms: N_13  and  C_14
REMARK    8  A    between atoms: C_14  and  C_15
REMARK    9  A    between atoms: C_18  and  C_19
REMARK                            x       y       z     vdW  Elec       q    Type
REMARK                         _______ _______ _______ _____ _____    ______ ____
ROOT
ATOM      1  C   UNL     1       1.334   9.233  18.393  0.00  0.00    +0.000 C 
ATOM      2  O   UNL     1       2.056   9.071  17.406  0.00  0.00    +0.000 OA
ATOM      3  N   UNL     1       1.494   8.469  19.562  0.00  0.00    +0.000 N 
ATOM      4  C   UNL     1       0.970   8.886  20.812  0.00  0.00    +0.000 A 
ATOM      5  C   UNL     1       1.118  10.209  21.231  0.00  0.00    +0.000 A 
ATOM      6  C   UNL     1       0.304  10.687  22.256  0.00  0.00    +0.000 A 
ATOM      7  C   UNL     1      -0.608   9.827  22.848  0.00  0.00    +0.000 A 
ATOM      8  C   UNL     1      -0.630   8.508  22.428  0.00  0.00    +0.000 A 
ATOM      9  N   UNL     1       0.146   8.020  21.436  0.00  0.00    +0.000 NA
ENDROOT
BRANCH   1  14
ATOM     10  C   UNL     1      -2.015  11.148  18.031  0.00  0.00    +0.000 A 
ATOM     11  C   UNL     1      -1.563  12.449  18.263  0.00  0.00    +0.000 A 
ATOM     12  C   UNL     1      -0.210  12.697  18.468  0.00  0.00    +0.000 A 
ATOM     13  C   UNL     1       0.701  11.641  18.488  0.00  0.00    +0.000 A 
ATOM     14  C   UNL     1       0.277  10.318  18.279  0.00  0.00    +0.000 A 
ATOM     15  C   UNL     1      -1.085  10.094  17.995  0.00  0.00    +0.000 A 
BRANCH  10  16
ATOM     16  O   UNL     1      -3.334  10.799  17.848  0.00  0.00    +0.000 OA
BRANCH  16  17
ATOM     17  C   UNL     1      -3.975  11.363  16.697  0.00  0.00    +0.000 C 
BRANCH  17  18
ATOM     18  C   UNL     1      -5.327  11.961  17.080  0.00  0.00    +0.000 C 
BRANCH  18  20
ATOM     19  C   UNL     1      -7.202  11.908  18.770  0.00  0.00    +0.000 C 
ATOM     20  C   UNL     1      -5.834  11.365  18.395  0.00  0.00    +0.000 C 
ENDBRANCH  18  20
ENDBRANCH  17  18
ENDBRANCH  16  17
ENDBRANCH  10  16
ENDBRANCH   1  14
BRANCH   3  21
ATOM     21  C   UNL     1       2.585   7.473  19.628  0.00  0.00    +0.000 C 
BRANCH  21  22
ATOM     22  C   UNL     1       2.210   6.070  19.269  0.00  0.00    +0.000 A 
ATOM     23  C   UNL     1       2.208   5.336  18.102  0.00  0.00    +0.000 A 
ATOM     24  C   UNL     1       1.793   4.025  18.436  0.00  0.00    +0.000 A 
ATOM     25  C   UNL     1       1.601   4.015  19.801  0.00  0.00    +0.000 A 
ATOM     26  C   UNL     1       1.222   2.944  20.753  0.00  0.00    +0.000 C 
ATOM     27  O   UNL     1       1.847   5.256  20.314  0.00  0.00    +0.000 OA
ENDBRANCH  21  22
ENDBRANCH   3  21
TORSDOF 7
ENDMDL
MODEL 8
REMARK VINA RESULT:      -6.6      1.115      1.252
REMARK  Name = 
REMARK  9 active torsions:
REMARK  status: ('A' for Active; 'I' for Inactive)
REMARK    1  A    between atoms: C_1  and  C_2
REMARK    2  A    between atoms: C_2  and  C_3
REMARK    3  A    between atoms: C_3  and  C_4
REMARK    4  A    between atoms: C_4  and  O_5
REMARK    5  A    between atoms: O_5  and  C_6
REMARK    6  A    between atoms: C_10  and  C_11
REMARK    7  A    between atoms: N_13  and  C_14
REMARK    8  A    between atoms: C_14  and  C_15
REMARK    9  A    between atoms: C_18  and  C_19
REMARK                            x       y       z     vdW  Elec       q    Type
REMARK                         _______ _______ _______ _____ _____    ______ ____
ROOT
ATOM      1  C   UNL     1       3.390   7.463  18.027  0.00  0.00    +0.000 C 
ATOM      2  O   UNL     1       3.537   8.606  17.589  0.00  0.00    +0.000 OA
ATOM      3  N   UNL     1       2.258   7.093  18.774  0.00  0.00    +0.000 N 
ATOM      4  C   UNL     1       1.876   5.738  18.943  0.00  0.00    +0.000 A 
ATOM      5  C   UNL     1       1.882   4.865  17.853  0.00  0.00    +0.000 A 
ATOM      6  C   UNL     1       1.865   3.492  18.090  0.00  0.00    +0.000 A 
ATOM      7  C   UNL     1       1.813   3.035  19.398  0.00  0.00    +0.000 A 
ATOM      8  C   UNL     1       1.725   3.970  20.414  0.00  0.00    +0.000 A 
ATOM      9  N   UNL     1       1.742   5.305  20.212  0.00  0.00    +0.000 NA
ENDROOT
BRANCH   1  14
ATOM     10  C   UNL     1       6.099   5.375  16.205  0.00  0.00    +0.000 A 
ATOM     11  C   UNL     1       6.653   4.708  17.302  0.00  0.00    +0.000 A 
ATOM     12  C   UNL     1       6.122   4.888  18.574  0.00  0.00    +0.000 A 
ATOM     13  C   UNL     1       5.059   5.770  18.772  0.00  0.00    +0.000 A 
ATOM     14  C   UNL     1       4.493   6.472  17.696  0.00  0.00    +0.000 A 
ATOM     15  C   UNL     1       4.992   6.219  16.402  0.00  0.00    +0.000 A 
BRANCH  10  16
ATOM     16  O   UNL     1       6.573   5.286  14.916  0.00  0.00    +0.000 OA
BRANCH  16  17
ATOM     17  C   UNL     1       6.583   3.973  14.343  0.00  0.00    +0.000 C 
BRANCH  17  18
ATOM     18  C   UNL     1       5.434   3.816  13.350  0.00  0.00    +0.000 C 
BRANCH  18  20
ATOM     19  C   UNL     1       5.822   2.022  11.616  0.00  0.00    +0.000 C 
ATOM     20  C   UNL     1       5.963   3.497  11.950  0.00  0.00    +0.000 C 
ENDBRANCH  18  20
ENDBRANCH  17  18
ENDBRANCH  16  17
ENDBRANCH  10  16
ENDBRANCH   1  14
BRANCH   3  21
ATOM     21  C   UNL     1       1.191   8.090  19.004  0.00  0.00    +0.000 C 
BRANCH  21  22
ATOM     22  C   UNL     1       1.065   8.598  20.406  0.00  0.00    +0.000 A 
ATOM     23  C   UNL     1       1.749   8.376  21.582  0.00  0.00    +0.000 A 
ATOM     24  C   UNL     1       1.172   9.217  22.564  0.00  0.00    +0.000 A 
ATOM     25  C   UNL     1       0.188   9.939  21.925  0.00  0.00    +0.000 A 
ATOM     26  C   UNL     1      -0.729  11.009  22.385  0.00  0.00    +0.000 C 
ATOM     27  O   UNL     1       0.113   9.566  20.614  0.00  0.00    +0.000 OA
ENDBRANCH  21  22
ENDBRANCH   3  21
TORSDOF 7
ENDMDL
MODEL 9
REMARK VINA RESULT:      -6.5      2.187      7.722
REMARK  Name = 
REMARK  9 active torsions:
REMARK  status: ('A' for Active; 'I' for Inactive)
REMARK    1  A    between atoms: C_1  and  C_2
REMARK    2  A    between atoms: C_2  and  C_3
REMARK    3  A    between atoms: C_3  and  C_4
REMARK    4  A    between atoms: C_4  and  O_5
REMARK    5  A    between atoms: O_5  and  C_6
REMARK    6  A    between atoms: C_10  and  C_11
REMARK    7  A    between atoms: N_13  and  C_14
REMARK    8  A    between atoms: C_14  and  C_15
REMARK    9  A    between atoms: C_18  and  C_19
REMARK                            x       y       z     vdW  Elec       q    Type
REMARK                         _______ _______ _______ _____ _____    ______ ____
ROOT
ATOM      1  C   UNL     1       4.153   4.620  16.950  0.00  0.00    +0.000 C 
ATOM      2  O   UNL     1       3.349   3.950  16.299  0.00  0.00    +0.000 OA
ATOM      3  N   UNL     1       5.537   4.381  16.893  0.00  0.00    +0.000 N 
ATOM      4  C   UNL     1       6.487   5.352  17.297  0.00  0.00    +0.000 A 
ATOM      5  C   UNL     1       6.342   6.684  16.904  0.00  0.00    +0.000 A 
ATOM      6  C   UNL     1       7.048   7.670  17.590  0.00  0.00    +0.000 A 
ATOM      7  C   UNL     1       7.897   7.297  18.621  0.00  0.00    +0.000 A 
ATOM      8  C   UNL     1       8.045   5.947  18.889  0.00  0.00    +0.000 A 
ATOM      9  N   UNL     1       7.370   4.972  18.242  0.00  0.00    +0.000 NA
ENDROOT
BRANCH   1  14
ATOM     10  C   UNL     1       2.566   7.940  18.164  0.00  0.00    +0.000 A 
ATOM     11  C   UNL     1       2.337   7.611  19.503  0.00  0.00    +0.000 A 
ATOM     12  C   UNL     1       2.741   6.377  20.001  0.00  0.00    +0.000 A 
ATOM     13  C   UNL     1       3.339   5.441  19.157  0.00  0.00    +0.000 A 
ATOM     14  C   UNL     1       3.564   5.732  17.801  0.00  0.00    +0.000 A 
ATOM     15  C   UNL     1       3.220   7.015  17.331  0.00  0.00    +0.000 A 
BRANCH  10  16
ATOM     16  O   UNL     1       2.175   9.120  17.572  0.00  0.00    +0.000 OA
BRANCH  16  17
ATOM     17  C   UNL     1       1.422  10.015  18.399  0.00  0.00    +0.000 C 
BRANCH  17  18
ATOM     18  C   UNL     1      -0.058   9.963  18.031  0.00  0.00    +0.000 C 
BRANCH  18  20
ATOM     19  C   UNL     1      -1.282  11.859  19.164  0.00  0.00    +0.000 C 
ATOM     20  C   UNL     1      -0.930  10.382  19.217  0.00  0.00    +0.000 C 
ENDBRANCH  18  20
ENDBRANCH  17  18
ENDBRANCH  16  17
ENDBRANCH  10  16
ENDBRANCH   1  14
BRANCH   3  21
ATOM     21  C   UNL     1       6.048   3.324  15.994  0.00  0.00    +0.000 C 
BRANCH  21  22
ATOM     22  C   UNL     1       6.377   3.756  14.600  0.00  0.00    +0.000 A 
ATOM     23  C   UNL     1       5.816   3.534  13.360  0.00  0.00    +0.000 A 
ATOM     24  C   UNL     1       6.571   4.281  12.423  0.00  0.00    +0.000 A 
ATOM     25  C   UNL     1       7.530   4.954  13.148  0.00  0.00    +0.000 A 
ATOM     26  C   UNL     1       8.579   5.927  12.761  0.00  0.00    +0.000 C 
ATOM     27  O   UNL     1       7.422   4.636  14.471  0.00  0.00    +0.000 OA
ENDBRANCH  21  22
ENDBRANCH   3  21
TORSDOF 7
ENDMDL
