MODEL 1
REMARK VINA RESULT:      -7.2      0.000      0.000
REMARK  Name = 
REMARK  5 active torsions:
REMARK  status: ('A' for Active; 'I' for Inactive)
REMARK    1  A    between atoms: C_1  and  N_2
REMARK    2  A    between atoms: N_9  and  C_10
REMARK    3  A    between atoms: C_10  and  C_11
REMARK    4  A    between atoms: C_14  and  C_15
REMARK    5  A    between atoms: N_21  and  C_22
REMARK                            x       y       z     vdW  Elec       q    Type
REMARK                         _______ _______ _______ _____ _____    ______ ____
ROOT
ATOM      1  C   UNL     1       7.825   6.666  18.035  0.00  0.00    +0.000 C 
ATOM      2  N   UNL     1       6.815   5.727  17.584  0.00  0.00    +0.000 N 
ATOM      3  C   UNL     1       5.898   5.231  18.517  0.00  0.00    +0.000 A 
ATOM      4  O   UNL     1       5.886   5.528  19.704  0.00  0.00    +0.000 OA
ATOM      5  C   UNL     1       4.952   4.333  17.938  0.00  0.00    +0.000 A 
ATOM      6  C   UNL     1       4.964   3.994  16.620  0.00  0.00    +0.000 A 
ATOM      7  N   UNL     1       3.961   3.129  16.313  0.00  0.00    +0.000 NA
ATOM      8  C   UNL     1       3.324   2.938  17.454  0.00  0.00    +0.000 A 
ATOM      9  N   UNL     1       3.908   3.632  18.487  0.00  0.00    +0.000 N 
ATOM     10  N   UNL     1       5.897   4.500  15.750  0.00  0.00    +0.000 N 
ATOM     11  C   UNL     1       5.910   4.137  14.346  0.00  0.00    +0.000 C 
ATOM     12  C   UNL     1       6.861   5.395  16.215  0.00  0.00    +0.000 A 
ATOM     13  O   UNL     1       7.710   5.873  15.467  0.00  0.00    +0.000 OA
ENDROOT
BRANCH   9  14
ATOM     14  C   UNL     1       3.474   3.668  19.881  0.00  0.00    +0.000 C 
BRANCH  14  15
ATOM     15  C   UNL     1       2.649   4.859  20.183  0.00  0.00    +0.000 A 
ATOM     16  N   UNL     1       1.920   5.132  21.245  0.00  0.00    +0.000 NA
ATOM     17  N   UNL     1       1.445   6.418  21.072  0.00  0.00    +0.000 NA
ATOM     18  C   UNL     1       1.900   6.846  19.904  0.00  0.00    +0.000 A 
ATOM     19  O   UNL     1       2.627   5.869  19.262  0.00  0.00    +0.000 OA
BRANCH  18  20
ATOM     20  C   UNL     1       1.701   8.162  19.377  0.00  0.00    +0.000 A 
ATOM     21  C   UNL     1       2.101   8.649  18.148  0.00  0.00    +0.000 A 
ATOM     22  C   UNL     1       1.784  10.030  17.981  0.00  0.00    +0.000 A 
ATOM     23  C   UNL     1       1.140  10.548  19.083  0.00  0.00    +0.000 A 
ATOM     24  S   UNL     1       0.880   9.363  20.286  0.00  0.00    +0.000 S 
ENDBRANCH  18  20
ENDBRANCH  14  15
ENDBRANCH   9  14
TORSDOF 3
ENDMDL
MODEL 2
REMARK VINA RESULT:      -7.2      3.248      5.070
REMARK  Name = 
REMARK  5 active torsions:
REMARK  status: ('A' for Active; 'I' for Inactive)
REMARK    1  A    between atoms: C_1  and  N_2
REMARK    2  A    between atoms: N_9  and  C_10
REMARK    3  A    between atoms: C_10  and  C_11
REMARK    4  A    between atoms: C_14  and  C_15
REMARK    5  A    between atoms: N_21  and  C_22
REMARK                            x       y       z     vdW  Elec       q    Type
REMARK                         _______ _______ _______ _____ _____    ______ ____
ROOT
ATOM      1  C   UNL     1       5.252   4.079  17.232  0.00  0.00    +0.000 C 
ATOM      2  N   UNL     1       4.315   4.654  18.178  0.00  0.00    +0.000 N 
ATOM      3  C   UNL     1       3.873   5.965  17.970  0.00  0.00    +0.000 A 
ATOM      4  O   UNL     1       4.225   6.676  17.038  0.00  0.00    +0.000 OA
ATOM      5  C   UNL     1       2.944   6.399  18.962  0.00  0.00    +0.000 A 
ATOM      6  C   UNL     1       2.552   5.615  20.003  0.00  0.00    +0.000 A 
ATOM      7  N   UNL     1       1.660   6.253  20.806  0.00  0.00    +0.000 NA
ATOM      8  C   UNL     1       1.499   7.439  20.250  0.00  0.00    +0.000 A 
ATOM      9  N   UNL     1       2.283   7.591  19.132  0.00  0.00    +0.000 N 
ATOM     10  N   UNL     1       3.030   4.339  20.168  0.00  0.00    +0.000 N 
ATOM     11  C   UNL     1       2.614   3.505  21.280  0.00  0.00    +0.000 C 
ATOM     12  C   UNL     1       3.937   3.816  19.247  0.00  0.00    +0.000 A 
ATOM     13  O   UNL     1       4.383   2.677  19.357  0.00  0.00    +0.000 OA
ENDROOT
BRANCH   9  14
ATOM     14  C   UNL     1       2.361   8.760  18.261  0.00  0.00    +0.000 C 
BRANCH  14  15
ATOM     15  C   UNL     1       1.184   9.647  18.404  0.00  0.00    +0.000 A 
ATOM     16  N   UNL     1       1.038  10.744  19.118  0.00  0.00    +0.000 NA
ATOM     17  N   UNL     1      -0.212  11.245  18.810  0.00  0.00    +0.000 NA
ATOM     18  C   UNL     1      -0.761  10.412  17.939  0.00  0.00    +0.000 A 
ATOM     19  O   UNL     1       0.062   9.338  17.686  0.00  0.00    +0.000 OA
BRANCH  18  20
ATOM     20  C   UNL     1      -2.029  10.606  17.304  0.00  0.00    +0.000 A 
ATOM     21  C   UNL     1      -2.433  10.147  16.065  0.00  0.00    +0.000 A 
ATOM     22  C   UNL     1      -3.749  10.579  15.727  0.00  0.00    +0.000 A 
ATOM     23  C   UNL     1      -4.313  11.342  16.726  0.00  0.00    +0.000 A 
ATOM     24  S   UNL     1      -3.277  11.493  18.076  0.00  0.00    +0.000 S 
ENDBRANCH  18  20
ENDBRANCH  14  15
ENDBRANCH   9  14
TORSDOF 3
ENDMDL
MODEL 3
REMARK VINA RESULT:      -7.0      3.363      7.427
REMARK  Name = 
REMARK  5 active torsions:
REMARK  status: ('A' for Active; 'I' for Inactive)
REMARK    1  A    between atoms: C_1  and  N_2
REMARK    2  A    between atoms: N_9  and  C_10
REMARK    3  A    between atoms: C_10  and  C_11
REMARK    4  A    between atoms: C_14  and  C_15
REMARK    5  A    between atoms: N_21  and  C_22
REMARK                            x       y       z     vdW  Elec       q    Type
REMARK                         _______ _______ _______ _____ _____    ______ ____
ROOT
ATOM      1  C   UNL     1      -0.810  10.596  22.913  0.00  0.00    +0.000 C 
ATOM      2  N   UNL     1      -0.279  10.380  21.580  0.00  0.00    +0.000 N 
ATOM      3  C   UNL     1       0.542   9.269  21.359  0.00  0.00    +0.000 A 
ATOM      4  O   UNL     1       0.856   8.456  22.218  0.00  0.00    +0.000 OA
ATOM      5  C   UNL     1       0.980   9.167  20.005  0.00  0.00    +0.000 A 
ATOM      6  C   UNL     1       0.640  10.071  19.046  0.00  0.00    +0.000 A 
ATOM      7  N   UNL     1       1.177   9.751  17.839  0.00  0.00    +0.000 NA
ATOM      8  C   UNL     1       1.851   8.638  18.058  0.00  0.00    +0.000 A 
ATOM      9  N   UNL     1       1.786   8.251  19.375  0.00  0.00    +0.000 N 
ATOM     10  N   UNL     1      -0.159  11.152  19.322  0.00  0.00    +0.000 N 
ATOM     11  C   UNL     1      -0.520  12.117  18.300  0.00  0.00    +0.000 C 
ATOM     12  C   UNL     1      -0.648  11.339  20.615  0.00  0.00    +0.000 A 
ATOM     13  O   UNL     1      -1.368  12.291  20.900  0.00  0.00    +0.000 OA
ENDROOT
BRANCH   9  14
ATOM     14  C   UNL     1       2.399   7.071  19.980  0.00  0.00    +0.000 C 
BRANCH  14  15
ATOM     15  C   UNL     1       2.797   6.065  18.969  0.00  0.00    +0.000 A 
ATOM     16  N   UNL     1       2.120   5.046  18.483  0.00  0.00    +0.000 NA
ATOM     17  N   UNL     1       2.905   4.494  17.489  0.00  0.00    +0.000 NA
ATOM     18  C   UNL     1       4.024   5.201  17.441  0.00  0.00    +0.000 A 
ATOM     19  O   UNL     1       4.038   6.183  18.406  0.00  0.00    +0.000 OA
BRANCH  18  20
ATOM     20  C   UNL     1       5.078   5.007  16.492  0.00  0.00    +0.000 A 
ATOM     21  C   UNL     1       5.022   4.316  15.297  0.00  0.00    +0.000 A 
ATOM     22  C   UNL     1       6.283   4.278  14.632  0.00  0.00    +0.000 A 
ATOM     23  C   UNL     1       7.257   4.954  15.333  0.00  0.00    +0.000 A 
ATOM     24  S   UNL     1       6.639   5.665  16.758  0.00  0.00    +0.000 S 
ENDBRANCH  18  20
ENDBRANCH  14  15
ENDBRANCH   9  14
TORSDOF 3
ENDMDL
MODEL 4
REMARK VINA RESULT:      -6.9      0.911      1.181
REMARK  Name = 
REMARK  5 active torsions:
REMARK  status: ('A' for Active; 'I' for Inactive)
REMARK    1  A    between atoms: C_1  and  N_2
REMARK    2  A    between atoms: N_9  and  C_10
REMARK    3  A    between atoms: C_10  and  C_11
REMARK    4  A    between atoms: C_14  and  C_15
REMARK    5  A    between atoms: N_21  and  C_22
REMARK                            x       y       z     vdW  Elec       q    Type
REMARK                         _______ _______ _______ _____ _____    ______ ____
ROOT
ATOM      1  C   UNL     1       7.808   6.866  17.896  0.00  0.00    +0.000 C 
ATOM      2  N   UNL     1       6.895   5.797  17.537  0.00  0.00    +0.000 N 
ATOM      3  C   UNL     1       6.066   5.263  18.530  0.00  0.00    +0.000 A 
ATOM      4  O   UNL     1       6.055   5.632  19.697  0.00  0.00    +0.000 OA
ATOM      5  C   UNL     1       5.209   4.234  18.039  0.00  0.00    +0.000 A 
ATOM      6  C   UNL     1       5.220   3.815  16.744  0.00  0.00    +0.000 A 
ATOM      7  N   UNL     1       4.310   2.830  16.525  0.00  0.00    +0.000 NA
ATOM      8  C   UNL     1       3.732   2.643  17.697  0.00  0.00    +0.000 A 
ATOM      9  N   UNL     1       4.264   3.459  18.666  0.00  0.00    +0.000 N 
ATOM     10  N   UNL     1       6.066   4.365  15.813  0.00  0.00    +0.000 N 
ATOM     11  C   UNL     1       6.078   3.917  14.433  0.00  0.00    +0.000 C 
ATOM     12  C   UNL     1       6.938   5.386  16.189  0.00  0.00    +0.000 A 
ATOM     13  O   UNL     1       7.707   5.906  15.385  0.00  0.00    +0.000 OA
ENDROOT
BRANCH   9  14
ATOM     14  C   UNL     1       3.870   3.535  20.070  0.00  0.00    +0.000 C 
BRANCH  14  15
ATOM     15  C   UNL     1       2.721   4.444  20.282  0.00  0.00    +0.000 A 
ATOM     16  N   UNL     1       1.518   4.186  20.752  0.00  0.00    +0.000 NA
ATOM     17  N   UNL     1       0.869   5.402  20.852  0.00  0.00    +0.000 NA
ATOM     18  C   UNL     1       1.712   6.328  20.421  0.00  0.00    +0.000 A 
ATOM     19  O   UNL     1       2.892   5.769  19.987  0.00  0.00    +0.000 OA
BRANCH  18  20
ATOM     20  C   UNL     1       1.460   7.737  20.432  0.00  0.00    +0.000 A 
ATOM     21  C   UNL     1       1.022   8.509  21.491  0.00  0.00    +0.000 A 
ATOM     22  C   UNL     1       0.823   9.873  21.124  0.00  0.00    +0.000 A 
ATOM     23  C   UNL     1       1.128  10.100  19.801  0.00  0.00    +0.000 A 
ATOM     24  S   UNL     1       1.694   8.688  19.025  0.00  0.00    +0.000 S 
ENDBRANCH  18  20
ENDBRANCH  14  15
ENDBRANCH   9  14
TORSDOF 3
ENDMDL
MODEL 5
REMARK VINA RESULT:      -6.8      1.888      2.238
REMARK  Name = 
REMARK  5 active torsions:
REMARK  status: ('A' for Active; 'I' for Inactive)
REMARK    1  A    between atoms: C_1  and  N_2
REMARK    2  A    between atoms: N_9  and  C_10
REMARK    3  A    between atoms: C_10  and  C_11
REMARK    4  A    between atoms: C_14  and  C_15
REMARK    5  A    between atoms: N_21  and  C_22
REMARK                            x       y       z     vdW  Elec       q    Type
REMARK                         _______ _______ _______ _____ _____    ______ ____
ROOT
ATOM      1  C   UNL     1       7.960   5.537  18.913  0.00  0.00    +0.000 C 
ATOM      2  N   UNL     1       6.737   5.074  18.283  0.00  0.00    +0.000 N 
ATOM      3  C   UNL     1       5.533   5.204  18.982  0.00  0.00    +0.000 A 
ATOM      4  O   UNL     1       5.430   5.681  20.104  0.00  0.00    +0.000 OA
ATOM      5  C   UNL     1       4.411   4.726  18.242  0.00  0.00    +0.000 A 
ATOM      6  C   UNL     1       4.519   4.189  16.996  0.00  0.00    +0.000 A 
ATOM      7  N   UNL     1       3.310   3.813  16.502  0.00  0.00    +0.000 NA
ATOM      8  C   UNL     1       2.449   4.126  17.453  0.00  0.00    +0.000 A 
ATOM      9  N   UNL     1       3.075   4.664  18.552  0.00  0.00    +0.000 N 
ATOM     10  N   UNL     1       5.730   4.072  16.361  0.00  0.00    +0.000 N 
ATOM     11  C   UNL     1       5.845   3.498  15.034  0.00  0.00    +0.000 C 
ATOM     12  C   UNL     1       6.889   4.519  16.996  0.00  0.00    +0.000 A 
ATOM     13  O   UNL     1       7.991   4.436  16.459  0.00  0.00    +0.000 OA
ENDROOT
BRANCH   9  14
ATOM     14  C   UNL     1       2.446   5.132  19.784  0.00  0.00    +0.000 C 
BRANCH  14  15
ATOM     15  C   UNL     1       2.146   6.581  19.747  0.00  0.00    +0.000 A 
ATOM     16  N   UNL     1       2.331   7.455  18.779  0.00  0.00    +0.000 NA
ATOM     17  N   UNL     1       1.778   8.644  19.216  0.00  0.00    +0.000 NA
ATOM     18  C   UNL     1       1.305   8.427  20.434  0.00  0.00    +0.000 A 
ATOM     19  O   UNL     1       1.565   7.141  20.851  0.00  0.00    +0.000 OA
BRANCH  18  20
ATOM     20  C   UNL     1       0.583   9.383  21.216  0.00  0.00    +0.000 A 
ATOM     21  C   UNL     1       0.570  10.757  21.071  0.00  0.00    +0.000 A 
ATOM     22  C   UNL     1      -0.220  11.403  22.068  0.00  0.00    +0.000 A 
ATOM     23  C   UNL     1      -0.797  10.499  22.932  0.00  0.00    +0.000 A 
ATOM     24  S   UNL     1      -0.423   8.886  22.513  0.00  0.00    +0.000 S 
ENDBRANCH  18  20
ENDBRANCH  14  15
ENDBRANCH   9  14
TORSDOF 3
ENDMDL
MODEL 6
REMARK VINA RESULT:      -6.8      3.382      6.567
REMARK  Name = 
REMARK  5 active torsions:
REMARK  status: ('A' for Active; 'I' for Inactive)
REMARK    1  A    between atoms: C_1  and  N_2
REMARK    2  A    between atoms: N_9  and  C_10
REMARK    3  A    between atoms: C_10  and  C_11
REMARK    4  A    between atoms: C_14  and  C_15
REMARK    5  A    between atoms: N_21  and  C_22
REMARK                            x       y       z     vdW  Elec       q    Type
REMARK                         _______ _______ _______ _____ _____    ______ ____
ROOT
ATOM      1  C   UNL     1       4.887   1.724  20.306  0.00  0.00    +0.000 C 
ATOM      2  N   UNL     1       4.130   2.793  19.681  0.00  0.00    +0.000 N 
ATOM      3  C   UNL     1       4.824   3.894  19.169  0.00  0.00    +0.000 A 
ATOM      4  O   UNL     1       6.040   4.029  19.212  0.00  0.00    +0.000 OA
ATOM      5  C   UNL     1       3.962   4.860  18.569  0.00  0.00    +0.000 A 
ATOM      6  C   UNL     1       2.610   4.718  18.523  0.00  0.00    +0.000 A 
ATOM      7  N   UNL     1       2.014   5.767  17.897  0.00  0.00    +0.000 NA
ATOM      8  C   UNL     1       3.012   6.560  17.552  0.00  0.00    +0.000 A 
ATOM      9  N   UNL     1       4.225   6.064  17.964  0.00  0.00    +0.000 N 
ATOM     10  N   UNL     1       1.978   3.622  19.055  0.00  0.00    +0.000 N 
ATOM     11  C   UNL     1       0.536   3.473  19.007  0.00  0.00    +0.000 C 
ATOM     12  C   UNL     1       2.732   2.614  19.657  0.00  0.00    +0.000 A 
ATOM     13  O   UNL     1       2.204   1.616  20.140  0.00  0.00    +0.000 OA
ENDROOT
BRANCH   9  14
ATOM     14  C   UNL     1       5.541   6.662  17.753  0.00  0.00    +0.000 C 
BRANCH  14  15
ATOM     15  C   UNL     1       6.241   6.082  16.585  0.00  0.00    +0.000 A 
ATOM     16  N   UNL     1       7.531   5.936  16.363  0.00  0.00    +0.000 NA
ATOM     17  N   UNL     1       7.646   5.237  15.176  0.00  0.00    +0.000 NA
ATOM     18  C   UNL     1       6.417   5.013  14.737  0.00  0.00    +0.000 A 
ATOM     19  O   UNL     1       5.477   5.583  15.567  0.00  0.00    +0.000 OA
BRANCH  18  20
ATOM     20  C   UNL     1       6.087   4.249  13.573  0.00  0.00    +0.000 A 
ATOM     21  C   UNL     1       4.863   3.702  13.239  0.00  0.00    +0.000 A 
ATOM     22  C   UNL     1       4.914   2.952  12.028  0.00  0.00    +0.000 A 
ATOM     23  C   UNL     1       6.172   2.962  11.468  0.00  0.00    +0.000 A 
ATOM     24  S   UNL     1       7.267   3.909  12.375  0.00  0.00    +0.000 S 
ENDBRANCH  18  20
ENDBRANCH  14  15
ENDBRANCH   9  14
TORSDOF 3
ENDMDL
MODEL 7
REMARK VINA RESULT:      -6.8      3.118      7.207
REMARK  Name = 
REMARK  5 active torsions:
REMARK  status: ('A' for Active; 'I' for Inactive)
REMARK    1  A    between atoms: C_1  and  N_2
REMARK    2  A    between atoms: N_9  and  C_10
REMARK    3  A    between atoms: C_10  and  C_11
REMARK    4  A    between atoms: C_14  and  C_15
REMARK    5  A    between atoms: N_21  and  C_22
REMARK                            x       y       z     vdW  Elec       q    Type
REMARK                         _______ _______ _______ _____ _____    ______ ____
ROOT
ATOM      1  C   UNL     1       3.019   2.952  20.928  0.00  0.00    +0.000 C 
ATOM      2  N   UNL     1       3.327   4.113  20.114  0.00  0.00    +0.000 N 
ATOM      3  C   UNL     1       4.461   4.075  19.296  0.00  0.00    +0.000 A 
ATOM      4  O   UNL     1       5.228   3.125  19.217  0.00  0.00    +0.000 OA
ATOM      5  C   UNL     1       4.636   5.272  18.539  0.00  0.00    +0.000 A 
ATOM      6  C   UNL     1       3.790   6.334  18.627  0.00  0.00    +0.000 A 
ATOM      7  N   UNL     1       4.168   7.348  17.805  0.00  0.00    +0.000 NA
ATOM      8  C   UNL     1       5.256   6.903  17.203  0.00  0.00    +0.000 A 
ATOM      9  N   UNL     1       5.601   5.646  17.637  0.00  0.00    +0.000 N 
ATOM     10  N   UNL     1       2.698   6.324  19.458  0.00  0.00    +0.000 N 
ATOM     11  C   UNL     1       1.798   7.457  19.553  0.00  0.00    +0.000 C 
ATOM     12  C   UNL     1       2.432   5.196  20.235  0.00  0.00    +0.000 A 
ATOM     13  O   UNL     1       1.463   5.146  20.988  0.00  0.00    +0.000 OA
ENDROOT
BRANCH   9  14
ATOM     14  C   UNL     1       6.733   4.838  17.191  0.00  0.00    +0.000 C 
BRANCH  14  15
ATOM     15  C   UNL     1       6.863   4.819  15.716  0.00  0.00    +0.000 A 
ATOM     16  N   UNL     1       7.647   5.528  14.930  0.00  0.00    +0.000 NA
ATOM     17  N   UNL     1       7.457   5.043  13.650  0.00  0.00    +0.000 NA
ATOM     18  C   UNL     1       6.553   4.078  13.731  0.00  0.00    +0.000 A 
ATOM     19  O   UNL     1       6.093   3.930  15.019  0.00  0.00    +0.000 OA
BRANCH  18  20
ATOM     20  C   UNL     1       6.126   3.260  12.637  0.00  0.00    +0.000 A 
ATOM     21  C   UNL     1       6.862   2.311  11.953  0.00  0.00    +0.000 A 
ATOM     22  C   UNL     1       6.130   1.727  10.877  0.00  0.00    +0.000 A 
ATOM     23  C   UNL     1       4.854   2.237  10.785  0.00  0.00    +0.000 A 
ATOM     24  S   UNL     1       4.532   3.377  12.015  0.00  0.00    +0.000 S 
ENDBRANCH  18  20
ENDBRANCH  14  15
ENDBRANCH   9  14
TORSDOF 3
ENDMDL
MODEL 8
REMARK VINA RESULT:      -6.8      3.016      4.431
REMARK  Name = 
REMARK  5 active torsions:
REMARK  status: ('A' for Active; 'I' for Inactive)
REMARK    1  A    between atoms: C_1  and  N_2
REMARK    2  A    between atoms: N_9  and  C_10
REMARK    3  A    between atoms: C_10  and  C_11
REMARK    4  A    between atoms: C_14  and  C_15
REMARK    5  A    between atoms: N_21  and  C_22
REMARK                            x       y       z     vdW  Elec       q    Type
REMARK                         _______ _______ _______ _____ _____    ______ ____
ROOT
ATOM      1  C   UNL     1       4.454   2.949  19.596  0.00  0.00    +0.000 C 
ATOM      2  N   UNL     1       4.060   4.269  19.141  0.00  0.00    +0.000 N 
ATOM      3  C   UNL     1       3.127   4.987  19.897  0.00  0.00    +0.000 A 
ATOM      4  O   UNL     1       2.607   4.578  20.927  0.00  0.00    +0.000 OA
ATOM      5  C   UNL     1       2.842   6.272  19.347  0.00  0.00    +0.000 A 
ATOM      6  C   UNL     1       3.412   6.730  18.200  0.00  0.00    +0.000 A 
ATOM      7  N   UNL     1       2.983   7.981  17.888  0.00  0.00    +0.000 NA
ATOM      8  C   UNL     1       2.142   8.297  18.856  0.00  0.00    +0.000 A 
ATOM      9  N   UNL     1       1.999   7.273  19.762  0.00  0.00    +0.000 N 
ATOM     10  N   UNL     1       4.313   5.977  17.488  0.00  0.00    +0.000 N 
ATOM     11  C   UNL     1       4.919   6.464  16.264  0.00  0.00    +0.000 C 
ATOM     12  C   UNL     1       4.666   4.707  17.946  0.00  0.00    +0.000 A 
ATOM     13  O   UNL     1       5.471   4.005  17.341  0.00  0.00    +0.000 OA
ENDROOT
BRANCH   9  14
ATOM     14  C   UNL     1       1.164   7.267  20.960  0.00  0.00    +0.000 C 
BRANCH  14  15
ATOM     15  C   UNL     1       0.823   8.634  21.414  0.00  0.00    +0.000 A 
ATOM     16  N   UNL     1       1.518   9.476  22.150  0.00  0.00    +0.000 NA
ATOM     17  N   UNL     1       0.795  10.653  22.186  0.00  0.00    +0.000 NA
ATOM     18  C   UNL     1      -0.309  10.451  21.482  0.00  0.00    +0.000 A 
ATOM     19  O   UNL     1      -0.375   9.158  21.014  0.00  0.00    +0.000 OA
BRANCH  18  20
ATOM     20  C   UNL     1      -1.299  11.447  21.204  0.00  0.00    +0.000 A 
ATOM     21  C   UNL     1      -2.031  12.187  22.113  0.00  0.00    +0.000 A 
ATOM     22  C   UNL     1      -2.973  13.049  21.478  0.00  0.00    +0.000 A 
ATOM     23  C   UNL     1      -2.919  12.950  20.105  0.00  0.00    +0.000 A 
ATOM     24  S   UNL     1      -1.710  11.859  19.591  0.00  0.00    +0.000 S 
ENDBRANCH  18  20
ENDBRANCH  14  15
ENDBRANCH   9  14
TORSDOF 3
ENDMDL
MODEL 9
REMARK VINA RESULT:      -6.8      3.428      6.033
REMARK  Name = 
REMARK  5 active torsions:
REMARK  status: ('A' for Active; 'I' for Inactive)
REMARK    1  A    between atoms: C_1  and  N_2
REMARK    2  A    between atoms: N_9  and  C_10
REMARK    3  A    between atoms: C_10  and  C_11
REMARK    4  A    between atoms: C_14  and  C_15
REMARK    5  A    between atoms: N_21  and  C_22
REMARK                            x       y       z     vdW  Elec       q    Type
REMARK                         _______ _______ _______ _____ _____    ______ ____
ROOT
ATOM      1  C   UNL     1       4.844   2.110  20.050  0.00  0.00    +0.000 C 
ATOM      2  N   UNL     1       4.265   3.374  19.635  0.00  0.00    +0.000 N 
ATOM      3  C   UNL     1       4.994   4.190  18.763  0.00  0.00    +0.000 A 
ATOM      4  O   UNL     1       6.102   3.917  18.320  0.00  0.00    +0.000 OA
ATOM      5  C   UNL     1       4.304   5.391  18.424  0.00  0.00    +0.000 A 
ATOM      6  C   UNL     1       3.075   5.704  18.917  0.00  0.00    +0.000 A 
ATOM      7  N   UNL     1       2.629   6.897  18.442  0.00  0.00    +0.000 NA
ATOM      8  C   UNL     1       3.593   7.320  17.645  0.00  0.00    +0.000 A 
ATOM      9  N   UNL     1       4.655   6.448  17.620  0.00  0.00    +0.000 N 
ATOM     10  N   UNL     1       2.409   4.872  19.783  0.00  0.00    +0.000 N 
ATOM     11  C   UNL     1       1.100   5.207  20.310  0.00  0.00    +0.000 C 
ATOM     12  C   UNL     1       2.994   3.667  20.170  0.00  0.00    +0.000 A 
ATOM     13  O   UNL     1       2.429   2.894  20.939  0.00  0.00    +0.000 OA
ENDROOT
BRANCH   9  14
ATOM     14  C   UNL     1       5.888   6.581  16.849  0.00  0.00    +0.000 C 
BRANCH  14  15
ATOM     15  C   UNL     1       6.936   7.320  17.588  0.00  0.00    +0.000 A 
ATOM     16  N   UNL     1       7.895   6.867  18.369  0.00  0.00    +0.000 NA
ATOM     17  N   UNL     1       8.665   7.961  18.716  0.00  0.00    +0.000 NA
ATOM     18  C   UNL     1       8.117   9.019  18.138  0.00  0.00    +0.000 A 
ATOM     19  O   UNL     1       6.973   8.680  17.452  0.00  0.00    +0.000 OA
BRANCH  18  20
ATOM     20  C   UNL     1       8.653  10.347  18.180  0.00  0.00    +0.000 A 
ATOM     21  C   UNL     1       8.265  11.438  17.427  0.00  0.00    +0.000 A 
ATOM     22  C   UNL     1       9.059  12.592  17.694  0.00  0.00    +0.000 A 
ATOM     23  C   UNL     1      10.018  12.348  18.651  0.00  0.00    +0.000 A 
ATOM     24  S   UNL     1       9.926  10.752  19.254  0.00  0.00    +0.000 S 
ENDBRANCH  18  20
ENDBRANCH  14  15
ENDBRANCH   9  14
TORSDOF 3
ENDMDL
