MODEL 1
REMARK VINA RESULT:      -8.1      0.000      0.000
REMARK  Name = 
REMARK  11 active torsions:
REMARK  status: ('A' for Active; 'I' for Inactive)
REMARK    1  A    between atoms: C_1  and  C_2
REMARK    2  A    between atoms: C_4  and  N_5
REMARK    3  A    between atoms: N_5  and  C_6
REMARK    4  A    between atoms: C_6  and  C_7
REMARK    5  A    between atoms: C_10  and  C_11
REMARK    6  A    between atoms: C_14  and  O_15
REMARK    7  A    between atoms: O_15  and  C_16
REMARK    8  A    between atoms: C_16  and  C_17
REMARK    9  A    between atoms: C_16  and  C_18
REMARK   10  A    between atoms: C_23  and  C_24
REMARK   11  A    between atoms: C_23  and  C_25
REMARK                            x       y       z     vdW  Elec       q    Type
REMARK                         _______ _______ _______ _____ _____    ______ ____
ROOT
ATOM      1  C   UNL     1       7.206   6.557  17.450  0.00  0.00    +0.000 A 
ATOM      2  C   UNL     1       7.938   6.246  18.572  0.00  0.00    +0.000 A 
ATOM      3  O   UNL     1       8.530   7.386  19.028  0.00  0.00    +0.000 OA
ATOM      4  C   UNL     1       8.126   8.349  18.141  0.00  0.00    +0.000 A 
ATOM      5  N   UNL     1       7.342   7.902  17.181  0.00  0.00    +0.000 NA
ENDROOT
BRANCH   4   6
ATOM      6  C   UNL     1       8.605   9.708  18.354  0.00  0.00    +0.000 A 
ATOM      7  C   UNL     1       8.228  10.774  17.528  0.00  0.00    +0.000 A 
ATOM      8  C   UNL     1       8.750  12.052  17.746  0.00  0.00    +0.000 A 
ATOM      9  C   UNL     1       9.633  12.293  18.800  0.00  0.00    +0.000 A 
ATOM     10  C   UNL     1       9.987  11.245  19.646  0.00  0.00    +0.000 A 
ATOM     11  C   UNL     1       9.484   9.962  19.417  0.00  0.00    +0.000 A 
BRANCH   9  12
ATOM     12  O   UNL     1      10.138  13.561  18.858  0.00  0.00    +0.000 OA
BRANCH  12  13
ATOM     13  C   UNL     1      10.236  14.300  17.636  0.00  0.00    +0.000 C 
ATOM     14  C   UNL     1       9.788  15.747  17.835  0.00  0.00    +0.000 C 
ATOM     15  C   UNL     1      11.715  14.284  17.251  0.00  0.00    +0.000 C 
ENDBRANCH  12  13
ENDBRANCH   9  12
ENDBRANCH   4   6
BRANCH   1  16
ATOM     16  C   UNL     1       6.429   5.691  16.530  0.00  0.00    +0.000 C 
BRANCH  16  17
ATOM     17  N   UNL     1       6.065   4.423  17.173  0.00  0.00    +0.000 NA
ATOM     18  H   UNL     1       5.956   3.705  16.459  0.00  0.00    +0.000 HD
BRANCH  17  22
ATOM     19  C   UNL     1       2.723   6.601  19.331  0.00  0.00    +0.000 C 
ATOM     20  C   UNL     1       2.595   5.841  18.008  0.00  0.00    +0.000 C 
ATOM     21  C   UNL     1       3.952   5.667  17.312  0.00  0.00    +0.000 C 
ATOM     22  C   UNL     1       4.806   4.545  17.930  0.00  0.00    +0.000 C 
ATOM     23  C   UNL     1       4.010   3.226  17.934  0.00  0.00    +0.000 C 
ATOM     24  C   UNL     1       2.667   3.314  18.680  0.00  0.00    +0.000 C 
ATOM     25  C   UNL     1       2.897   3.401  20.200  0.00  0.00    +0.000 C 
ATOM     26  C   UNL     1       1.886   2.007  18.421  0.00  0.00    +0.000 C 
ATOM     27  C   UNL     1       1.845   4.504  18.142  0.00  0.00    +0.000 C 
ENDBRANCH  17  22
ENDBRANCH  16  17
ENDBRANCH   1  16
TORSDOF 6
ENDMDL
MODEL 2
REMARK VINA RESULT:      -8.0      0.962      1.444
REMARK  Name = 
REMARK  11 active torsions:
REMARK  status: ('A' for Active; 'I' for Inactive)
REMARK    1  A    between atoms: C_1  and  C_2
REMARK    2  A    between atoms: C_4  and  N_5
REMARK    3  A    between atoms: N_5  and  C_6
REMARK    4  A    between atoms: C_6  and  C_7
REMARK    5  A    between atoms: C_10  and  C_11
REMARK    6  A    between atoms: C_14  and  O_15
REMARK    7  A    between atoms: O_15  and  C_16
REMARK    8  A    between atoms: C_16  and  C_17
REMARK    9  A    between atoms: C_16  and  C_18
REMARK   10  A    between atoms: C_23  and  C_24
REMARK   11  A    between atoms: C_23  and  C_25
REMARK                            x       y       z     vdW  Elec       q    Type
REMARK                         _______ _______ _______ _____ _____    ______ ____
ROOT
ATOM      1  C   UNL     1       6.940   6.829  17.370  0.00  0.00    +0.000 A 
ATOM      2  C   UNL     1       7.768   6.381  18.371  0.00  0.00    +0.000 A 
ATOM      3  O   UNL     1       8.478   7.442  18.848  0.00  0.00    +0.000 OA
ATOM      4  C   UNL     1       8.041   8.501  18.095  0.00  0.00    +0.000 A 
ATOM      5  N   UNL     1       7.130   8.183  17.198  0.00  0.00    +0.000 NA
ENDROOT
BRANCH   4   6
ATOM      6  C   UNL     1       8.626   9.808  18.363  0.00  0.00    +0.000 A 
ATOM      7  C   UNL     1       9.506  10.030  19.427  0.00  0.00    +0.000 A 
ATOM      8  C   UNL     1      10.007  11.312  19.671  0.00  0.00    +0.000 A 
ATOM      9  C   UNL     1       9.659  12.384  18.847  0.00  0.00    +0.000 A 
ATOM     10  C   UNL     1       8.809  12.163  17.766  0.00  0.00    +0.000 A 
ATOM     11  C   UNL     1       8.290  10.887  17.534  0.00  0.00    +0.000 A 
BRANCH   9  12
ATOM     12  O   UNL     1      10.144  13.600  19.236  0.00  0.00    +0.000 OA
BRANCH  12  13
ATOM     13  C   UNL     1       9.887  14.727  18.392  0.00  0.00    +0.000 C 
ATOM     14  C   UNL     1       8.899  15.688  19.049  0.00  0.00    +0.000 C 
ATOM     15  C   UNL     1      11.230  15.435  18.214  0.00  0.00    +0.000 C 
ENDBRANCH  12  13
ENDBRANCH   9  12
ENDBRANCH   4   6
BRANCH   1  16
ATOM     16  C   UNL     1       6.013   6.091  16.477  0.00  0.00    +0.000 C 
BRANCH  16  17
ATOM     17  N   UNL     1       4.615   6.439  16.753  0.00  0.00    +0.000 NA
ATOM     18  H   UNL     1       4.568   7.405  17.074  0.00  0.00    +0.000 HD
BRANCH  17  22
ATOM     19  C   UNL     1       2.205   5.434  20.462  0.00  0.00    +0.000 C 
ATOM     20  C   UNL     1       1.850   5.044  19.024  0.00  0.00    +0.000 C 
ATOM     21  C   UNL     1       2.557   5.937  17.995  0.00  0.00    +0.000 C 
ATOM     22  C   UNL     1       4.034   5.560  17.785  0.00  0.00    +0.000 C 
ATOM     23  C   UNL     1       4.143   4.074  17.397  0.00  0.00    +0.000 C 
ATOM     24  C   UNL     1       3.516   3.116  18.426  0.00  0.00    +0.000 C 
ATOM     25  C   UNL     1       4.381   3.045  19.698  0.00  0.00    +0.000 C 
ATOM     26  C   UNL     1       3.499   1.698  17.816  0.00  0.00    +0.000 C 
ATOM     27  C   UNL     1       2.065   3.549  18.727  0.00  0.00    +0.000 C 
ENDBRANCH  17  22
ENDBRANCH  16  17
ENDBRANCH   1  16
TORSDOF 6
ENDMDL
MODEL 3
REMARK VINA RESULT:      -8.0      5.338      8.330
REMARK  Name = 
REMARK  11 active torsions:
REMARK  status: ('A' for Active; 'I' for Inactive)
REMARK    1  A    between atoms: C_1  and  C_2
REMARK    2  A    between atoms: C_4  and  N_5
REMARK    3  A    between atoms: N_5  and  C_6
REMARK    4  A    between atoms: C_6  and  C_7
REMARK    5  A    between atoms: C_10  and  C_11
REMARK    6  A    between atoms: C_14  and  O_15
REMARK    7  A    between atoms: O_15  and  C_16
REMARK    8  A    between atoms: C_16  and  C_17
REMARK    9  A    between atoms: C_16  and  C_18
REMARK   10  A    between atoms: C_23  and  C_24
REMARK   11  A    between atoms: C_23  and  C_25
REMARK                            x       y       z     vdW  Elec       q    Type
REMARK                         _______ _______ _______ _____ _____    ______ ____
ROOT
ATOM      1  C   UNL     1       2.230   6.830  19.448  0.00  0.00    +0.000 A 
ATOM      2  C   UNL     1       2.264   7.825  18.500  0.00  0.00    +0.000 A 
ATOM      3  O   UNL     1       1.641   8.925  19.011  0.00  0.00    +0.000 OA
ATOM      4  C   UNL     1       1.248   8.533  20.264  0.00  0.00    +0.000 A 
ATOM      5  N   UNL     1       1.570   7.293  20.566  0.00  0.00    +0.000 NA
ENDROOT
BRANCH   4   6
ATOM      6  C   UNL     1       0.534   9.504  21.082  0.00  0.00    +0.000 A 
ATOM      7  C   UNL     1       0.285  10.811  20.648  0.00  0.00    +0.000 A 
ATOM      8  C   UNL     1      -0.365  11.721  21.487  0.00  0.00    +0.000 A 
ATOM      9  C   UNL     1      -0.798  11.336  22.757  0.00  0.00    +0.000 A 
ATOM     10  C   UNL     1      -0.584  10.028  23.184  0.00  0.00    +0.000 A 
ATOM     11  C   UNL     1       0.086   9.124  22.355  0.00  0.00    +0.000 A 
BRANCH   9  12
ATOM     12  O   UNL     1      -1.344  12.335  23.513  0.00  0.00    +0.000 OA
BRANCH  12  13
ATOM     13  C   UNL     1      -2.339  13.168  22.907  0.00  0.00    +0.000 C 
ATOM     14  C   UNL     1      -3.744  12.723  23.310  0.00  0.00    +0.000 C 
ATOM     15  C   UNL     1      -2.090  14.579  23.438  0.00  0.00    +0.000 C 
ENDBRANCH  12  13
ENDBRANCH   9  12
ENDBRANCH   4   6
BRANCH   1  16
ATOM     16  C   UNL     1       2.696   5.423  19.391  0.00  0.00    +0.000 C 
BRANCH  16  17
ATOM     17  N   UNL     1       4.093   5.306  19.827  0.00  0.00    +0.000 NA
ATOM     18  H   UNL     1       4.266   5.974  20.576  0.00  0.00    +0.000 HD
BRANCH  17  22
ATOM     19  C   UNL     1       7.664   7.217  17.786  0.00  0.00    +0.000 C 
ATOM     20  C   UNL     1       7.523   5.737  18.155  0.00  0.00    +0.000 C 
ATOM     21  C   UNL     1       6.470   5.516  19.250  0.00  0.00    +0.000 C 
ATOM     22  C   UNL     1       5.027   5.571  18.718  0.00  0.00    +0.000 C 
ATOM     23  C   UNL     1       4.856   4.559  17.570  0.00  0.00    +0.000 C 
ATOM     24  C   UNL     1       5.836   4.771  16.403  0.00  0.00    +0.000 C 
ATOM     25  C   UNL     1       5.461   6.032  15.603  0.00  0.00    +0.000 C 
ATOM     26  C   UNL     1       5.704   3.573  15.438  0.00  0.00    +0.000 C 
ATOM     27  C   UNL     1       7.283   4.825  16.939  0.00  0.00    +0.000 C 
ENDBRANCH  17  22
ENDBRANCH  16  17
ENDBRANCH   1  16
TORSDOF 6
ENDMDL
MODEL 4
REMARK VINA RESULT:      -7.9      5.393      6.651
REMARK  Name = 
REMARK  11 active torsions:
REMARK  status: ('A' for Active; 'I' for Inactive)
REMARK    1  A    between atoms: C_1  and  C_2
REMARK    2  A    between atoms: C_4  and  N_5
REMARK    3  A    between atoms: N_5  and  C_6
REMARK    4  A    between atoms: C_6  and  C_7
REMARK    5  A    between atoms: C_10  and  C_11
REMARK    6  A    between atoms: C_14  and  O_15
REMARK    7  A    between atoms: O_15  and  C_16
REMARK    8  A    between atoms: C_16  and  C_17
REMARK    9  A    between atoms: C_16  and  C_18
REMARK   10  A    between atoms: C_23  and  C_24
REMARK   11  A    between atoms: C_23  and  C_25
REMARK                            x       y       z     vdW  Elec       q    Type
REMARK                         _______ _______ _______ _____ _____    ______ ____
ROOT
ATOM      1  C   UNL     1       5.251   5.553  18.139  0.00  0.00    +0.000 A 
ATOM      2  C   UNL     1       5.008   5.943  16.843  0.00  0.00    +0.000 A 
ATOM      3  O   UNL     1       4.017   6.879  16.856  0.00  0.00    +0.000 OA
ATOM      4  C   UNL     1       3.697   7.008  18.183  0.00  0.00    +0.000 A 
ATOM      5  N   UNL     1       4.401   6.234  18.983  0.00  0.00    +0.000 NA
ENDROOT
BRANCH   4   6
ATOM      6  C   UNL     1       2.643   7.949  18.535  0.00  0.00    +0.000 A 
ATOM      7  C   UNL     1       2.235   8.974  17.674  0.00  0.00    +0.000 A 
ATOM      8  C   UNL     1       1.250   9.881  18.074  0.00  0.00    +0.000 A 
ATOM      9  C   UNL     1       0.640   9.767  19.326  0.00  0.00    +0.000 A 
ATOM     10  C   UNL     1       1.018   8.730  20.175  0.00  0.00    +0.000 A 
ATOM     11  C   UNL     1       2.018   7.836  19.785  0.00  0.00    +0.000 A 
BRANCH   9  12
ATOM     12  O   UNL     1      -0.245  10.760  19.635  0.00  0.00    +0.000 OA
BRANCH  12  13
ATOM     13  C   UNL     1      -1.115  11.229  18.599  0.00  0.00    +0.000 C 
ATOM     14  C   UNL     1      -2.043  10.114  18.118  0.00  0.00    +0.000 C 
ATOM     15  C   UNL     1      -1.955  12.342  19.225  0.00  0.00    +0.000 C 
ENDBRANCH  12  13
ENDBRANCH   9  12
ENDBRANCH   4   6
BRANCH   1  16
ATOM     16  C   UNL     1       6.170   4.524  18.683  0.00  0.00    +0.000 C 
BRANCH  16  17
ATOM     17  N   UNL     1       5.465   3.262  18.940  0.00  0.00    +0.000 NA
ATOM     18  H   UNL     1       5.638   2.620  18.169  0.00  0.00    +0.000 HD
BRANCH  17  22
ATOM     19  C   UNL     1       1.275   4.260  17.519  0.00  0.00    +0.000 C 
ATOM     20  C   UNL     1       1.761   2.888  17.996  0.00  0.00    +0.000 C 
ATOM     21  C   UNL     1       3.289   2.762  17.918  0.00  0.00    +0.000 C 
ATOM     22  C   UNL     1       4.013   3.475  19.074  0.00  0.00    +0.000 C 
ATOM     23  C   UNL     1       3.480   2.954  20.422  0.00  0.00    +0.000 C 
ATOM     24  C   UNL     1       1.960   3.118  20.595  0.00  0.00    +0.000 C 
ATOM     25  C   UNL     1       1.596   4.599  20.806  0.00  0.00    +0.000 C 
ATOM     26  C   UNL     1       1.537   2.367  21.876  0.00  0.00    +0.000 C 
ATOM     27  C   UNL     1       1.226   2.500  19.386  0.00  0.00    +0.000 C 
ENDBRANCH  17  22
ENDBRANCH  16  17
ENDBRANCH   1  16
TORSDOF 6
ENDMDL
MODEL 5
REMARK VINA RESULT:      -7.9      5.375      6.501
REMARK  Name = 
REMARK  11 active torsions:
REMARK  status: ('A' for Active; 'I' for Inactive)
REMARK    1  A    between atoms: C_1  and  C_2
REMARK    2  A    between atoms: C_4  and  N_5
REMARK    3  A    between atoms: N_5  and  C_6
REMARK    4  A    between atoms: C_6  and  C_7
REMARK    5  A    between atoms: C_10  and  C_11
REMARK    6  A    between atoms: C_14  and  O_15
REMARK    7  A    between atoms: O_15  and  C_16
REMARK    8  A    between atoms: C_16  and  C_17
REMARK    9  A    between atoms: C_16  and  C_18
REMARK   10  A    between atoms: C_23  and  C_24
REMARK   11  A    between atoms: C_23  and  C_25
REMARK                            x       y       z     vdW  Elec       q    Type
REMARK                         _______ _______ _______ _____ _____    ______ ____
ROOT
ATOM      1  C   UNL     1       5.185   5.655  18.169  0.00  0.00    +0.000 A 
ATOM      2  C   UNL     1       4.958   6.100  16.888  0.00  0.00    +0.000 A 
ATOM      3  O   UNL     1       3.934   7.000  16.921  0.00  0.00    +0.000 OA
ATOM      4  C   UNL     1       3.580   7.053  18.245  0.00  0.00    +0.000 A 
ATOM      5  N   UNL     1       4.292   6.265  19.024  0.00  0.00    +0.000 NA
ENDROOT
BRANCH   4   6
ATOM      6  C   UNL     1       2.486   7.939  18.617  0.00  0.00    +0.000 A 
ATOM      7  C   UNL     1       1.885   8.811  17.703  0.00  0.00    +0.000 A 
ATOM      8  C   UNL     1       0.867   9.676  18.117  0.00  0.00    +0.000 A 
ATOM      9  C   UNL     1       0.418   9.666  19.439  0.00  0.00    +0.000 A 
ATOM     10  C   UNL     1       0.988   8.778  20.347  0.00  0.00    +0.000 A 
ATOM     11  C   UNL     1       2.021   7.929  19.939  0.00  0.00    +0.000 A 
BRANCH   9  12
ATOM     12  O   UNL     1      -0.520  10.613  19.742  0.00  0.00    +0.000 OA
BRANCH  12  13
ATOM     13  C   UNL     1      -0.308  11.421  20.904  0.00  0.00    +0.000 C 
ATOM     14  C   UNL     1       0.795  12.450  20.661  0.00  0.00    +0.000 C 
ATOM     15  C   UNL     1      -1.626  12.151  21.157  0.00  0.00    +0.000 C 
ENDBRANCH  12  13
ENDBRANCH   9  12
ENDBRANCH   4   6
BRANCH   1  16
ATOM     16  C   UNL     1       6.127   4.633  18.685  0.00  0.00    +0.000 C 
BRANCH  16  17
ATOM     17  N   UNL     1       5.449   3.352  18.916  0.00  0.00    +0.000 NA
ATOM     18  H   UNL     1       5.642   2.726  18.136  0.00  0.00    +0.000 HD
BRANCH  17  22
ATOM     19  C   UNL     1       1.242   4.236  17.470  0.00  0.00    +0.000 C 
ATOM     20  C   UNL     1       1.760   2.880  17.960  0.00  0.00    +0.000 C 
ATOM     21  C   UNL     1       3.291   2.791  17.889  0.00  0.00    +0.000 C 
ATOM     22  C   UNL     1       3.991   3.529  19.043  0.00  0.00    +0.000 C 
ATOM     23  C   UNL     1       3.466   3.006  20.392  0.00  0.00    +0.000 C 
ATOM     24  C   UNL     1       1.941   3.134  20.558  0.00  0.00    +0.000 C 
ATOM     25  C   UNL     1       1.540   4.608  20.756  0.00  0.00    +0.000 C 
ATOM     26  C   UNL     1       1.531   2.382  21.842  0.00  0.00    +0.000 C 
ATOM     27  C   UNL     1       1.228   2.489  19.350  0.00  0.00    +0.000 C 
ENDBRANCH  17  22
ENDBRANCH  16  17
ENDBRANCH   1  16
TORSDOF 6
ENDMDL
MODEL 6
REMARK VINA RESULT:      -7.9      4.509      7.157
REMARK  Name = 
REMARK  11 active torsions:
REMARK  status: ('A' for Active; 'I' for Inactive)
REMARK    1  A    between atoms: C_1  and  C_2
REMARK    2  A    between atoms: C_4  and  N_5
REMARK    3  A    between atoms: N_5  and  C_6
REMARK    4  A    between atoms: C_6  and  C_7
REMARK    5  A    between atoms: C_10  and  C_11
REMARK    6  A    between atoms: C_14  and  O_15
REMARK    7  A    between atoms: O_15  and  C_16
REMARK    8  A    between atoms: C_16  and  C_17
REMARK    9  A    between atoms: C_16  and  C_18
REMARK   10  A    between atoms: C_23  and  C_24
REMARK   11  A    between atoms: C_23  and  C_25
REMARK                            x       y       z     vdW  Elec       q    Type
REMARK                         _______ _______ _______ _____ _____    ______ ____
ROOT
ATOM      1  C   UNL     1       3.121   4.318  19.736  0.00  0.00    +0.000 A 
ATOM      2  C   UNL     1       2.400   4.450  20.899  0.00  0.00    +0.000 A 
ATOM      3  O   UNL     1       1.874   5.707  20.938  0.00  0.00    +0.000 OA
ATOM      4  C   UNL     1       2.315   6.289  19.777  0.00  0.00    +0.000 A 
ATOM      5  N   UNL     1       3.066   5.502  19.034  0.00  0.00    +0.000 NA
ENDROOT
BRANCH   4   6
ATOM      6  C   UNL     1       1.920   7.667  19.520  0.00  0.00    +0.000 A 
ATOM      7  C   UNL     1       1.347   8.478  20.505  0.00  0.00    +0.000 A 
ATOM      8  C   UNL     1       0.943   9.781  20.198  0.00  0.00    +0.000 A 
ATOM      9  C   UNL     1       1.127  10.302  18.916  0.00  0.00    +0.000 A 
ATOM     10  C   UNL     1       1.727   9.512  17.939  0.00  0.00    +0.000 A 
ATOM     11  C   UNL     1       2.111   8.202  18.238  0.00  0.00    +0.000 A 
BRANCH   9  12
ATOM     12  O   UNL     1       0.616  11.554  18.718  0.00  0.00    +0.000 OA
BRANCH  12  13
ATOM     13  C   UNL     1      -0.747  11.788  19.088  0.00  0.00    +0.000 C 
ATOM     14  C   UNL     1      -1.018  13.282  19.254  0.00  0.00    +0.000 C 
ATOM     15  C   UNL     1      -1.595  11.252  17.935  0.00  0.00    +0.000 C 
ENDBRANCH  12  13
ENDBRANCH   9  12
ENDBRANCH   4   6
BRANCH   1  16
ATOM     16  C   UNL     1       3.944   3.193  19.231  0.00  0.00    +0.000 C 
BRANCH  16  17
ATOM     17  N   UNL     1       5.375   3.515  19.282  0.00  0.00    +0.000 NA
ATOM     18  H   UNL     1       5.606   3.866  20.209  0.00  0.00    +0.000 HD
BRANCH  17  22
ATOM     19  C   UNL     1       7.375   7.277  17.728  0.00  0.00    +0.000 C 
ATOM     20  C   UNL     1       7.724   5.841  17.326  0.00  0.00    +0.000 C 
ATOM     21  C   UNL     1       7.243   4.821  18.368  0.00  0.00    +0.000 C 
ATOM     22  C   UNL     1       5.734   4.532  18.277  0.00  0.00    +0.000 C 
ATOM     23  C   UNL     1       5.375   4.079  16.849  0.00  0.00    +0.000 C 
ATOM     24  C   UNL     1       5.766   5.093  15.759  0.00  0.00    +0.000 C 
ATOM     25  C   UNL     1       4.841   6.323  15.807  0.00  0.00    +0.000 C 
ATOM     26  C   UNL     1       5.554   4.426  14.383  0.00  0.00    +0.000 C 
ATOM     27  C   UNL     1       7.255   5.473  15.907  0.00  0.00    +0.000 C 
ENDBRANCH  17  22
ENDBRANCH  16  17
ENDBRANCH   1  16
TORSDOF 6
ENDMDL
MODEL 7
REMARK VINA RESULT:      -7.9      6.398      8.957
REMARK  Name = 
REMARK  11 active torsions:
REMARK  status: ('A' for Active; 'I' for Inactive)
REMARK    1  A    between atoms: C_1  and  C_2
REMARK    2  A    between atoms: C_4  and  N_5
REMARK    3  A    between atoms: N_5  and  C_6
REMARK    4  A    between atoms: C_6  and  C_7
REMARK    5  A    between atoms: C_10  and  C_11
REMARK    6  A    between atoms: C_14  and  O_15
REMARK    7  A    between atoms: O_15  and  C_16
REMARK    8  A    between atoms: C_16  and  C_17
REMARK    9  A    between atoms: C_16  and  C_18
REMARK   10  A    between atoms: C_23  and  C_24
REMARK   11  A    between atoms: C_23  and  C_25
REMARK                            x       y       z     vdW  Elec       q    Type
REMARK                         _______ _______ _______ _____ _____    ______ ____
ROOT
ATOM      1  C   UNL     1       1.664   8.634  18.975  0.00  0.00    +0.000 A 
ATOM      2  C   UNL     1       1.266   9.429  17.926  0.00  0.00    +0.000 A 
ATOM      3  O   UNL     1       0.394  10.362  18.402  0.00  0.00    +0.000 OA
ATOM      4  C   UNL     1       0.300  10.079  19.740  0.00  0.00    +0.000 A 
ATOM      5  N   UNL     1       1.032   9.054  20.125  0.00  0.00    +0.000 NA
ENDROOT
BRANCH   4   6
ATOM      6  C   UNL     1      -0.581  10.912  20.547  0.00  0.00    +0.000 A 
ATOM      7  C   UNL     1      -1.577  11.717  19.982  0.00  0.00    +0.000 A 
ATOM      8  C   UNL     1      -2.368  12.534  20.794  0.00  0.00    +0.000 A 
ATOM      9  C   UNL     1      -2.196  12.545  22.180  0.00  0.00    +0.000 A 
ATOM     10  C   UNL     1      -1.229  11.722  22.752  0.00  0.00    +0.000 A 
ATOM     11  C   UNL     1      -0.422  10.921  21.940  0.00  0.00    +0.000 A 
BRANCH   9  12
ATOM     12  O   UNL     1      -2.970  13.445  22.855  0.00  0.00    +0.000 OA
BRANCH  12  13
ATOM     13  C   UNL     1      -3.079  13.304  24.276  0.00  0.00    +0.000 C 
ATOM     14  C   UNL     1      -3.186  14.668  24.954  0.00  0.00    +0.000 C 
ATOM     15  C   UNL     1      -4.367  12.520  24.524  0.00  0.00    +0.000 C 
ENDBRANCH  12  13
ENDBRANCH   9  12
ENDBRANCH   4   6
BRANCH   1  16
ATOM     16  C   UNL     1       2.541   7.439  19.004  0.00  0.00    +0.000 C 
BRANCH  16  17
ATOM     17  N   UNL     1       2.494   6.774  20.311  0.00  0.00    +0.000 NA
ATOM     18  H   UNL     1       3.310   7.049  20.856  0.00  0.00    +0.000 HD
BRANCH  17  22
ATOM     19  C   UNL     1       1.673   2.497  21.579  0.00  0.00    +0.000 C 
ATOM     20  C   UNL     1       0.975   3.249  20.442  0.00  0.00    +0.000 C 
ATOM     21  C   UNL     1       1.102   4.772  20.597  0.00  0.00    +0.000 C 
ATOM     22  C   UNL     1       2.480   5.307  20.170  0.00  0.00    +0.000 C 
ATOM     23  C   UNL     1       2.786   4.868  18.726  0.00  0.00    +0.000 C 
ATOM     24  C   UNL     1       2.746   3.344  18.518  0.00  0.00    +0.000 C 
ATOM     25  C   UNL     1       3.964   2.674  19.182  0.00  0.00    +0.000 C 
ATOM     26  C   UNL     1       2.850   3.061  17.004  0.00  0.00    +0.000 C 
ATOM     27  C   UNL     1       1.408   2.779  19.042  0.00  0.00    +0.000 C 
ENDBRANCH  17  22
ENDBRANCH  16  17
ENDBRANCH   1  16
TORSDOF 6
ENDMDL
MODEL 8
REMARK VINA RESULT:      -7.8      1.357      2.474
REMARK  Name = 
REMARK  11 active torsions:
REMARK  status: ('A' for Active; 'I' for Inactive)
REMARK    1  A    between atoms: C_1  and  C_2
REMARK    2  A    between atoms: C_4  and  N_5
REMARK    3  A    between atoms: N_5  and  C_6
REMARK    4  A    between atoms: C_6  and  C_7
REMARK    5  A    between atoms: C_10  and  C_11
REMARK    6  A    between atoms: C_14  and  O_15
REMARK    7  A    between atoms: O_15  and  C_16
REMARK    8  A    between atoms: C_16  and  C_17
REMARK    9  A    between atoms: C_16  and  C_18
REMARK   10  A    between atoms: C_23  and  C_24
REMARK   11  A    between atoms: C_23  and  C_25
REMARK                            x       y       z     vdW  Elec       q    Type
REMARK                         _______ _______ _______ _____ _____    ______ ____
ROOT
ATOM      1  C   UNL     1       7.274   6.239  17.750  0.00  0.00    +0.000 A 
ATOM      2  C   UNL     1       6.575   6.977  16.824  0.00  0.00    +0.000 A 
ATOM      3  O   UNL     1       6.959   8.280  16.936  0.00  0.00    +0.000 OA
ATOM      4  C   UNL     1       7.885   8.270  17.947  0.00  0.00    +0.000 A 
ATOM      5  N   UNL     1       8.100   7.079  18.466  0.00  0.00    +0.000 NA
ENDROOT
BRANCH   4   6
ATOM      6  C   UNL     1       8.492   9.540  18.320  0.00  0.00    +0.000 A 
ATOM      7  C   UNL     1       9.289   9.682  19.461  0.00  0.00    +0.000 A 
ATOM      8  C   UNL     1       9.814  10.932  19.803  0.00  0.00    +0.000 A 
ATOM      9  C   UNL     1       9.575  12.050  19.002  0.00  0.00    +0.000 A 
ATOM     10  C   UNL     1       8.810  11.909  17.846  0.00  0.00    +0.000 A 
ATOM     11  C   UNL     1       8.266  10.665  17.516  0.00  0.00    +0.000 A 
BRANCH   9  12
ATOM     12  O   UNL     1      10.070  13.228  19.484  0.00  0.00    +0.000 OA
BRANCH  12  13
ATOM     13  C   UNL     1       9.423  14.441  19.086  0.00  0.00    +0.000 C 
ATOM     14  C   UNL     1       8.479  14.942  20.178  0.00  0.00    +0.000 C 
ATOM     15  C   UNL     1      10.537  15.467  18.881  0.00  0.00    +0.000 C 
ENDBRANCH  12  13
ENDBRANCH   9  12
ENDBRANCH   4   6
BRANCH   1  16
ATOM     16  C   UNL     1       7.195   4.800  18.100  0.00  0.00    +0.000 C 
BRANCH  16  17
ATOM     17  N   UNL     1       6.422   4.592  19.329  0.00  0.00    +0.000 NA
ATOM     18  H   UNL     1       6.800   3.789  19.830  0.00  0.00    +0.000 HD
BRANCH  17  22
ATOM     19  C   UNL     1       2.834   2.221  17.888  0.00  0.00    +0.000 C 
ATOM     20  C   UNL     1       3.121   2.629  19.336  0.00  0.00    +0.000 C 
ATOM     21  C   UNL     1       4.605   2.956  19.556  0.00  0.00    +0.000 C 
ATOM     22  C   UNL     1       4.998   4.350  19.035  0.00  0.00    +0.000 C 
ATOM     23  C   UNL     1       4.092   5.419  19.673  0.00  0.00    +0.000 C 
ATOM     24  C   UNL     1       2.590   5.189  19.426  0.00  0.00    +0.000 C 
ATOM     25  C   UNL     1       2.231   5.486  17.959  0.00  0.00    +0.000 C 
ATOM     26  C   UNL     1       1.800   6.194  20.292  0.00  0.00    +0.000 C 
ATOM     27  C   UNL     1       2.205   3.754  19.846  0.00  0.00    +0.000 C 
ENDBRANCH  17  22
ENDBRANCH  16  17
ENDBRANCH   1  16
TORSDOF 6
ENDMDL
MODEL 9
REMARK VINA RESULT:      -7.8      6.398      9.019
REMARK  Name = 
REMARK  11 active torsions:
REMARK  status: ('A' for Active; 'I' for Inactive)
REMARK    1  A    between atoms: C_1  and  C_2
REMARK    2  A    between atoms: C_4  and  N_5
REMARK    3  A    between atoms: N_5  and  C_6
REMARK    4  A    between atoms: C_6  and  C_7
REMARK    5  A    between atoms: C_10  and  C_11
REMARK    6  A    between atoms: C_14  and  O_15
REMARK    7  A    between atoms: O_15  and  C_16
REMARK    8  A    between atoms: C_16  and  C_17
REMARK    9  A    between atoms: C_16  and  C_18
REMARK   10  A    between atoms: C_23  and  C_24
REMARK   11  A    between atoms: C_23  and  C_25
REMARK                            x       y       z     vdW  Elec       q    Type
REMARK                         _______ _______ _______ _____ _____    ______ ____
ROOT
ATOM      1  C   UNL     1       1.663   8.584  19.003  0.00  0.00    +0.000 A 
ATOM      2  C   UNL     1       1.182   9.466  18.065  0.00  0.00    +0.000 A 
ATOM      3  O   UNL     1       0.373  10.364  18.695  0.00  0.00    +0.000 OA
ATOM      4  C   UNL     1       0.399   9.971  20.008  0.00  0.00    +0.000 A 
ATOM      5  N   UNL     1       1.147   8.912  20.238  0.00  0.00    +0.000 NA
ENDROOT
BRANCH   4   6
ATOM      6  C   UNL     1      -0.390  10.742  20.959  0.00  0.00    +0.000 A 
ATOM      7  C   UNL     1      -0.549  10.349  22.293  0.00  0.00    +0.000 A 
ATOM      8  C   UNL     1      -1.352  11.098  23.157  0.00  0.00    +0.000 A 
ATOM      9  C   UNL     1      -1.987  12.260  22.714  0.00  0.00    +0.000 A 
ATOM     10  C   UNL     1      -1.807  12.676  21.398  0.00  0.00    +0.000 A 
ATOM     11  C   UNL     1      -1.022  11.916  20.526  0.00  0.00    +0.000 A 
BRANCH   9  12
ATOM     12  O   UNL     1      -2.810  12.858  23.627  0.00  0.00    +0.000 OA
BRANCH  12  13
ATOM     13  C   UNL     1      -3.834  13.730  23.137  0.00  0.00    +0.000 C 
ATOM     14  C   UNL     1      -5.170  12.997  23.027  0.00  0.00    +0.000 C 
ATOM     15  C   UNL     1      -3.963  14.850  24.168  0.00  0.00    +0.000 C 
ENDBRANCH  12  13
ENDBRANCH   9  12
ENDBRANCH   4   6
BRANCH   1  16
ATOM     16  C   UNL     1       2.520   7.382  18.852  0.00  0.00    +0.000 C 
BRANCH  16  17
ATOM     17  N   UNL     1       2.777   6.745  20.149  0.00  0.00    +0.000 NA
ATOM     18  H   UNL     1       3.725   6.967  20.449  0.00  0.00    +0.000 HD
BRANCH  17  22
ATOM     19  C   UNL     1       1.635   2.609  21.619  0.00  0.00    +0.000 C 
ATOM     20  C   UNL     1       0.960   3.378  20.479  0.00  0.00    +0.000 C 
ATOM     21  C   UNL     1       1.227   4.887  20.567  0.00  0.00    +0.000 C 
ATOM     22  C   UNL     1       2.629   5.280  20.068  0.00  0.00    +0.000 C 
ATOM     23  C   UNL     1       2.834   4.762  18.632  0.00  0.00    +0.000 C 
ATOM     24  C   UNL     1       2.651   3.241  18.488  0.00  0.00    +0.000 C 
ATOM     25  C   UNL     1       3.832   2.490  19.132  0.00  0.00    +0.000 C 
ATOM     26  C   UNL     1       2.668   2.894  16.983  0.00  0.00    +0.000 C 
ATOM     27  C   UNL     1       1.292   2.819  19.085  0.00  0.00    +0.000 C 
ENDBRANCH  17  22
ENDBRANCH  16  17
ENDBRANCH   1  16
TORSDOF 6
ENDMDL
