MODEL 1
REMARK VINA RESULT:      -6.6      0.000      0.000
REMARK  Name = 
REMARK  16 active torsions:
REMARK  status: ('A' for Active; 'I' for Inactive)
REMARK    1  A    between atoms: C_1  and  C_2
REMARK    2  A    between atoms: C_2  and  C_3
REMARK    3  A    between atoms: C_3  and  C_4
REMARK    4  A    between atoms: C_4  and  C_5
REMARK    5  A    between atoms: C_5  and  C_6
REMARK    6  A    between atoms: C_6  and  C_7
REMARK    7  A    between atoms: C_7  and  C_8
REMARK    8  A    between atoms: C_8  and  C_9
REMARK    9  A    between atoms: C_9  and  C_10
REMARK   10  A    between atoms: C_10  and  C_11
REMARK   11  A    between atoms: C_11  and  C_12
REMARK   12  A    between atoms: C_12  and  C_13
REMARK   13  A    between atoms: C_16  and  C_17
REMARK   14  A    between atoms: C_17  and  N_18
REMARK   15  A    between atoms: C_22  and  C_23
REMARK   16  A    between atoms: C_23  and  O_24
REMARK                            x       y       z     vdW  Elec       q    Type
REMARK                         _______ _______ _______ _____ _____    ______ ____
ROOT
ATOM      1  C   UNL     1       7.059   7.143  17.616  0.00  0.00    +0.000 A 
ATOM      2  C   UNL     1       5.789   7.056  17.025  0.00  0.00    +0.000 A 
ATOM      3  C   UNL     1       4.872   6.106  17.480  0.00  0.00    +0.000 A 
ATOM      4  C   UNL     1       5.220   5.240  18.529  0.00  0.00    +0.000 A 
ATOM      5  C   UNL     1       6.503   5.314  19.093  0.00  0.00    +0.000 A 
ATOM      6  C   UNL     1       7.415   6.260  18.640  0.00  0.00    +0.000 A 
ENDROOT
BRANCH   1   7
ATOM      7  C   UNL     1       8.000   8.241  17.245  0.00  0.00    +0.000 C 
BRANCH   7   8
ATOM      8  C   UNL     1       8.446   8.913  18.556  0.00  0.00    +0.000 C 
BRANCH   8   9
ATOM      9  C   UNL     1       8.902  10.355  18.385  0.00  0.00    +0.000 C 
BRANCH   9  10
ATOM     10  C   UNL     1       9.811  10.808  19.521  0.00  0.00    +0.000 C 
BRANCH  10  11
ATOM     11  C   UNL     1      11.069  11.442  18.960  0.00  0.00    +0.000 C 
BRANCH  11  12
ATOM     12  C   UNL     1      10.807  11.944  17.550  0.00  0.00    +0.000 C 
BRANCH  12  13
ATOM     13  C   UNL     1      11.526  13.262  17.331  0.00  0.00    +0.000 C 
BRANCH  13  14
ATOM     14  C   UNL     1      11.545  14.063  18.624  0.00  0.00    +0.000 C 
BRANCH  14  15
ATOM     15  C   UNL     1      10.644  15.283  18.498  0.00  0.00    +0.000 C 
BRANCH  15  16
ATOM     16  C   UNL     1       9.613  15.285  19.617  0.00  0.00    +0.000 C 
BRANCH  16  18
ATOM     17  C   UNL     1      10.190  15.098  22.047  0.00  0.00    +0.000 C 
ATOM     18  C   UNL     1      10.035  14.338  20.738  0.00  0.00    +0.000 C 
ENDBRANCH  16  18
ENDBRANCH  15  16
ENDBRANCH  14  15
ENDBRANCH  13  14
ENDBRANCH  12  13
ENDBRANCH  11  12
ENDBRANCH  10  11
ENDBRANCH   9  10
ENDBRANCH   8   9
ENDBRANCH   7   8
ENDBRANCH   1   7
BRANCH   4  19
ATOM     19  C   UNL     1       4.225   4.276  19.107  0.00  0.00    +0.000 C 
BRANCH  19  20
ATOM     20  N   UNL     1       2.844   4.804  18.982  0.00  0.00    +0.000 NA
ATOM     21  C   UNL     1       2.345   5.368  20.244  0.00  0.00    +0.000 C 
ATOM     22  C   UNL     1       1.751   4.190  20.990  0.00  0.00    +0.000 C 
ATOM     23  C   UNL     1       1.009   3.461  19.889  0.00  0.00    +0.000 C 
ATOM     24  C   UNL     1       1.804   3.804  18.612  0.00  0.00    +0.000 C 
BRANCH  24  25
ATOM     25  C   UNL     1       2.281   2.567  17.817  0.00  0.00    +0.000 C 
BRANCH  25  26
ATOM     26  O   UNL     1       2.108   1.404  18.579  0.00  0.00    +0.000 OA
ATOM     27  H   UNL     1       2.702   1.491  19.372  0.00  0.00    +0.000 HD
ENDBRANCH  25  26
ENDBRANCH  24  25
ENDBRANCH  19  20
ENDBRANCH   4  19
TORSDOF 15
ENDMDL
MODEL 2
REMARK VINA RESULT:      -6.6      5.891      9.512
REMARK  Name = 
REMARK  16 active torsions:
REMARK  status: ('A' for Active; 'I' for Inactive)
REMARK    1  A    between atoms: C_1  and  C_2
REMARK    2  A    between atoms: C_2  and  C_3
REMARK    3  A    between atoms: C_3  and  C_4
REMARK    4  A    between atoms: C_4  and  C_5
REMARK    5  A    between atoms: C_5  and  C_6
REMARK    6  A    between atoms: C_6  and  C_7
REMARK    7  A    between atoms: C_7  and  C_8
REMARK    8  A    between atoms: C_8  and  C_9
REMARK    9  A    between atoms: C_9  and  C_10
REMARK   10  A    between atoms: C_10  and  C_11
REMARK   11  A    between atoms: C_11  and  C_12
REMARK   12  A    between atoms: C_12  and  C_13
REMARK   13  A    between atoms: C_16  and  C_17
REMARK   14  A    between atoms: C_17  and  N_18
REMARK   15  A    between atoms: C_22  and  C_23
REMARK   16  A    between atoms: C_23  and  O_24
REMARK                            x       y       z     vdW  Elec       q    Type
REMARK                         _______ _______ _______ _____ _____    ______ ____
ROOT
ATOM      1  C   UNL     1       2.192   6.979  19.886  0.00  0.00    +0.000 A 
ATOM      2  C   UNL     1       1.557   7.801  20.831  0.00  0.00    +0.000 A 
ATOM      3  C   UNL     1       1.098   9.066  20.459  0.00  0.00    +0.000 A 
ATOM      4  C   UNL     1       1.270   9.515  19.140  0.00  0.00    +0.000 A 
ATOM      5  C   UNL     1       1.933   8.700  18.210  0.00  0.00    +0.000 A 
ATOM      6  C   UNL     1       2.389   7.441  18.581  0.00  0.00    +0.000 A 
ENDROOT
BRANCH   1   7
ATOM      7  C   UNL     1       2.560   5.572  20.223  0.00  0.00    +0.000 C 
BRANCH   7   8
ATOM      8  C   UNL     1       1.270   4.868  20.681  0.00  0.00    +0.000 C 
BRANCH   8   9
ATOM      9  C   UNL     1       1.381   3.350  20.728  0.00  0.00    +0.000 C 
BRANCH   9  10
ATOM     10  C   UNL     1       1.015   2.707  19.396  0.00  0.00    +0.000 C 
BRANCH  10  11
ATOM     11  C   UNL     1       2.118   1.765  18.952  0.00  0.00    +0.000 C 
BRANCH  11  12
ATOM     12  C   UNL     1       2.633   2.185  17.585  0.00  0.00    +0.000 C 
BRANCH  12  13
ATOM     13  C   UNL     1       3.870   3.049  17.745  0.00  0.00    +0.000 C 
BRANCH  13  14
ATOM     14  C   UNL     1       3.697   4.349  16.975  0.00  0.00    +0.000 C 
BRANCH  14  15
ATOM     15  C   UNL     1       4.992   5.148  16.998  0.00  0.00    +0.000 C 
BRANCH  15  16
ATOM     16  C   UNL     1       5.722   4.916  18.313  0.00  0.00    +0.000 C 
BRANCH  16  18
ATOM     17  C   UNL     1       7.862   6.013  19.011  0.00  0.00    +0.000 C 
ATOM     18  C   UNL     1       7.233   4.964  18.105  0.00  0.00    +0.000 C 
ENDBRANCH  16  18
ENDBRANCH  15  16
ENDBRANCH  14  15
ENDBRANCH  13  14
ENDBRANCH  12  13
ENDBRANCH  11  12
ENDBRANCH  10  11
ENDBRANCH   9  10
ENDBRANCH   8   9
ENDBRANCH   7   8
ENDBRANCH   1   7
BRANCH   4  19
ATOM     19  C   UNL     1       0.701  10.827  18.683  0.00  0.00    +0.000 C 
BRANCH  19  20
ATOM     20  N   UNL     1      -0.739  10.926  19.024  0.00  0.00    +0.000 NA
ATOM     21  C   UNL     1      -1.513   9.785  18.515  0.00  0.00    +0.000 C 
ATOM     22  C   UNL     1      -1.895  10.173  17.101  0.00  0.00    +0.000 C 
ATOM     23  C   UNL     1      -2.296  11.624  17.269  0.00  0.00    +0.000 C 
ATOM     24  C   UNL     1      -1.453  12.108  18.467  0.00  0.00    +0.000 C 
BRANCH  24  25
ATOM     25  C   UNL     1      -0.597  13.360  18.168  0.00  0.00    +0.000 C 
BRANCH  25  26
ATOM     26  O   UNL     1      -0.889  14.378  19.085  0.00  0.00    +0.000 OA
ATOM     27  H   UNL     1      -0.578  14.059  19.975  0.00  0.00    +0.000 HD
ENDBRANCH  25  26
ENDBRANCH  24  25
ENDBRANCH  19  20
ENDBRANCH   4  19
TORSDOF 15
ENDMDL
MODEL 3
REMARK VINA RESULT:      -6.6      0.995      1.707
REMARK  Name = 
REMARK  16 active torsions:
REMARK  status: ('A' for Active; 'I' for Inactive)
REMARK    1  A    between atoms: C_1  and  C_2
REMARK    2  A    between atoms: C_2  and  C_3
REMARK    3  A    between atoms: C_3  and  C_4
REMARK    4  A    between atoms: C_4  and  C_5
REMARK    5  A    between atoms: C_5  and  C_6
REMARK    6  A    between atoms: C_6  and  C_7
REMARK    7  A    between atoms: C_7  and  C_8
REMARK    8  A    between atoms: C_8  and  C_9
REMARK    9  A    between atoms: C_9  and  C_10
REMARK   10  A    between atoms: C_10  and  C_11
REMARK   11  A    between atoms: C_11  and  C_12
REMARK   12  A    between atoms: C_12  and  C_13
REMARK   13  A    between atoms: C_16  and  C_17
REMARK   14  A    between atoms: C_17  and  N_18
REMARK   15  A    between atoms: C_22  and  C_23
REMARK   16  A    between atoms: C_23  and  O_24
REMARK                            x       y       z     vdW  Elec       q    Type
REMARK                         _______ _______ _______ _____ _____    ______ ____
ROOT
ATOM      1  C   UNL     1       6.838   6.836  17.759  0.00  0.00    +0.000 A 
ATOM      2  C   UNL     1       7.248   5.949  18.766  0.00  0.00    +0.000 A 
ATOM      3  C   UNL     1       6.321   5.088  19.358  0.00  0.00    +0.000 A 
ATOM      4  C   UNL     1       4.980   5.109  18.943  0.00  0.00    +0.000 A 
ATOM      5  C   UNL     1       4.572   6.020  17.958  0.00  0.00    +0.000 A 
ATOM      6  C   UNL     1       5.495   6.876  17.369  0.00  0.00    +0.000 A 
ENDROOT
BRANCH   1   7
ATOM      7  C   UNL     1       7.835   7.660  17.015  0.00  0.00    +0.000 C 
BRANCH   7   8
ATOM      8  C   UNL     1       7.907   9.026  17.723  0.00  0.00    +0.000 C 
BRANCH   8   9
ATOM      9  C   UNL     1       8.884   9.062  18.890  0.00  0.00    +0.000 C 
BRANCH   9  10
ATOM     10  C   UNL     1       9.268  10.486  19.272  0.00  0.00    +0.000 C 
BRANCH  10  11
ATOM     11  C   UNL     1       9.518  11.311  18.023  0.00  0.00    +0.000 C 
BRANCH  11  12
ATOM     12  C   UNL     1      10.999  11.634  17.909  0.00  0.00    +0.000 C 
BRANCH  12  13
ATOM     13  C   UNL     1      11.207  13.133  18.015  0.00  0.00    +0.000 C 
BRANCH  13  14
ATOM     14  C   UNL     1      11.074  13.573  19.465  0.00  0.00    +0.000 C 
BRANCH  14  15
ATOM     15  C   UNL     1      10.386  14.929  19.540  0.00  0.00    +0.000 C 
BRANCH  15  16
ATOM     16  C   UNL     1       9.401  15.075  18.390  0.00  0.00    +0.000 C 
BRANCH  16  18
ATOM     17  C   UNL     1       7.163  14.184  17.705  0.00  0.00    +0.000 C 
ATOM     18  C   UNL     1       7.982  14.755  18.853  0.00  0.00    +0.000 C 
ENDBRANCH  16  18
ENDBRANCH  15  16
ENDBRANCH  14  15
ENDBRANCH  13  14
ENDBRANCH  12  13
ENDBRANCH  11  12
ENDBRANCH  10  11
ENDBRANCH   9  10
ENDBRANCH   8   9
ENDBRANCH   7   8
ENDBRANCH   1   7
BRANCH   4  19
ATOM     19  C   UNL     1       3.981   4.130  19.488  0.00  0.00    +0.000 C 
BRANCH  19  20
ATOM     20  N   UNL     1       2.595   4.561  19.179  0.00  0.00    +0.000 NA
ATOM     21  C   UNL     1       1.837   4.910  20.390  0.00  0.00    +0.000 C 
ATOM     22  C   UNL     1       1.246   3.600  20.870  0.00  0.00    +0.000 C 
ATOM     23  C   UNL     1       0.776   2.972  19.575  0.00  0.00    +0.000 C 
ATOM     24  C   UNL     1       1.737   3.544  18.512  0.00  0.00    +0.000 C 
BRANCH  24  25
ATOM     25  C   UNL     1       2.461   2.466  17.674  0.00  0.00    +0.000 C 
BRANCH  25  26
ATOM     26  O   UNL     1       2.537   1.264  18.389  0.00  0.00    +0.000 OA
ATOM     27  H   UNL     1       3.097   1.444  19.191  0.00  0.00    +0.000 HD
ENDBRANCH  25  26
ENDBRANCH  24  25
ENDBRANCH  19  20
ENDBRANCH   4  19
TORSDOF 15
ENDMDL
MODEL 4
REMARK VINA RESULT:      -6.5      5.425      8.752
REMARK  Name = 
REMARK  16 active torsions:
REMARK  status: ('A' for Active; 'I' for Inactive)
REMARK    1  A    between atoms: C_1  and  C_2
REMARK    2  A    between atoms: C_2  and  C_3
REMARK    3  A    between atoms: C_3  and  C_4
REMARK    4  A    between atoms: C_4  and  C_5
REMARK    5  A    between atoms: C_5  and  C_6
REMARK    6  A    between atoms: C_6  and  C_7
REMARK    7  A    between atoms: C_7  and  C_8
REMARK    8  A    between atoms: C_8  and  C_9
REMARK    9  A    between atoms: C_9  and  C_10
REMARK   10  A    between atoms: C_10  and  C_11
REMARK   11  A    between atoms: C_11  and  C_12
REMARK   12  A    between atoms: C_12  and  C_13
REMARK   13  A    between atoms: C_16  and  C_17
REMARK   14  A    between atoms: C_17  and  N_18
REMARK   15  A    between atoms: C_22  and  C_23
REMARK   16  A    between atoms: C_23  and  O_24
REMARK                            x       y       z     vdW  Elec       q    Type
REMARK                         _______ _______ _______ _____ _____    ______ ____
ROOT
ATOM      1  C   UNL     1       2.569   6.775  19.526  0.00  0.00    +0.000 A 
ATOM      2  C   UNL     1       2.604   7.262  18.210  0.00  0.00    +0.000 A 
ATOM      3  C   UNL     1       1.950   8.454  17.890  0.00  0.00    +0.000 A 
ATOM      4  C   UNL     1       1.261   9.165  18.885  0.00  0.00    +0.000 A 
ATOM      5  C   UNL     1       1.205   8.655  20.191  0.00  0.00    +0.000 A 
ATOM      6  C   UNL     1       1.856   7.469  20.509  0.00  0.00    +0.000 A 
ENDROOT
BRANCH   1   7
ATOM      7  C   UNL     1       3.376   5.583  19.921  0.00  0.00    +0.000 C 
BRANCH   7   8
ATOM      8  C   UNL     1       2.446   4.656  20.726  0.00  0.00    +0.000 C 
BRANCH   8   9
ATOM      9  C   UNL     1       2.322   3.255  20.146  0.00  0.00    +0.000 C 
BRANCH   9  10
ATOM     10  C   UNL     1       3.569   2.843  19.371  0.00  0.00    +0.000 C 
BRANCH  10  11
ATOM     11  C   UNL     1       3.186   2.376  17.979  0.00  0.00    +0.000 C 
BRANCH  11  12
ATOM     12  C   UNL     1       3.414   3.498  16.980  0.00  0.00    +0.000 C 
BRANCH  12  13
ATOM     13  C   UNL     1       4.844   3.998  17.086  0.00  0.00    +0.000 C 
BRANCH  13  14
ATOM     14  C   UNL     1       5.058   5.158  16.126  0.00  0.00    +0.000 C 
BRANCH  14  15
ATOM     15  C   UNL     1       6.462   5.722  16.291  0.00  0.00    +0.000 C 
BRANCH  15  16
ATOM     16  C   UNL     1       6.432   6.921  17.228  0.00  0.00    +0.000 C 
BRANCH  16  18
ATOM     17  C   UNL     1       7.714   5.676  18.983  0.00  0.00    +0.000 C 
ATOM     18  C   UNL     1       7.666   6.933  18.127  0.00  0.00    +0.000 C 
ENDBRANCH  16  18
ENDBRANCH  15  16
ENDBRANCH  14  15
ENDBRANCH  13  14
ENDBRANCH  12  13
ENDBRANCH  11  12
ENDBRANCH  10  11
ENDBRANCH   9  10
ENDBRANCH   8   9
ENDBRANCH   7   8
ENDBRANCH   1   7
BRANCH   4  19
ATOM     19  C   UNL     1       0.634  10.499  18.597  0.00  0.00    +0.000 C 
BRANCH  19  20
ATOM     20  N   UNL     1      -0.785  10.520  19.029  0.00  0.00    +0.000 NA
ATOM     21  C   UNL     1      -1.610   9.558  18.283  0.00  0.00    +0.000 C 
ATOM     22  C   UNL     1      -2.051  10.305  17.041  0.00  0.00    +0.000 C 
ATOM     23  C   UNL     1      -2.410  11.666  17.601  0.00  0.00    +0.000 C 
ATOM     24  C   UNL     1      -1.498  11.812  18.837  0.00  0.00    +0.000 C 
BRANCH  24  25
ATOM     25  C   UNL     1      -0.628  13.091  18.828  0.00  0.00    +0.000 C 
BRANCH  25  26
ATOM     26  O   UNL     1      -0.576  13.634  17.538  0.00  0.00    +0.000 OA
ATOM     27  H   UNL     1       0.115  13.120  17.040  0.00  0.00    +0.000 HD
ENDBRANCH  25  26
ENDBRANCH  24  25
ENDBRANCH  19  20
ENDBRANCH   4  19
TORSDOF 15
ENDMDL
MODEL 5
REMARK VINA RESULT:      -6.4      5.458      9.533
REMARK  Name = 
REMARK  16 active torsions:
REMARK  status: ('A' for Active; 'I' for Inactive)
REMARK    1  A    between atoms: C_1  and  C_2
REMARK    2  A    between atoms: C_2  and  C_3
REMARK    3  A    between atoms: C_3  and  C_4
REMARK    4  A    between atoms: C_4  and  C_5
REMARK    5  A    between atoms: C_5  and  C_6
REMARK    6  A    between atoms: C_6  and  C_7
REMARK    7  A    between atoms: C_7  and  C_8
REMARK    8  A    between atoms: C_8  and  C_9
REMARK    9  A    between atoms: C_9  and  C_10
REMARK   10  A    between atoms: C_10  and  C_11
REMARK   11  A    between atoms: C_11  and  C_12
REMARK   12  A    between atoms: C_12  and  C_13
REMARK   13  A    between atoms: C_16  and  C_17
REMARK   14  A    between atoms: C_17  and  N_18
REMARK   15  A    between atoms: C_22  and  C_23
REMARK   16  A    between atoms: C_23  and  O_24
REMARK                            x       y       z     vdW  Elec       q    Type
REMARK                         _______ _______ _______ _____ _____    ______ ____
ROOT
ATOM      1  C   UNL     1       2.194   6.739  19.658  0.00  0.00    +0.000 A 
ATOM      2  C   UNL     1       2.455   7.021  18.308  0.00  0.00    +0.000 A 
ATOM      3  C   UNL     1       2.164   8.285  17.790  0.00  0.00    +0.000 A 
ATOM      4  C   UNL     1       1.613   9.274  18.621  0.00  0.00    +0.000 A 
ATOM      5  C   UNL     1       1.327   8.974  19.961  0.00  0.00    +0.000 A 
ATOM      6  C   UNL     1       1.617   7.716  20.476  0.00  0.00    +0.000 A 
ENDROOT
BRANCH   1   7
ATOM      7  C   UNL     1       2.629   5.447  20.266  0.00  0.00    +0.000 C 
BRANCH   7   8
ATOM      8  C   UNL     1       1.350   4.657  20.602  0.00  0.00    +0.000 C 
BRANCH   8   9
ATOM      9  C   UNL     1       1.615   3.245  21.106  0.00  0.00    +0.000 C 
BRANCH   9  10
ATOM     10  C   UNL     1       2.254   2.365  20.037  0.00  0.00    +0.000 C 
BRANCH  10  11
ATOM     11  C   UNL     1       1.445   2.431  18.756  0.00  0.00    +0.000 C 
BRANCH  11  12
ATOM     12  C   UNL     1       2.370   2.304  17.557  0.00  0.00    +0.000 C 
BRANCH  12  13
ATOM     13  C   UNL     1       3.783   2.689  17.955  0.00  0.00    +0.000 C 
BRANCH  13  14
ATOM     14  C   UNL     1       4.235   3.899  17.150  0.00  0.00    +0.000 C 
BRANCH  14  15
ATOM     15  C   UNL     1       5.279   4.686  17.929  0.00  0.00    +0.000 C 
BRANCH  15  16
ATOM     16  C   UNL     1       6.616   4.636  17.203  0.00  0.00    +0.000 C 
BRANCH  16  18
ATOM     17  C   UNL     1       6.110   7.088  17.192  0.00  0.00    +0.000 C 
ATOM     18  C   UNL     1       7.202   6.038  17.057  0.00  0.00    +0.000 C 
ENDBRANCH  16  18
ENDBRANCH  15  16
ENDBRANCH  14  15
ENDBRANCH  13  14
ENDBRANCH  12  13
ENDBRANCH  11  12
ENDBRANCH  10  11
ENDBRANCH   9  10
ENDBRANCH   8   9
ENDBRANCH   7   8
ENDBRANCH   1   7
BRANCH   4  19
ATOM     19  C   UNL     1       1.382  10.670  18.122  0.00  0.00    +0.000 C 
BRANCH  19  20
ATOM     20  N   UNL     1       0.897  11.549  19.215  0.00  0.00    +0.000 NA
ATOM     21  C   UNL     1      -0.549  11.798  19.131  0.00  0.00    +0.000 C 
ATOM     22  C   UNL     1      -0.686  12.991  18.208  0.00  0.00    +0.000 C 
ATOM     23  C   UNL     1       0.430  13.894  18.690  0.00  0.00    +0.000 C 
ATOM     24  C   UNL     1       1.484  12.917  19.250  0.00  0.00    +0.000 C 
BRANCH  24  25
ATOM     25  C   UNL     1       2.890  13.086  18.630  0.00  0.00    +0.000 C 
BRANCH  25  26
ATOM     26  O   UNL     1       2.862  14.054  17.618  0.00  0.00    +0.000 OA
ATOM     27  H   UNL     1       2.471  14.876  18.020  0.00  0.00    +0.000 HD
ENDBRANCH  25  26
ENDBRANCH  24  25
ENDBRANCH  19  20
ENDBRANCH   4  19
TORSDOF 15
ENDMDL
MODEL 6
REMARK VINA RESULT:      -6.4      5.559      9.207
REMARK  Name = 
REMARK  16 active torsions:
REMARK  status: ('A' for Active; 'I' for Inactive)
REMARK    1  A    between atoms: C_1  and  C_2
REMARK    2  A    between atoms: C_2  and  C_3
REMARK    3  A    between atoms: C_3  and  C_4
REMARK    4  A    between atoms: C_4  and  C_5
REMARK    5  A    between atoms: C_5  and  C_6
REMARK    6  A    between atoms: C_6  and  C_7
REMARK    7  A    between atoms: C_7  and  C_8
REMARK    8  A    between atoms: C_8  and  C_9
REMARK    9  A    between atoms: C_9  and  C_10
REMARK   10  A    between atoms: C_10  and  C_11
REMARK   11  A    between atoms: C_11  and  C_12
REMARK   12  A    between atoms: C_12  and  C_13
REMARK   13  A    between atoms: C_16  and  C_17
REMARK   14  A    between atoms: C_17  and  N_18
REMARK   15  A    between atoms: C_22  and  C_23
REMARK   16  A    between atoms: C_23  and  O_24
REMARK                            x       y       z     vdW  Elec       q    Type
REMARK                         _______ _______ _______ _____ _____    ______ ____
ROOT
ATOM      1  C   UNL     1       2.237   7.146  19.885  0.00  0.00    +0.000 A 
ATOM      2  C   UNL     1       1.534   7.511  21.044  0.00  0.00    +0.000 A 
ATOM      3  C   UNL     1       0.776   8.685  21.059  0.00  0.00    +0.000 A 
ATOM      4  C   UNL     1       0.717   9.496  19.915  0.00  0.00    +0.000 A 
ATOM      5  C   UNL     1       1.448   9.140  18.772  0.00  0.00    +0.000 A 
ATOM      6  C   UNL     1       2.201   7.972  18.758  0.00  0.00    +0.000 A 
ENDROOT
BRANCH   1   7
ATOM      7  C   UNL     1       2.934   5.828  19.799  0.00  0.00    +0.000 C 
BRANCH   7   8
ATOM      8  C   UNL     1       1.950   4.765  20.320  0.00  0.00    +0.000 C 
BRANCH   8   9
ATOM      9  C   UNL     1       1.296   3.940  19.220  0.00  0.00    +0.000 C 
BRANCH   9  10
ATOM     10  C   UNL     1       1.859   4.272  17.843  0.00  0.00    +0.000 C 
BRANCH  10  11
ATOM     11  C   UNL     1       2.430   3.022  17.200  0.00  0.00    +0.000 C 
BRANCH  11  12
ATOM     12  C   UNL     1       3.815   2.743  17.760  0.00  0.00    +0.000 C 
BRANCH  12  13
ATOM     13  C   UNL     1       4.726   3.927  17.495  0.00  0.00    +0.000 C 
BRANCH  13  14
ATOM     14  C   UNL     1       4.912   4.111  15.996  0.00  0.00    +0.000 C 
BRANCH  14  15
ATOM     15  C   UNL     1       5.688   5.390  15.718  0.00  0.00    +0.000 C 
BRANCH  15  16
ATOM     16  C   UNL     1       7.028   5.350  16.438  0.00  0.00    +0.000 C 
BRANCH  16  18
ATOM     17  C   UNL     1       7.698   6.247  18.678  0.00  0.00    +0.000 C 
ATOM     18  C   UNL     1       7.224   6.609  17.279  0.00  0.00    +0.000 C 
ENDBRANCH  16  18
ENDBRANCH  15  16
ENDBRANCH  14  15
ENDBRANCH  13  14
ENDBRANCH  12  13
ENDBRANCH  11  12
ENDBRANCH  10  11
ENDBRANCH   9  10
ENDBRANCH   8   9
ENDBRANCH   7   8
ENDBRANCH   1   7
BRANCH   4  19
ATOM     19  C   UNL     1      -0.166  10.710  19.866  0.00  0.00    +0.000 C 
BRANCH  19  20
ATOM     20  N   UNL     1       0.467  11.792  19.073  0.00  0.00    +0.000 NA
ATOM     21  C   UNL     1       1.262  12.704  19.909  0.00  0.00    +0.000 C 
ATOM     22  C   UNL     1       0.275  13.741  20.403  0.00  0.00    +0.000 C 
ATOM     23  C   UNL     1      -0.538  14.023  19.157  0.00  0.00    +0.000 C 
ATOM     24  C   UNL     1      -0.471  12.703  18.361  0.00  0.00    +0.000 C 
BRANCH  24  25
ATOM     25  C   UNL     1      -1.856  12.122  17.990  0.00  0.00    +0.000 C 
BRANCH  25  26
ATOM     26  O   UNL     1      -1.875  11.735  16.644  0.00  0.00    +0.000 OA
ATOM     27  H   UNL     1      -1.483  12.487  16.125  0.00  0.00    +0.000 HD
ENDBRANCH  25  26
ENDBRANCH  24  25
ENDBRANCH  19  20
ENDBRANCH   4  19
TORSDOF 15
ENDMDL
MODEL 7
REMARK VINA RESULT:      -6.4      5.107      9.302
REMARK  Name = 
REMARK  16 active torsions:
REMARK  status: ('A' for Active; 'I' for Inactive)
REMARK    1  A    between atoms: C_1  and  C_2
REMARK    2  A    between atoms: C_2  and  C_3
REMARK    3  A    between atoms: C_3  and  C_4
REMARK    4  A    between atoms: C_4  and  C_5
REMARK    5  A    between atoms: C_5  and  C_6
REMARK    6  A    between atoms: C_6  and  C_7
REMARK    7  A    between atoms: C_7  and  C_8
REMARK    8  A    between atoms: C_8  and  C_9
REMARK    9  A    between atoms: C_9  and  C_10
REMARK   10  A    between atoms: C_10  and  C_11
REMARK   11  A    between atoms: C_11  and  C_12
REMARK   12  A    between atoms: C_12  and  C_13
REMARK   13  A    between atoms: C_16  and  C_17
REMARK   14  A    between atoms: C_17  and  N_18
REMARK   15  A    between atoms: C_22  and  C_23
REMARK   16  A    between atoms: C_23  and  O_24
REMARK                            x       y       z     vdW  Elec       q    Type
REMARK                         _______ _______ _______ _____ _____    ______ ____
ROOT
ATOM      1  C   UNL     1       2.140   6.727  19.966  0.00  0.00    +0.000 A 
ATOM      2  C   UNL     1       2.488   7.110  18.661  0.00  0.00    +0.000 A 
ATOM      3  C   UNL     1       2.172   8.391  18.203  0.00  0.00    +0.000 A 
ATOM      4  C   UNL     1       1.509   9.295  19.048  0.00  0.00    +0.000 A 
ATOM      5  C   UNL     1       1.137   8.893  20.339  0.00  0.00    +0.000 A 
ATOM      6  C   UNL     1       1.452   7.619  20.795  0.00  0.00    +0.000 A 
ENDROOT
BRANCH   1   7
ATOM      7  C   UNL     1       2.593   5.419  20.524  0.00  0.00    +0.000 C 
BRANCH   7   8
ATOM      8  C   UNL     1       1.422   4.432  20.362  0.00  0.00    +0.000 C 
BRANCH   8   9
ATOM      9  C   UNL     1       1.859   2.996  20.108  0.00  0.00    +0.000 C 
BRANCH   9  10
ATOM     10  C   UNL     1       1.185   2.401  18.878  0.00  0.00    +0.000 C 
BRANCH  10  11
ATOM     11  C   UNL     1       2.232   1.976  17.865  0.00  0.00    +0.000 C 
BRANCH  11  12
ATOM     12  C   UNL     1       3.502   2.784  18.070  0.00  0.00    +0.000 C 
BRANCH  12  13
ATOM     13  C   UNL     1       3.714   3.717  16.892  0.00  0.00    +0.000 C 
BRANCH  13  14
ATOM     14  C   UNL     1       4.981   4.533  17.100  0.00  0.00    +0.000 C 
BRANCH  14  15
ATOM     15  C   UNL     1       5.495   4.348  18.521  0.00  0.00    +0.000 C 
BRANCH  15  16
ATOM     16  C   UNL     1       6.358   5.538  18.919  0.00  0.00    +0.000 C 
BRANCH  16  18
ATOM     17  C   UNL     1       7.765   7.381  17.974  0.00  0.00    +0.000 C 
ATOM     18  C   UNL     1       6.573   6.468  17.728  0.00  0.00    +0.000 C 
ENDBRANCH  16  18
ENDBRANCH  15  16
ENDBRANCH  14  15
ENDBRANCH  13  14
ENDBRANCH  12  13
ENDBRANCH  11  12
ENDBRANCH  10  11
ENDBRANCH   9  10
ENDBRANCH   8   9
ENDBRANCH   7   8
ENDBRANCH   1   7
BRANCH   4  19
ATOM     19  C   UNL     1       1.244  10.710  18.621  0.00  0.00    +0.000 C 
BRANCH  19  20
ATOM     20  N   UNL     1       0.257  11.357  19.519  0.00  0.00    +0.000 NA
ATOM     21  C   UNL     1      -1.085  11.420  18.920  0.00  0.00    +0.000 C 
ATOM     22  C   UNL     1      -1.090  12.700  18.110  0.00  0.00    +0.000 C 
ATOM     23  C   UNL     1      -0.394  13.668  19.044  0.00  0.00    +0.000 C 
ATOM     24  C   UNL     1       0.544  12.773  19.879  0.00  0.00    +0.000 C 
BRANCH  24  25
ATOM     25  C   UNL     1       2.027  13.211  19.845  0.00  0.00    +0.000 C 
BRANCH  25  26
ATOM     26  O   UNL     1       2.578  13.162  21.132  0.00  0.00    +0.000 OA
ATOM     27  H   UNL     1       3.559  13.045  21.018  0.00  0.00    +0.000 HD
ENDBRANCH  25  26
ENDBRANCH  24  25
ENDBRANCH  19  20
ENDBRANCH   4  19
TORSDOF 15
ENDMDL
MODEL 8
REMARK VINA RESULT:      -6.3      6.173      9.737
REMARK  Name = 
REMARK  16 active torsions:
REMARK  status: ('A' for Active; 'I' for Inactive)
REMARK    1  A    between atoms: C_1  and  C_2
REMARK    2  A    between atoms: C_2  and  C_3
REMARK    3  A    between atoms: C_3  and  C_4
REMARK    4  A    between atoms: C_4  and  C_5
REMARK    5  A    between atoms: C_5  and  C_6
REMARK    6  A    between atoms: C_6  and  C_7
REMARK    7  A    between atoms: C_7  and  C_8
REMARK    8  A    between atoms: C_8  and  C_9
REMARK    9  A    between atoms: C_9  and  C_10
REMARK   10  A    between atoms: C_10  and  C_11
REMARK   11  A    between atoms: C_11  and  C_12
REMARK   12  A    between atoms: C_12  and  C_13
REMARK   13  A    between atoms: C_16  and  C_17
REMARK   14  A    between atoms: C_17  and  N_18
REMARK   15  A    between atoms: C_22  and  C_23
REMARK   16  A    between atoms: C_23  and  O_24
REMARK                            x       y       z     vdW  Elec       q    Type
REMARK                         _______ _______ _______ _____ _____    ______ ____
ROOT
ATOM      1  C   UNL     1       2.161   6.302  19.828  0.00  0.00    +0.000 A 
ATOM      2  C   UNL     1       2.439   6.563  18.477  0.00  0.00    +0.000 A 
ATOM      3  C   UNL     1       2.199   7.834  17.949  0.00  0.00    +0.000 A 
ATOM      4  C   UNL     1       1.683   8.849  18.769  0.00  0.00    +0.000 A 
ATOM      5  C   UNL     1       1.378   8.571  20.110  0.00  0.00    +0.000 A 
ATOM      6  C   UNL     1       1.617   7.306  20.635  0.00  0.00    +0.000 A 
ENDROOT
BRANCH   1   7
ATOM      7  C   UNL     1       2.542   4.999  20.448  0.00  0.00    +0.000 C 
BRANCH   7   8
ATOM      8  C   UNL     1       1.240   4.203  20.658  0.00  0.00    +0.000 C 
BRANCH   8   9
ATOM      9  C   UNL     1       0.831   3.366  19.455  0.00  0.00    +0.000 C 
BRANCH   9  10
ATOM     10  C   UNL     1       1.857   2.286  19.133  0.00  0.00    +0.000 C 
BRANCH  10  11
ATOM     11  C   UNL     1       2.493   2.558  17.783  0.00  0.00    +0.000 C 
BRANCH  11  12
ATOM     12  C   UNL     1       3.999   2.686  17.941  0.00  0.00    +0.000 C 
BRANCH  12  13
ATOM     13  C   UNL     1       4.489   3.926  17.217  0.00  0.00    +0.000 C 
BRANCH  13  14
ATOM     14  C   UNL     1       5.134   3.532  15.896  0.00  0.00    +0.000 C 
BRANCH  14  15
ATOM     15  C   UNL     1       6.525   4.141  15.790  0.00  0.00    +0.000 C 
BRANCH  15  16
ATOM     16  C   UNL     1       6.721   4.748  14.408  0.00  0.00    +0.000 C 
BRANCH  16  18
ATOM     17  C   UNL     1       6.993   3.816  12.099  0.00  0.00    +0.000 C 
ATOM     18  C   UNL     1       6.107   3.852  13.335  0.00  0.00    +0.000 C 
ENDBRANCH  16  18
ENDBRANCH  15  16
ENDBRANCH  14  15
ENDBRANCH  13  14
ENDBRANCH  12  13
ENDBRANCH  11  12
ENDBRANCH  10  11
ENDBRANCH   9  10
ENDBRANCH   8   9
ENDBRANCH   7   8
ENDBRANCH   1   7
BRANCH   4  19
ATOM     19  C   UNL     1       1.507  10.250  18.258  0.00  0.00    +0.000 C 
BRANCH  19  20
ATOM     20  N   UNL     1       0.813  11.095  19.260  0.00  0.00    +0.000 NA
ATOM     21  C   UNL     1      -0.649  11.047  19.113  0.00  0.00    +0.000 C 
ATOM     22  C   UNL     1      -0.973  12.117  18.091  0.00  0.00    +0.000 C 
ATOM     23  C   UNL     1      -0.076  13.255  18.530  0.00  0.00    +0.000 C 
ATOM     24  C   UNL     1       1.121  12.550  19.200  0.00  0.00    +0.000 C 
BRANCH  24  25
ATOM     25  C   UNL     1       2.495  12.946  18.610  0.00  0.00    +0.000 C 
BRANCH  25  26
ATOM     26  O   UNL     1       2.370  13.242  17.246  0.00  0.00    +0.000 OA
ATOM     27  H   UNL     1       1.553  13.800  17.148  0.00  0.00    +0.000 HD
ENDBRANCH  25  26
ENDBRANCH  24  25
ENDBRANCH  19  20
ENDBRANCH   4  19
TORSDOF 15
ENDMDL
MODEL 9
REMARK VINA RESULT:      -6.3      0.759      1.344
REMARK  Name = 
REMARK  16 active torsions:
REMARK  status: ('A' for Active; 'I' for Inactive)
REMARK    1  A    between atoms: C_1  and  C_2
REMARK    2  A    between atoms: C_2  and  C_3
REMARK    3  A    between atoms: C_3  and  C_4
REMARK    4  A    between atoms: C_4  and  C_5
REMARK    5  A    between atoms: C_5  and  C_6
REMARK    6  A    between atoms: C_6  and  C_7
REMARK    7  A    between atoms: C_7  and  C_8
REMARK    8  A    between atoms: C_8  and  C_9
REMARK    9  A    between atoms: C_9  and  C_10
REMARK   10  A    between atoms: C_10  and  C_11
REMARK   11  A    between atoms: C_11  and  C_12
REMARK   12  A    between atoms: C_12  and  C_13
REMARK   13  A    between atoms: C_16  and  C_17
REMARK   14  A    between atoms: C_17  and  N_18
REMARK   15  A    between atoms: C_22  and  C_23
REMARK   16  A    between atoms: C_23  and  O_24
REMARK                            x       y       z     vdW  Elec       q    Type
REMARK                         _______ _______ _______ _____ _____    ______ ____
ROOT
ATOM      1  C   UNL     1       7.098   6.998  17.747  0.00  0.00    +0.000 A 
ATOM      2  C   UNL     1       7.337   6.093  18.793  0.00  0.00    +0.000 A 
ATOM      3  C   UNL     1       6.343   5.189  19.174  0.00  0.00    +0.000 A 
ATOM      4  C   UNL     1       5.107   5.185  18.510  0.00  0.00    +0.000 A 
ATOM      5  C   UNL     1       4.865   6.113  17.486  0.00  0.00    +0.000 A 
ATOM      6  C   UNL     1       5.854   7.012  17.108  0.00  0.00    +0.000 A 
ENDROOT
BRANCH   1   7
ATOM      7  C   UNL     1       8.191   7.873  17.229  0.00  0.00    +0.000 C 
BRANCH   7   8
ATOM      8  C   UNL     1       8.000   9.259  17.871  0.00  0.00    +0.000 C 
BRANCH   8   9
ATOM      9  C   UNL     1       8.919   9.521  19.056  0.00  0.00    +0.000 C 
BRANCH   9  10
ATOM     10  C   UNL     1       9.807  10.739  18.834  0.00  0.00    +0.000 C 
BRANCH  10  11
ATOM     11  C   UNL     1       8.977  11.903  18.328  0.00  0.00    +0.000 C 
BRANCH  11  12
ATOM     12  C   UNL     1       9.848  12.833  17.499  0.00  0.00    +0.000 C 
BRANCH  12  13
ATOM     13  C   UNL     1      11.290  12.360  17.541  0.00  0.00    +0.000 C 
BRANCH  13  14
ATOM     14  C   UNL     1      12.166  13.428  18.180  0.00  0.00    +0.000 C 
BRANCH  14  15
ATOM     15  C   UNL     1      11.319  14.624  18.590  0.00  0.00    +0.000 C 
BRANCH  15  16
ATOM     16  C   UNL     1      12.005  15.384  19.716  0.00  0.00    +0.000 C 
BRANCH  16  18
ATOM     17  C   UNL     1       9.961  14.518  20.874  0.00  0.00    +0.000 C 
ATOM     18  C   UNL     1      11.053  15.577  20.893  0.00  0.00    +0.000 C 
ENDBRANCH  16  18
ENDBRANCH  15  16
ENDBRANCH  14  15
ENDBRANCH  13  14
ENDBRANCH  12  13
ENDBRANCH  11  12
ENDBRANCH  10  11
ENDBRANCH   9  10
ENDBRANCH   8   9
ENDBRANCH   7   8
ENDBRANCH   1   7
BRANCH   4  19
ATOM     19  C   UNL     1       4.055   4.161  18.828  0.00  0.00    +0.000 C 
BRANCH  19  20
ATOM     20  N   UNL     1       2.715   4.791  18.918  0.00  0.00    +0.000 NA
ATOM     21  C   UNL     1       2.505   5.477  20.201  0.00  0.00    +0.000 C 
ATOM     22  C   UNL     1       1.985   4.404  21.136  0.00  0.00    +0.000 C 
ATOM     23  C   UNL     1       0.999   3.667  20.254  0.00  0.00    +0.000 C 
ATOM     24  C   UNL     1       1.557   3.859  18.828  0.00  0.00    +0.000 C 
BRANCH  24  25
ATOM     25  C   UNL     1       1.788   2.536  18.061  0.00  0.00    +0.000 C 
BRANCH  25  26
ATOM     26  O   UNL     1       1.747   1.449  18.943  0.00  0.00    +0.000 OA
ATOM     27  H   UNL     1       2.361   0.759  18.574  0.00  0.00    +0.000 HD
ENDBRANCH  25  26
ENDBRANCH  24  25
ENDBRANCH  19  20
ENDBRANCH   4  19
TORSDOF 15
ENDMDL
