MODEL 1
REMARK VINA RESULT:      -8.3      0.000      0.000
REMARK  Name = 
REMARK  6 active torsions:
REMARK  status: ('A' for Active; 'I' for Inactive)
REMARK    1  A    between atoms: C_2  and  C_17
REMARK    2  A    between atoms: N_3  and  C_4
REMARK    3  A    between atoms: C_4  and  C_5
REMARK    4  A    between atoms: C_4  and  C_11
REMARK    5  A    between atoms: C_5  and  N_6
REMARK    6  A    between atoms: C_21  and  N_22
REMARK                            x       y       z     vdW  Elec       q    Type
REMARK                         _______ _______ _______ _____ _____    ______ ____
ROOT
ATOM      1  O   UNL     1       2.569   4.650  17.425  0.00  0.00    +0.000 OA
ATOM      2  C   UNL     1       3.488   5.311  17.891  0.00  0.00    +0.000 C 
ATOM      3  N   UNL     1       3.315   6.313  18.820  0.00  0.00    +0.000 N 
ATOM      4  H   UNL     1       4.062   6.986  18.864  0.00  0.00    +0.000 HD
ENDROOT
BRANCH   2   5
ATOM      5  C   UNL     1       4.893   5.094  17.448  0.00  0.00    +0.000 A 
ATOM      6  C   UNL     1       5.903   4.979  18.408  0.00  0.00    +0.000 A 
ATOM      7  C   UNL     1       7.217   4.733  18.011  0.00  0.00    +0.000 A 
ATOM      8  C   UNL     1       7.534   4.607  16.654  0.00  0.00    +0.000 A 
ATOM      9  C   UNL     1       6.534   4.755  15.685  0.00  0.00    +0.000 A 
ATOM     10  C   UNL     1       5.214   5.014  16.087  0.00  0.00    +0.000 A 
BRANCH   9  11
ATOM     11  N   UNL     1       6.826   4.673  14.298  0.00  0.00    +0.000 N 
ATOM     12  C   UNL     1       6.307   3.800  13.363  0.00  0.00    +0.000 A 
ATOM     13  C   UNL     1       6.954   4.046  12.174  0.00  0.00    +0.000 A 
ATOM     14  C   UNL     1       7.825   5.105  12.462  0.00  0.00    +0.000 A 
ATOM     15  N   UNL     1       7.721   5.521  13.724  0.00  0.00    +0.000 NA
ENDBRANCH   9  11
ENDBRANCH   2   5
BRANCH   3  16
ATOM     16  C   UNL     1       2.009   6.705  19.351  0.00  0.00    +0.000 C 
BRANCH  16  17
ATOM     17  C   UNL     1       1.747   8.219  19.258  0.00  0.00    +0.000 A 
ATOM     18  C   UNL     1       1.092   8.966  20.256  0.00  0.00    +0.000 A 
ATOM     19  C   UNL     1       0.839  10.333  20.093  0.00  0.00    +0.000 A 
ATOM     20  C   UNL     1       1.222  10.982  18.927  0.00  0.00    +0.000 A 
ATOM     21  C   UNL     1       1.891  10.275  17.935  0.00  0.00    +0.000 A 
ATOM     22  C   UNL     1       2.170   8.916  18.109  0.00  0.00    +0.000 A 
ENDBRANCH  16  17
BRANCH  16  23
ATOM     23  C   UNL     1       1.750   6.139  20.779  0.00  0.00    +0.000 C 
BRANCH  23  24
ATOM     24  N   UNL     1       1.703   4.692  20.865  0.00  0.00    +0.000 N 
ATOM     25  C   UNL     1       2.445   3.903  21.699  0.00  0.00    +0.000 A 
ATOM     26  C   UNL     1       2.030   2.620  21.437  0.00  0.00    +0.000 A 
ATOM     27  N   UNL     1       1.017   2.615  20.514  0.00  0.00    +0.000 NA
ATOM     28  C   UNL     1       0.827   3.879  20.202  0.00  0.00    +0.000 A 
ENDBRANCH  23  24
ENDBRANCH  16  23
ENDBRANCH   3  16
TORSDOF 6
ENDMDL
MODEL 2
REMARK VINA RESULT:      -8.2      2.070      7.636
REMARK  Name = 
REMARK  6 active torsions:
REMARK  status: ('A' for Active; 'I' for Inactive)
REMARK    1  A    between atoms: C_2  and  C_17
REMARK    2  A    between atoms: N_3  and  C_4
REMARK    3  A    between atoms: C_4  and  C_5
REMARK    4  A    between atoms: C_4  and  C_11
REMARK    5  A    between atoms: C_5  and  N_6
REMARK    6  A    between atoms: C_21  and  N_22
REMARK                            x       y       z     vdW  Elec       q    Type
REMARK                         _______ _______ _______ _____ _____    ______ ____
ROOT
ATOM      1  O   UNL     1       3.245   5.874  20.314  0.00  0.00    +0.000 OA
ATOM      2  C   UNL     1       2.990   6.364  19.220  0.00  0.00    +0.000 C 
ATOM      3  N   UNL     1       3.359   5.794  18.022  0.00  0.00    +0.000 N 
ATOM      4  H   UNL     1       3.402   6.430  17.244  0.00  0.00    +0.000 HD
ENDROOT
BRANCH   2   5
ATOM      5  C   UNL     1       2.273   7.664  19.109  0.00  0.00    +0.000 A 
ATOM      6  C   UNL     1       2.296   8.356  17.894  0.00  0.00    +0.000 A 
ATOM      7  C   UNL     1       1.594   9.554  17.761  0.00  0.00    +0.000 A 
ATOM      8  C   UNL     1       0.870  10.072  18.840  0.00  0.00    +0.000 A 
ATOM      9  C   UNL     1       0.871   9.403  20.070  0.00  0.00    +0.000 A 
ATOM     10  C   UNL     1       1.587   8.203  20.204  0.00  0.00    +0.000 A 
BRANCH   9  11
ATOM     11  N   UNL     1       0.180   9.921  21.197  0.00  0.00    +0.000 N 
ATOM     12  C   UNL     1      -0.190  11.226  21.451  0.00  0.00    +0.000 A 
ATOM     13  C   UNL     1      -0.759  11.251  22.703  0.00  0.00    +0.000 A 
ATOM     14  C   UNL     1      -0.730   9.917  23.128  0.00  0.00    +0.000 A 
ATOM     15  N   UNL     1      -0.211   9.102  22.210  0.00  0.00    +0.000 NA
ENDBRANCH   9  11
ENDBRANCH   2   5
BRANCH   3  16
ATOM     16  C   UNL     1       4.104   4.538  17.921  0.00  0.00    +0.000 C 
BRANCH  16  17
ATOM     17  C   UNL     1       5.174   4.557  16.815  0.00  0.00    +0.000 A 
ATOM     18  C   UNL     1       6.529   4.872  17.036  0.00  0.00    +0.000 A 
ATOM     19  C   UNL     1       7.446   4.920  15.981  0.00  0.00    +0.000 A 
ATOM     20  C   UNL     1       7.033   4.666  14.679  0.00  0.00    +0.000 A 
ATOM     21  C   UNL     1       5.706   4.330  14.434  0.00  0.00    +0.000 A 
ATOM     22  C   UNL     1       4.794   4.254  15.492  0.00  0.00    +0.000 A 
ENDBRANCH  16  17
BRANCH  16  23
ATOM     23  C   UNL     1       3.172   3.295  17.831  0.00  0.00    +0.000 C 
BRANCH  23  24
ATOM     24  N   UNL     1       2.437   2.991  19.044  0.00  0.00    +0.000 N 
ATOM     25  C   UNL     1       2.964   2.545  20.224  0.00  0.00    +0.000 A 
ATOM     26  C   UNL     1       1.891   2.433  21.074  0.00  0.00    +0.000 A 
ATOM     27  N   UNL     1       0.740   2.856  20.462  0.00  0.00    +0.000 NA
ATOM     28  C   UNL     1       1.103   3.206  19.247  0.00  0.00    +0.000 A 
ENDBRANCH  23  24
ENDBRANCH  16  23
ENDBRANCH   3  16
TORSDOF 6
ENDMDL
MODEL 3
REMARK VINA RESULT:      -8.1      2.221      7.591
REMARK  Name = 
REMARK  6 active torsions:
REMARK  status: ('A' for Active; 'I' for Inactive)
REMARK    1  A    between atoms: C_2  and  C_17
REMARK    2  A    between atoms: N_3  and  C_4
REMARK    3  A    between atoms: C_4  and  C_5
REMARK    4  A    between atoms: C_4  and  C_11
REMARK    5  A    between atoms: C_5  and  N_6
REMARK    6  A    between atoms: C_21  and  N_22
REMARK                            x       y       z     vdW  Elec       q    Type
REMARK                         _______ _______ _______ _____ _____    ______ ____
ROOT
ATOM      1  O   UNL     1       3.752   5.780  19.936  0.00  0.00    +0.000 OA
ATOM      2  C   UNL     1       3.280   6.249  18.907  0.00  0.00    +0.000 C 
ATOM      3  N   UNL     1       3.412   5.662  17.669  0.00  0.00    +0.000 N 
ATOM      4  H   UNL     1       3.293   6.286  16.888  0.00  0.00    +0.000 HD
ENDROOT
BRANCH   2   5
ATOM      5  C   UNL     1       2.539   7.540  18.920  0.00  0.00    +0.000 A 
ATOM      6  C   UNL     1       2.509   8.324  17.763  0.00  0.00    +0.000 A 
ATOM      7  C   UNL     1       1.784   9.515  17.746  0.00  0.00    +0.000 A 
ATOM      8  C   UNL     1       1.089   9.936  18.884  0.00  0.00    +0.000 A 
ATOM      9  C   UNL     1       1.142   9.174  20.058  0.00  0.00    +0.000 A 
ATOM     10  C   UNL     1       1.881   7.980  20.076  0.00  0.00    +0.000 A 
BRANCH   9  11
ATOM     11  N   UNL     1       0.481   9.590  21.244  0.00  0.00    +0.000 N 
ATOM     12  C   UNL     1       0.592   9.068  22.516  0.00  0.00    +0.000 A 
ATOM     13  C   UNL     1      -0.303   9.743  23.313  0.00  0.00    +0.000 A 
ATOM     14  C   UNL     1      -0.893  10.683  22.458  0.00  0.00    +0.000 A 
ATOM     15  N   UNL     1      -0.394  10.632  21.224  0.00  0.00    +0.000 NA
ENDBRANCH   9  11
ENDBRANCH   2   5
BRANCH   3  16
ATOM     16  C   UNL     1       4.139   4.412  17.441  0.00  0.00    +0.000 C 
BRANCH  16  17
ATOM     17  C   UNL     1       5.142   4.498  16.277  0.00  0.00    +0.000 A 
ATOM     18  C   UNL     1       4.856   4.092  14.960  0.00  0.00    +0.000 A 
ATOM     19  C   UNL     1       5.826   4.149  13.953  0.00  0.00    +0.000 A 
ATOM     20  C   UNL     1       7.108   4.601  14.240  0.00  0.00    +0.000 A 
ATOM     21  C   UNL     1       7.412   5.031  15.526  0.00  0.00    +0.000 A 
ATOM     22  C   UNL     1       6.435   5.001  16.526  0.00  0.00    +0.000 A 
ENDBRANCH  16  17
BRANCH  16  23
ATOM     23  C   UNL     1       3.191   3.182  17.325  0.00  0.00    +0.000 C 
BRANCH  23  24
ATOM     24  N   UNL     1       2.414   2.893  18.514  0.00  0.00    +0.000 N 
ATOM     25  C   UNL     1       2.906   2.568  19.747  0.00  0.00    +0.000 A 
ATOM     26  C   UNL     1       1.797   2.417  20.545  0.00  0.00    +0.000 A 
ATOM     27  N   UNL     1       0.653   2.700  19.845  0.00  0.00    +0.000 NA
ATOM     28  C   UNL     1       1.057   3.003  18.630  0.00  0.00    +0.000 A 
ENDBRANCH  23  24
ENDBRANCH  16  23
ENDBRANCH   3  16
TORSDOF 6
ENDMDL
MODEL 4
REMARK VINA RESULT:      -8.0      2.399      7.789
REMARK  Name = 
REMARK  6 active torsions:
REMARK  status: ('A' for Active; 'I' for Inactive)
REMARK    1  A    between atoms: C_2  and  C_17
REMARK    2  A    between atoms: N_3  and  C_4
REMARK    3  A    between atoms: C_4  and  C_5
REMARK    4  A    between atoms: C_4  and  C_11
REMARK    5  A    between atoms: C_5  and  N_6
REMARK    6  A    between atoms: C_21  and  N_22
REMARK                            x       y       z     vdW  Elec       q    Type
REMARK                         _______ _______ _______ _____ _____    ______ ____
ROOT
ATOM      1  O   UNL     1       2.625   6.175  20.668  0.00  0.00    +0.000 OA
ATOM      2  C   UNL     1       2.611   6.707  19.565  0.00  0.00    +0.000 C 
ATOM      3  N   UNL     1       3.224   6.175  18.452  0.00  0.00    +0.000 N 
ATOM      4  H   UNL     1       3.434   6.838  17.725  0.00  0.00    +0.000 HD
ENDROOT
BRANCH   2   5
ATOM      5  C   UNL     1       1.940   8.018  19.352  0.00  0.00    +0.000 A 
ATOM      6  C   UNL     1       2.006   8.625  18.094  0.00  0.00    +0.000 A 
ATOM      7  C   UNL     1       1.347   9.833  17.867  0.00  0.00    +0.000 A 
ATOM      8  C   UNL     1       0.623  10.447  18.894  0.00  0.00    +0.000 A 
ATOM      9  C   UNL     1       0.581   9.864  20.167  0.00  0.00    +0.000 A 
ATOM     10  C   UNL     1       1.254   8.653  20.395  0.00  0.00    +0.000 A 
BRANCH   9  11
ATOM     11  N   UNL     1      -0.111  10.480  21.243  0.00  0.00    +0.000 N 
ATOM     12  C   UNL     1      -0.445   9.940  22.468  0.00  0.00    +0.000 A 
ATOM     13  C   UNL     1      -1.184  10.885  23.142  0.00  0.00    +0.000 A 
ATOM     14  C   UNL     1      -1.223  11.983  22.272  0.00  0.00    +0.000 A 
ATOM     15  N   UNL     1      -0.541  11.766  21.148  0.00  0.00    +0.000 NA
ENDBRANCH   9  11
ENDBRANCH   2   5
BRANCH   3  16
ATOM     16  C   UNL     1       3.968   4.915  18.465  0.00  0.00    +0.000 C 
BRANCH  16  17
ATOM     17  C   UNL     1       5.055   4.843  17.377  0.00  0.00    +0.000 A 
ATOM     18  C   UNL     1       6.133   5.744  17.282  0.00  0.00    +0.000 A 
ATOM     19  C   UNL     1       7.064   5.657  16.242  0.00  0.00    +0.000 A 
ATOM     20  C   UNL     1       6.936   4.677  15.266  0.00  0.00    +0.000 A 
ATOM     21  C   UNL     1       5.895   3.759  15.348  0.00  0.00    +0.000 A 
ATOM     22  C   UNL     1       4.980   3.828  16.403  0.00  0.00    +0.000 A 
ENDBRANCH  16  17
BRANCH  16  23
ATOM     23  C   UNL     1       3.034   3.669  18.461  0.00  0.00    +0.000 C 
BRANCH  23  24
ATOM     24  N   UNL     1       2.593   3.230  19.772  0.00  0.00    +0.000 N 
ATOM     25  C   UNL     1       1.299   3.101  20.192  0.00  0.00    +0.000 A 
ATOM     26  C   UNL     1       1.388   2.632  21.481  0.00  0.00    +0.000 A 
ATOM     27  N   UNL     1       2.696   2.417  21.829  0.00  0.00    +0.000 NA
ATOM     28  C   UNL     1       3.398   2.767  20.773  0.00  0.00    +0.000 A 
ENDBRANCH  23  24
ENDBRANCH  16  23
ENDBRANCH   3  16
TORSDOF 6
ENDMDL
MODEL 5
REMARK VINA RESULT:      -8.0      3.239      8.123
REMARK  Name = 
REMARK  6 active torsions:
REMARK  status: ('A' for Active; 'I' for Inactive)
REMARK    1  A    between atoms: C_2  and  C_17
REMARK    2  A    between atoms: N_3  and  C_4
REMARK    3  A    between atoms: C_4  and  C_5
REMARK    4  A    between atoms: C_4  and  C_11
REMARK    5  A    between atoms: C_5  and  N_6
REMARK    6  A    between atoms: C_21  and  N_22
REMARK                            x       y       z     vdW  Elec       q    Type
REMARK                         _______ _______ _______ _____ _____    ______ ____
ROOT
ATOM      1  O   UNL     1       2.790   8.794  17.231  0.00  0.00    +0.000 OA
ATOM      2  C   UNL     1       1.993   8.442  18.091  0.00  0.00    +0.000 C 
ATOM      3  N   UNL     1       1.971   7.180  18.643  0.00  0.00    +0.000 N 
ATOM      4  H   UNL     1       1.094   6.914  19.061  0.00  0.00    +0.000 HD
ENDROOT
BRANCH   2   5
ATOM      5  C   UNL     1       0.941   9.370  18.590  0.00  0.00    +0.000 A 
ATOM      6  C   UNL     1       1.089   9.958  19.850  0.00  0.00    +0.000 A 
ATOM      7  C   UNL     1       0.133  10.862  20.313  0.00  0.00    +0.000 A 
ATOM      8  C   UNL     1      -0.979  11.181  19.527  0.00  0.00    +0.000 A 
ATOM      9  C   UNL     1      -1.152  10.569  18.279  0.00  0.00    +0.000 A 
ATOM     10  C   UNL     1      -0.195   9.651  17.820  0.00  0.00    +0.000 A 
BRANCH   9  11
ATOM     11  N   UNL     1      -2.289  10.839  17.472  0.00  0.00    +0.000 N 
ATOM     12  C   UNL     1      -3.452  11.494  17.821  0.00  0.00    +0.000 A 
ATOM     13  C   UNL     1      -4.294  11.435  16.735  0.00  0.00    +0.000 A 
ATOM     14  C   UNL     1      -3.555  10.759  15.755  0.00  0.00    +0.000 A 
ATOM     15  N   UNL     1      -2.330  10.439  16.173  0.00  0.00    +0.000 NA
ENDBRANCH   9  11
ENDBRANCH   2   5
BRANCH   3  16
ATOM     16  C   UNL     1       2.896   6.114  18.257  0.00  0.00    +0.000 C 
BRANCH  16  17
ATOM     17  C   UNL     1       2.313   4.704  18.459  0.00  0.00    +0.000 A 
ATOM     18  C   UNL     1       1.425   4.361  19.497  0.00  0.00    +0.000 A 
ATOM     19  C   UNL     1       0.966   3.049  19.658  0.00  0.00    +0.000 A 
ATOM     20  C   UNL     1       1.392   2.047  18.797  0.00  0.00    +0.000 A 
ATOM     21  C   UNL     1       2.250   2.360  17.749  0.00  0.00    +0.000 A 
ATOM     22  C   UNL     1       2.687   3.677  17.570  0.00  0.00    +0.000 A 
ENDBRANCH  16  17
BRANCH  16  23
ATOM     23  C   UNL     1       4.302   6.279  18.905  0.00  0.00    +0.000 C 
BRANCH  23  24
ATOM     24  N   UNL     1       5.419   6.009  18.020  0.00  0.00    +0.000 N 
ATOM     25  C   UNL     1       6.228   4.908  18.046  0.00  0.00    +0.000 A 
ATOM     26  C   UNL     1       7.111   5.090  17.008  0.00  0.00    +0.000 A 
ATOM     27  N   UNL     1       6.821   6.239  16.320  0.00  0.00    +0.000 NA
ATOM     28  C   UNL     1       5.785   6.762  16.940  0.00  0.00    +0.000 A 
ENDBRANCH  23  24
ENDBRANCH  16  23
ENDBRANCH   3  16
TORSDOF 6
ENDMDL
MODEL 6
REMARK VINA RESULT:      -7.9      2.315      7.841
REMARK  Name = 
REMARK  6 active torsions:
REMARK  status: ('A' for Active; 'I' for Inactive)
REMARK    1  A    between atoms: C_2  and  C_17
REMARK    2  A    between atoms: N_3  and  C_4
REMARK    3  A    between atoms: C_4  and  C_5
REMARK    4  A    between atoms: C_4  and  C_11
REMARK    5  A    between atoms: C_5  and  N_6
REMARK    6  A    between atoms: C_21  and  N_22
REMARK                            x       y       z     vdW  Elec       q    Type
REMARK                         _______ _______ _______ _____ _____    ______ ____
ROOT
ATOM      1  O   UNL     1       2.332   6.488  20.491  0.00  0.00    +0.000 OA
ATOM      2  C   UNL     1       2.323   7.060  19.407  0.00  0.00    +0.000 C 
ATOM      3  N   UNL     1       2.827   6.511  18.249  0.00  0.00    +0.000 N 
ATOM      4  H   UNL     1       3.072   7.176  17.535  0.00  0.00    +0.000 HD
ENDROOT
BRANCH   2   5
ATOM      5  C   UNL     1       1.782   8.440  19.271  0.00  0.00    +0.000 A 
ATOM      6  C   UNL     1       1.985   9.139  18.077  0.00  0.00    +0.000 A 
ATOM      7  C   UNL     1       1.448  10.416  17.918  0.00  0.00    +0.000 A 
ATOM      8  C   UNL     1       0.711  11.008  18.950  0.00  0.00    +0.000 A 
ATOM      9  C   UNL     1       0.534  10.328  20.161  0.00  0.00    +0.000 A 
ATOM     10  C   UNL     1       1.084   9.046  20.323  0.00  0.00    +0.000 A 
BRANCH   9  11
ATOM     11  N   UNL     1      -0.174  10.913  21.244  0.00  0.00    +0.000 N 
ATOM     12  C   UNL     1      -0.435  12.248  21.475  0.00  0.00    +0.000 A 
ATOM     13  C   UNL     1      -1.075  12.333  22.691  0.00  0.00    +0.000 A 
ATOM     14  C   UNL     1      -1.197  11.004  23.116  0.00  0.00    +0.000 A 
ATOM     15  N   UNL     1      -0.702  10.139  22.230  0.00  0.00    +0.000 NA
ENDBRANCH   9  11
ENDBRANCH   2   5
BRANCH   3  16
ATOM     16  C   UNL     1       3.436   5.182  18.184  0.00  0.00    +0.000 C 
BRANCH  16  17
ATOM     17  C   UNL     1       4.425   5.026  17.014  0.00  0.00    +0.000 A 
ATOM     18  C   UNL     1       4.940   3.789  16.580  0.00  0.00    +0.000 A 
ATOM     19  C   UNL     1       5.875   3.715  15.542  0.00  0.00    +0.000 A 
ATOM     20  C   UNL     1       6.326   4.872  14.920  0.00  0.00    +0.000 A 
ATOM     21  C   UNL     1       5.817   6.104  15.312  0.00  0.00    +0.000 A 
ATOM     22  C   UNL     1       4.862   6.178  16.331  0.00  0.00    +0.000 A 
ENDBRANCH  16  17
BRANCH  16  23
ATOM     23  C   UNL     1       2.382   4.037  18.234  0.00  0.00    +0.000 C 
BRANCH  23  24
ATOM     24  N   UNL     1       2.198   3.431  19.539  0.00  0.00    +0.000 N 
ATOM     25  C   UNL     1       3.185   3.033  20.397  0.00  0.00    +0.000 A 
ATOM     26  C   UNL     1       2.524   2.553  21.502  0.00  0.00    +0.000 A 
ATOM     27  N   UNL     1       1.169   2.705  21.361  0.00  0.00    +0.000 NA
ATOM     28  C   UNL     1       1.003   3.255  20.178  0.00  0.00    +0.000 A 
ENDBRANCH  23  24
ENDBRANCH  16  23
ENDBRANCH   3  16
TORSDOF 6
ENDMDL
MODEL 7
REMARK VINA RESULT:      -7.9      2.329      8.364
REMARK  Name = 
REMARK  6 active torsions:
REMARK  status: ('A' for Active; 'I' for Inactive)
REMARK    1  A    between atoms: C_2  and  C_17
REMARK    2  A    between atoms: N_3  and  C_4
REMARK    3  A    between atoms: C_4  and  C_5
REMARK    4  A    between atoms: C_4  and  C_11
REMARK    5  A    between atoms: C_5  and  N_6
REMARK    6  A    between atoms: C_21  and  N_22
REMARK                            x       y       z     vdW  Elec       q    Type
REMARK                         _______ _______ _______ _____ _____    ______ ____
ROOT
ATOM      1  O   UNL     1       2.771   6.273  20.057  0.00  0.00    +0.000 OA
ATOM      2  C   UNL     1       2.577   6.899  19.022  0.00  0.00    +0.000 C 
ATOM      3  N   UNL     1       2.913   6.431  17.771  0.00  0.00    +0.000 N 
ATOM      4  H   UNL     1       3.024   7.141  17.067  0.00  0.00    +0.000 HD
ENDROOT
BRANCH   2   5
ATOM      5  C   UNL     1       1.979   8.261  19.048  0.00  0.00    +0.000 A 
ATOM      6  C   UNL     1       2.140   9.101  17.942  0.00  0.00    +0.000 A 
ATOM      7  C   UNL     1       1.550  10.365  17.934  0.00  0.00    +0.000 A 
ATOM      8  C   UNL     1       0.800  10.802  19.032  0.00  0.00    +0.000 A 
ATOM      9  C   UNL     1       0.663   9.980  20.158  0.00  0.00    +0.000 A 
ATOM     10  C   UNL     1       1.268   8.713  20.167  0.00  0.00    +0.000 A 
BRANCH   9  11
ATOM     11  N   UNL     1      -0.057  10.407  21.305  0.00  0.00    +0.000 N 
ATOM     12  C   UNL     1      -0.507  11.675  21.611  0.00  0.00    +0.000 A 
ATOM     13  C   UNL     1      -1.074  11.614  22.863  0.00  0.00    +0.000 A 
ATOM     14  C   UNL     1      -0.959  10.268  23.234  0.00  0.00    +0.000 A 
ATOM     15  N   UNL     1      -0.393   9.525  22.283  0.00  0.00    +0.000 NA
ENDBRANCH   9  11
ENDBRANCH   2   5
BRANCH   3  16
ATOM     16  C   UNL     1       3.547   5.132  17.538  0.00  0.00    +0.000 C 
BRANCH  16  17
ATOM     17  C   UNL     1       2.808   3.967  18.220  0.00  0.00    +0.000 A 
ATOM     18  C   UNL     1       1.446   3.673  18.018  0.00  0.00    +0.000 A 
ATOM     19  C   UNL     1       0.817   2.629  18.704  0.00  0.00    +0.000 A 
ATOM     20  C   UNL     1       1.528   1.861  19.617  0.00  0.00    +0.000 A 
ATOM     21  C   UNL     1       2.881   2.113  19.819  0.00  0.00    +0.000 A 
ATOM     22  C   UNL     1       3.517   3.138  19.113  0.00  0.00    +0.000 A 
ENDBRANCH  16  17
BRANCH  16  23
ATOM     23  C   UNL     1       5.071   5.145  17.858  0.00  0.00    +0.000 C 
BRANCH  23  24
ATOM     24  N   UNL     1       5.940   5.031  16.702  0.00  0.00    +0.000 N 
ATOM     25  C   UNL     1       5.758   4.209  15.626  0.00  0.00    +0.000 A 
ATOM     26  C   UNL     1       6.814   4.478  14.789  0.00  0.00    +0.000 A 
ATOM     27  N   UNL     1       7.595   5.482  15.300  0.00  0.00    +0.000 NA
ATOM     28  C   UNL     1       7.033   5.809  16.444  0.00  0.00    +0.000 A 
ENDBRANCH  23  24
ENDBRANCH  16  23
ENDBRANCH   3  16
TORSDOF 6
ENDMDL
MODEL 8
REMARK VINA RESULT:      -7.9      2.859      8.323
REMARK  Name = 
REMARK  6 active torsions:
REMARK  status: ('A' for Active; 'I' for Inactive)
REMARK    1  A    between atoms: C_2  and  C_17
REMARK    2  A    between atoms: N_3  and  C_4
REMARK    3  A    between atoms: C_4  and  C_5
REMARK    4  A    between atoms: C_4  and  C_11
REMARK    5  A    between atoms: C_5  and  N_6
REMARK    6  A    between atoms: C_21  and  N_22
REMARK                            x       y       z     vdW  Elec       q    Type
REMARK                         _______ _______ _______ _____ _____    ______ ____
ROOT
ATOM      1  O   UNL     1       2.312   8.596  17.318  0.00  0.00    +0.000 OA
ATOM      2  C   UNL     1       2.129   8.261  18.482  0.00  0.00    +0.000 C 
ATOM      3  N   UNL     1       2.508   7.041  18.995  0.00  0.00    +0.000 N 
ATOM      4  H   UNL     1       2.016   6.758  19.827  0.00  0.00    +0.000 HD
ENDROOT
BRANCH   2   5
ATOM      5  C   UNL     1       1.435   9.163  19.442  0.00  0.00    +0.000 A 
ATOM      6  C   UNL     1       1.063   8.672  20.697  0.00  0.00    +0.000 A 
ATOM      7  C   UNL     1       0.450   9.517  21.622  0.00  0.00    +0.000 A 
ATOM      8  C   UNL     1       0.199  10.854  21.301  0.00  0.00    +0.000 A 
ATOM      9  C   UNL     1       0.537  11.345  20.033  0.00  0.00    +0.000 A 
ATOM     10  C   UNL     1       1.144  10.490  19.099  0.00  0.00    +0.000 A 
BRANCH   9  11
ATOM     11  N   UNL     1       0.260  12.687  19.659  0.00  0.00    +0.000 N 
ATOM     12  C   UNL     1       1.004  13.521  18.850  0.00  0.00    +0.000 A 
ATOM     13  C   UNL     1       0.381  14.748  18.850  0.00  0.00    +0.000 A 
ATOM     14  C   UNL     1      -0.752  14.566  19.653  0.00  0.00    +0.000 A 
ATOM     15  N   UNL     1      -0.860  13.317  20.105  0.00  0.00    +0.000 NA
ENDBRANCH   9  11
ENDBRANCH   2   5
BRANCH   3  16
ATOM     16  C   UNL     1       3.167   6.002  18.204  0.00  0.00    +0.000 C 
BRANCH  16  17
ATOM     17  C   UNL     1       2.558   4.603  18.412  0.00  0.00    +0.000 A 
ATOM     18  C   UNL     1       2.850   3.489  17.601  0.00  0.00    +0.000 A 
ATOM     19  C   UNL     1       2.227   2.254  17.810  0.00  0.00    +0.000 A 
ATOM     20  C   UNL     1       1.289   2.104  18.823  0.00  0.00    +0.000 A 
ATOM     21  C   UNL     1       0.998   3.180  19.653  0.00  0.00    +0.000 A 
ATOM     22  C   UNL     1       1.641   4.408  19.464  0.00  0.00    +0.000 A 
ENDBRANCH  16  17
BRANCH  16  23
ATOM     23  C   UNL     1       4.715   6.011  18.374  0.00  0.00    +0.000 C 
BRANCH  23  24
ATOM     24  N   UNL     1       5.465   5.718  17.168  0.00  0.00    +0.000 N 
ATOM     25  C   UNL     1       6.477   4.807  17.042  0.00  0.00    +0.000 A 
ATOM     26  C   UNL     1       6.848   4.868  15.720  0.00  0.00    +0.000 A 
ATOM     27  N   UNL     1       6.051   5.745  15.032  0.00  0.00    +0.000 NA
ATOM     28  C   UNL     1       5.214   6.227  15.925  0.00  0.00    +0.000 A 
ENDBRANCH  23  24
ENDBRANCH  16  23
ENDBRANCH   3  16
TORSDOF 6
ENDMDL
MODEL 9
REMARK VINA RESULT:      -7.9      2.352      8.247
REMARK  Name = 
REMARK  6 active torsions:
REMARK  status: ('A' for Active; 'I' for Inactive)
REMARK    1  A    between atoms: C_2  and  C_17
REMARK    2  A    between atoms: N_3  and  C_4
REMARK    3  A    between atoms: C_4  and  C_5
REMARK    4  A    between atoms: C_4  and  C_11
REMARK    5  A    between atoms: C_5  and  N_6
REMARK    6  A    between atoms: C_21  and  N_22
REMARK                            x       y       z     vdW  Elec       q    Type
REMARK                         _______ _______ _______ _____ _____    ______ ____
ROOT
ATOM      1  O   UNL     1       3.082   8.177  16.760  0.00  0.00    +0.000 OA
ATOM      2  C   UNL     1       2.672   8.194  17.914  0.00  0.00    +0.000 C 
ATOM      3  N   UNL     1       2.688   7.098  18.748  0.00  0.00    +0.000 N 
ATOM      4  H   UNL     1       2.036   7.137  19.514  0.00  0.00    +0.000 HD
ENDROOT
BRANCH   2   5
ATOM      5  C   UNL     1       2.079   9.427  18.501  0.00  0.00    +0.000 A 
ATOM      6  C   UNL     1       2.263  10.651  17.850  0.00  0.00    +0.000 A 
ATOM      7  C   UNL     1       1.679  11.808  18.364  0.00  0.00    +0.000 A 
ATOM      8  C   UNL     1       0.913  11.755  19.533  0.00  0.00    +0.000 A 
ATOM      9  C   UNL     1       0.753  10.539  20.210  0.00  0.00    +0.000 A 
ATOM     10  C   UNL     1       1.351   9.377  19.696  0.00  0.00    +0.000 A 
BRANCH   9  11
ATOM     11  N   UNL     1       0.015  10.455  21.420  0.00  0.00    +0.000 N 
ATOM     12  C   UNL     1      -0.930  11.332  21.910  0.00  0.00    +0.000 A 
ATOM     13  C   UNL     1      -1.303  10.876  23.154  0.00  0.00    +0.000 A 
ATOM     14  C   UNL     1      -0.565   9.698  23.330  0.00  0.00    +0.000 A 
ATOM     15  N   UNL     1       0.195   9.411  22.273  0.00  0.00    +0.000 NA
ENDBRANCH   9  11
ENDBRANCH   2   5
BRANCH   3  16
ATOM     16  C   UNL     1       3.193   5.785  18.346  0.00  0.00    +0.000 C 
BRANCH  16  17
ATOM     17  C   UNL     1       2.346   4.619  18.887  0.00  0.00    +0.000 A 
ATOM     18  C   UNL     1       1.817   3.591  18.083  0.00  0.00    +0.000 A 
ATOM     19  C   UNL     1       1.013   2.583  18.626  0.00  0.00    +0.000 A 
ATOM     20  C   UNL     1       0.709   2.582  19.981  0.00  0.00    +0.000 A 
ATOM     21  C   UNL     1       1.238   3.571  20.803  0.00  0.00    +0.000 A 
ATOM     22  C   UNL     1       2.064   4.563  20.267  0.00  0.00    +0.000 A 
ENDBRANCH  16  17
BRANCH  16  23
ATOM     23  C   UNL     1       4.711   5.611  18.642  0.00  0.00    +0.000 C 
BRANCH  23  24
ATOM     24  N   UNL     1       5.558   5.520  17.468  0.00  0.00    +0.000 N 
ATOM     25  C   UNL     1       5.312   4.782  16.344  0.00  0.00    +0.000 A 
ATOM     26  C   UNL     1       6.373   5.039  15.510  0.00  0.00    +0.000 A 
ATOM     27  N   UNL     1       7.222   5.957  16.073  0.00  0.00    +0.000 NA
ATOM     28  C   UNL     1       6.695   6.244  17.244  0.00  0.00    +0.000 A 
ENDBRANCH  23  24
ENDBRANCH  16  23
ENDBRANCH   3  16
TORSDOF 6
ENDMDL
